data_image0
_cell_length_a       36.416
_cell_length_b       36.416
_cell_length_c       36.416
_cell_angle_alpha    90
_cell_angle_beta     90
_cell_angle_gamma    90

_symmetry_space_group_name_H-M    "P 1"
_symmetry_int_tables_number       1

loop_
  _symmetry_equiv_pos_as_xyz
  'x, y, z'

loop_
  _atom_site_label
  _atom_site_occupancy
  _atom_site_fract_x
  _atom_site_fract_y
  _atom_site_fract_z
  _atom_site_thermal_displace_type
  _atom_site_B_iso_or_equiv
  _atom_site_type_symbol
  C1       1.0000 0.43629  0.62258  0.32151  Biso   1.000  C
  C2       1.0000 0.40271  0.63384  0.30283  Biso   1.000  C
  H1       1.0000 0.43000  0.60740  0.34279  Biso   1.000  H
  H2       1.0000 0.45170  0.60839  0.30459  Biso   1.000  H
  H3       1.0000 0.44969  0.64439  0.32969  Biso   1.000  H
  C3       1.0000 0.40342  0.65727  0.26826  Biso   1.000  C
  H4       1.0000 0.38909  0.61111  0.29668  Biso   1.000  H
  H5       1.0000 0.38760  0.64719  0.32110  Biso   1.000  H
  C4       1.0000 0.36388  0.66781  0.25360  Biso   1.000  C
  H6       1.0000 0.41729  0.68009  0.27340  Biso   1.000  H
  H7       1.0000 0.41668  0.64378  0.24879  Biso   1.000  H
  C5       1.0000 0.34488  0.63329  0.24160  Biso   1.000  C
  C6       1.0000 0.33916  0.68168  0.28444  Biso   1.000  C
  C7       1.0000 0.36649  0.69447  0.22067  Biso   1.000  C
  C8       1.0000 0.35655  0.60995  0.21411  Biso   1.000  C
  C9       1.0000 0.31258  0.62695  0.26151  Biso   1.000  C
  C10      1.0000 0.30901  0.65669  0.28938  Biso   1.000  C
  C11      1.0000 0.34328  0.71062  0.30901  Biso   1.000  C
  H8       1.0000 0.38329  0.68390  0.20211  Biso   1.000  H
  H9       1.0000 0.37731  0.71790  0.22918  Biso   1.000  H
  C12      1.0000 0.33018  0.70236  0.20277  Biso   1.000  C
  C13      1.0000 0.33532  0.57972  0.20475  Biso   1.000  C
  H10      1.0000 0.37901  0.61459  0.20170  Biso   1.000  H
  C14      1.0000 0.29136  0.59619  0.25250  Biso   1.000  C
  C15      1.0000 0.28444  0.66084  0.31832  Biso   1.000  C
  C16      1.0000 0.37305  0.73847  0.31258  Biso   1.000  C
  C17      1.0000 0.31832  0.71556  0.33916  Biso   1.000  C
  H11      1.0000 0.31409  0.71518  0.22051  Biso   1.000  H
  H12      1.0000 0.31818  0.67890  0.19599  Biso   1.000  H
  C18      1.0000 0.33450  0.72556  0.16905  Biso   1.000  C
  C19      1.0000 0.34669  0.55267  0.17676  Biso   1.000  C
  C20      1.0000 0.30297  0.57299  0.22427  Biso   1.000  C
  H13      1.0000 0.26930  0.59120  0.26541  Biso   1.000  H
  C21      1.0000 0.28938  0.69096  0.34328  Biso   1.000  C
  C22      1.0000 0.25360  0.63612  0.33216  Biso   1.000  C
  C23      1.0000 0.36671  0.75840  0.34488  Biso   1.000  C
  C24      1.0000 0.40378  0.74750  0.29136  Biso   1.000  C
  C25      1.0000 0.33216  0.74640  0.36388  Biso   1.000  C
  H14      1.0000 0.31019  0.73039  0.15831  Biso   1.000  H
  H15      1.0000 0.34608  0.74890  0.17561  Biso   1.000  H
  H16      1.0000 0.34979  0.71260  0.15109  Biso   1.000  H
  N1       1.0000 0.37758  0.55259  0.16226  Biso   1.000  N
  H17      1.0000 0.32950  0.53438  0.16949  Biso   1.000  H
  H18      1.0000 0.28861  0.55209  0.21820  Biso   1.000  H
  C26      1.0000 0.26151  0.68739  0.37305  Biso   1.000  C
  C27      1.0000 0.24160  0.65512  0.36671  Biso   1.000  C
  C28      1.0000 0.22067  0.63351  0.30553  Biso   1.000  C
  C29      1.0000 0.26826  0.59655  0.34273  Biso   1.000  C
  C30      1.0000 0.39005  0.78586  0.35655  Biso   1.000  C
  H19      1.0000 0.40880  0.73459  0.26930  Biso   1.000  H
  C31      1.0000 0.42701  0.77570  0.30297  Biso   1.000  C
  C32      1.0000 0.30553  0.77933  0.36649  Biso   1.000  C
  C33      1.0000 0.34273  0.73174  0.40342  Biso   1.000  C
  C34      1.0000 0.38447  0.52428  0.13420  Biso   1.000  C
  C35      1.0000 0.25250  0.70862  0.40378  Biso   1.000  C
  C36      1.0000 0.21411  0.64345  0.39005  Biso   1.000  C
  H20      1.0000 0.20211  0.61668  0.31610  Biso   1.000  H
  H21      1.0000 0.22918  0.62269  0.28210  Biso   1.000  H
  C37      1.0000 0.20277  0.66979  0.29762  Biso   1.000  C
  H22      1.0000 0.27340  0.58268  0.31989  Biso   1.000  H
  H23      1.0000 0.24879  0.58329  0.35619  Biso   1.000  H
  C38      1.0000 0.30283  0.59729  0.36616  Biso   1.000  C
  C39      1.0000 0.42025  0.79523  0.33532  Biso   1.000  C
  H24      1.0000 0.38541  0.79830  0.37901  Biso   1.000  H
  H25      1.0000 0.44791  0.78180  0.28861  Biso   1.000  H
  H26      1.0000 0.31610  0.79789  0.38329  Biso   1.000  H
  H27      1.0000 0.28210  0.77079  0.37731  Biso   1.000  H
  C40      1.0000 0.29762  0.79723  0.33018  Biso   1.000  C
  H28      1.0000 0.31989  0.72660  0.41729  Biso   1.000  H
  H29      1.0000 0.35619  0.75118  0.41668  Biso   1.000  H
  C41      1.0000 0.36616  0.69717  0.40271  Biso   1.000  C
  C42      1.0000 0.39532  0.54204  0.09878  Biso   1.000  C
  H30      1.0000 0.40430  0.50769  0.14260  Biso   1.000  H
  H31      1.0000 0.36198  0.50939  0.13049  Biso   1.000  H
  H32      1.0000 0.26541  0.73070  0.40880  Biso   1.000  H
  C43      1.0000 0.22427  0.69700  0.42701  Biso   1.000  C
  C44      1.0000 0.20475  0.66468  0.42025  Biso   1.000  C
  H33      1.0000 0.20170  0.62099  0.38541  Biso   1.000  H
  H34      1.0000 0.22051  0.68588  0.28479  Biso   1.000  H
  H35      1.0000 0.19599  0.68179  0.32110  Biso   1.000  H
  C45      1.0000 0.16905  0.66550  0.27444  Biso   1.000  C
  H36      1.0000 0.29668  0.61089  0.38889  Biso   1.000  H
  H37      1.0000 0.32110  0.61240  0.35278  Biso   1.000  H
  C46      1.0000 0.32151  0.56368  0.37739  Biso   1.000  C
  C47      1.0000 0.44730  0.82324  0.34669  Biso   1.000  C
  H38      1.0000 0.28479  0.77949  0.31409  Biso   1.000  H
  H39      1.0000 0.32110  0.80399  0.31818  Biso   1.000  H
  C48      1.0000 0.27444  0.83095  0.33450  Biso   1.000  C
  H40      1.0000 0.38889  0.70329  0.38909  Biso   1.000  H
  H41      1.0000 0.35278  0.67890  0.38760  Biso   1.000  H
  C49      1.0000 0.37739  0.67849  0.43629  Biso   1.000  C
  N2       1.0000 0.36635  0.56678  0.08697  Biso   1.000  N
  H42      1.0000 0.39949  0.52298  0.07980  Biso   1.000  H
  H43      1.0000 0.41850  0.55588  0.10221  Biso   1.000  H
  H44      1.0000 0.21820  0.71139  0.44791  Biso   1.000  H
  C50      1.0000 0.17676  0.65331  0.44730  Biso   1.000  C
  H45      1.0000 0.15831  0.68978  0.26961  Biso   1.000  H
  H46      1.0000 0.17561  0.65389  0.25110  Biso   1.000  H
  H47      1.0000 0.15109  0.65018  0.28740  Biso   1.000  H
  H48      1.0000 0.34279  0.57000  0.39260  Biso   1.000  H
  H49      1.0000 0.30459  0.54830  0.39159  Biso   1.000  H
  H50      1.0000 0.32969  0.55028  0.35559  Biso   1.000  H
  N3       1.0000 0.44741  0.83774  0.37758  Biso   1.000  N
  H51      1.0000 0.46559  0.83049  0.32950  Biso   1.000  H
  H52      1.0000 0.26961  0.84169  0.31019  Biso   1.000  H
  H53      1.0000 0.25110  0.82439  0.34608  Biso   1.000  H
  H54      1.0000 0.28740  0.84889  0.34979  Biso   1.000  H
  H55      1.0000 0.39260  0.65718  0.43000  Biso   1.000  H
  H56      1.0000 0.39159  0.69538  0.45170  Biso   1.000  H
  H57      1.0000 0.35559  0.67028  0.44969  Biso   1.000  H
  C51      1.0000 0.37473  0.60078  0.08581  Biso   1.000  C
  N4       1.0000 0.16226  0.62239  0.44741  Biso   1.000  N
  H58      1.0000 0.16949  0.67050  0.46559  Biso   1.000  H
  C52      1.0000 0.47572  0.86580  0.38447  Biso   1.000  C
  C53      1.0000 0.34680  0.62912  0.07840  Biso   1.000  C
  H59      1.0000 0.39949  0.60800  0.08980  Biso   1.000  H
  C54      1.0000 0.13420  0.61553  0.47572  Biso   1.000  C
  C55      1.0000 0.45796  0.90120  0.39532  Biso   1.000  C
  H60      1.0000 0.49228  0.85740  0.40430  Biso   1.000  H
  H61      1.0000 0.49058  0.86948  0.36198  Biso   1.000  H
  C56      1.0000 0.30959  0.62154  0.07942  Biso   1.000  C
  C57      1.0000 0.35781  0.66539  0.07195  Biso   1.000  C
  C58      1.0000 0.09878  0.60468  0.45796  Biso   1.000  C
  H62      1.0000 0.14260  0.59570  0.49228  Biso   1.000  H
  H63      1.0000 0.13049  0.63799  0.49058  Biso   1.000  H
  N5       1.0000 0.43322  0.91301  0.36635  Biso   1.000  N
  H64      1.0000 0.47699  0.92020  0.39949  Biso   1.000  H
  H65      1.0000 0.44409  0.89779  0.41850  Biso   1.000  H
  C59      1.0000 0.28438  0.64903  0.07362  Biso   1.000  C
  H66      1.0000 0.30141  0.59718  0.08411  Biso   1.000  H
  C60      1.0000 0.33353  0.69274  0.06582  Biso   1.000  C
  H67      1.0000 0.38329  0.67100  0.07189  Biso   1.000  H
  N6       1.0000 0.08697  0.63362  0.43322  Biso   1.000  N
  H68      1.0000 0.07980  0.60051  0.47699  Biso   1.000  H
  H69      1.0000 0.10221  0.58150  0.44409  Biso   1.000  H
  C61      1.0000 0.39919  0.91419  0.37473  Biso   1.000  C
  C62      1.0000 0.24303  0.64565  0.07541  Biso   1.000  C
  C63      1.0000 0.29520  0.68539  0.06684  Biso   1.000  C
  H70      1.0000 0.34210  0.71688  0.06080  Biso   1.000  H
  C64      1.0000 0.08581  0.62527  0.39919  Biso   1.000  C
  C65      1.0000 0.37088  0.92160  0.34680  Biso   1.000  C
  H71      1.0000 0.39200  0.91018  0.39949  Biso   1.000  H
  C66      1.0000 0.23212  0.63269  0.11429  Biso   1.000  C
  C67      1.0000 0.23083  0.68473  0.06750  Biso   1.000  C
  C68      1.0000 0.23067  0.61830  0.04542  Biso   1.000  C
  C69      1.0000 0.26195  0.70832  0.06173  Biso   1.000  C
  C70      1.0000 0.07840  0.65320  0.37088  Biso   1.000  C
  H72      1.0000 0.08980  0.60051  0.39200  Biso   1.000  H
  C71      1.0000 0.37846  0.92058  0.30959  Biso   1.000  C
  C72      1.0000 0.33461  0.92803  0.35781  Biso   1.000  C
  C73      1.0000 0.24489  0.65716  0.14538  Biso   1.000  C
  H73      1.0000 0.24220  0.60778  0.11819  Biso   1.000  H
  H74      1.0000 0.20499  0.63079  0.11539  Biso   1.000  H
  C74      1.0000 0.19560  0.69909  0.06470  Biso   1.000  C
  C75      1.0000 0.24135  0.62909  0.00629  Biso   1.000  C
  H75      1.0000 0.20359  0.61580  0.04660  Biso   1.000  H
  H76      1.0000 0.24140  0.59400  0.05091  Biso   1.000  H
  C76      1.0000 0.25684  0.74445  0.05157  Biso   1.000  C
  C77      1.0000 0.07942  0.69041  0.37846  Biso   1.000  C
  C78      1.0000 0.07195  0.64219  0.33461  Biso   1.000  C
  C79      1.0000 0.35094  0.92638  0.28438  Biso   1.000  C
  H77      1.0000 0.40279  0.91589  0.30141  Biso   1.000  H
  C80      1.0000 0.30723  0.93418  0.33353  Biso   1.000  C
  H78      1.0000 0.32900  0.92808  0.38329  Biso   1.000  H
  H79      1.0000 0.23501  0.68220  0.14170  Biso   1.000  H
  H80      1.0000 0.27200  0.65880  0.14491  Biso   1.000  H
  C81      1.0000 0.23292  0.64318  0.18190  Biso   1.000  C
  C82      1.0000 0.19033  0.73665  0.05591  Biso   1.000  C
  C83      1.0000 0.15864  0.68223  0.06780  Biso   1.000  C
  H81      1.0000 0.26829  0.63208  0.00500  Biso   1.000  H
  H82      1.0000 0.23001  0.65309  0.00030  Biso   1.000  H
  C84      1.0000 0.22957  0.60136  0.97814  Biso   1.000  C
  C85      1.0000 0.28518  0.77334  0.04053  Biso   1.000  C
  C86      1.0000 0.22136  0.75887  0.04954  Biso   1.000  C
  C87      1.0000 0.07362  0.71559  0.35094  Biso   1.000  C
  H83      1.0000 0.08411  0.69859  0.40279  Biso   1.000  H
  C88      1.0000 0.06582  0.66647  0.30723  Biso   1.000  C
  H84      1.0000 0.07189  0.61668  0.32900  Biso   1.000  H
  C89      1.0000 0.35432  0.92457  0.24303  Biso   1.000  C
  C90      1.0000 0.31461  0.93316  0.29520  Biso   1.000  C
  H85      1.0000 0.28309  0.93920  0.34210  Biso   1.000  H
  H86      1.0000 0.24149  0.65990  0.20120  Biso   1.000  H
  H87      1.0000 0.20601  0.64181  0.18258  Biso   1.000  H
  H88      1.0000 0.24330  0.61868  0.18599  Biso   1.000  H
  C91      1.0000 0.14980  0.74544  0.05207  Biso   1.000  C
  C92      1.0000 0.14614  0.64675  0.07623  Biso   1.000  C
  C93      1.0000 0.13233  0.70903  0.06017  Biso   1.000  C
  H89      1.0000 0.23399  0.57650  0.98759  Biso   1.000  H
  H90      1.0000 0.20329  0.60440  0.97301  Biso   1.000  H
  H91      1.0000 0.24360  0.60498  0.95551  Biso   1.000  H
  C94      1.0000 0.30945  0.78463  0.07302  Biso   1.000  C
  C95      1.0000 0.30866  0.76129  0.00719  Biso   1.000  C
  C96      1.0000 0.26134  0.80522  0.03012  Biso   1.000  C
  C97      1.0000 0.22389  0.79756  0.03726  Biso   1.000  C
  C98      1.0000 0.07541  0.75695  0.35432  Biso   1.000  C
  C99      1.0000 0.06684  0.70480  0.31461  Biso   1.000  C
  H92      1.0000 0.06080  0.65790  0.28309  Biso   1.000  H
  C100     1.0000 0.36728  0.88571  0.23212  Biso   1.000  C
  C101     1.0000 0.31527  0.93250  0.23083  Biso   1.000  C
  C102     1.0000 0.38170  0.95458  0.23067  Biso   1.000  C
  C103     1.0000 0.29166  0.93827  0.26195  Biso   1.000  C
  C104     1.0000 0.13664  0.77205  0.08255  Biso   1.000  C
  C105     1.0000 0.14057  0.75730  0.01079  Biso   1.000  C
  H93      1.0000 0.16339  0.62799  0.08189  Biso   1.000  H
  C106     1.0000 0.10883  0.63889  0.07631  Biso   1.000  C
  C107     1.0000 0.09543  0.70134  0.06033  Biso   1.000  C
  H94      1.0000 0.31950  0.76120  0.08241  Biso   1.000  H
  H95      1.0000 0.29190  0.79309  0.09191  Biso   1.000  H
  C108     1.0000 0.34040  0.81058  0.07571  Biso   1.000  C
  H96      1.0000 0.32870  0.80110  0.06310  Biso   1.000  H
  H97      1.0000 0.32208  0.76219  0.08169  Biso   1.000  H
  C109     1.0000 0.29509  0.80160  0.10350  Biso   1.000  C
  H98      1.0000 0.32571  0.74168  0.01530  Biso   1.000  H
  H99      1.0000 0.32379  0.78240  0.99920  Biso   1.000  H
  C110     1.0000 0.28740  0.74764  0.97501  Biso   1.000  C
  C111     1.0000 0.27255  0.83834  0.01552  Biso   1.000  C
  C112     1.0000 0.19884  0.82563  0.03174  Biso   1.000  C
  C113     1.0000 0.11429  0.76788  0.36728  Biso   1.000  C
  C114     1.0000 0.06750  0.76917  0.31527  Biso   1.000  C
  C115     1.0000 0.04542  0.76933  0.38170  Biso   1.000  C
  C116     1.0000 0.06173  0.73803  0.29166  Biso   1.000  C
  C117     1.0000 0.34284  0.85460  0.24489  Biso   1.000  C
  H100     1.0000 0.39219  0.88178  0.24220  Biso   1.000  H
  H101     1.0000 0.36921  0.88458  0.20499  Biso   1.000  H
  C118     1.0000 0.30088  0.93530  0.19560  Biso   1.000  C
  C119     1.0000 0.37088  0.99371  0.24135  Biso   1.000  C
  H102     1.0000 0.38420  0.95340  0.20359  Biso   1.000  H
  H103     1.0000 0.40600  0.94909  0.24140  Biso   1.000  H
  C120     1.0000 0.25555  0.94843  0.25684  Biso   1.000  C
  H104     1.0000 0.10951  0.77340  0.08169  Biso   1.000  H
  H105     1.0000 0.14620  0.79690  0.07700  Biso   1.000  H
  C121     1.0000 0.14776  0.76222  0.12008  Biso   1.000  C
  H106     1.0000 0.16081  0.77320  0.00189  Biso   1.000  H
  C122     1.0000 0.10440  0.77752  0.00426  Biso   1.000  C
  H107     1.0000 0.14060  0.73490  0.99539  Biso   1.000  H
  H108     1.0000 0.10070  0.61489  0.08249  Biso   1.000  H
  C123     1.0000 0.08315  0.66581  0.06747  Biso   1.000  C
  H109     1.0000 0.07821  0.72029  0.05561  Biso   1.000  H
  H110     1.0000 0.33189  0.83458  0.06610  Biso   1.000  H
  H111     1.0000 0.36001  0.80190  0.05901  Biso   1.000  H
  C124     1.0000 0.35660  0.81689  0.11141  Biso   1.000  C
  H112     1.0000 0.27730  0.82049  0.09540  Biso   1.000  H
  H113     1.0000 0.28139  0.78320  0.11811  Biso   1.000  H
  C125     1.0000 0.32359  0.82000  0.12841  Biso   1.000  C
  H114     1.0000 0.26980  0.76678  0.96729  Biso   1.000  H
  H115     1.0000 0.27309  0.72578  0.98251  Biso   1.000  H
  C126     1.0000 0.31085  0.73778  0.94321  Biso   1.000  C
  C127     1.0000 0.24610  0.86553  0.00917  Biso   1.000  C
  H116     1.0000 0.29759  0.84260  0.00991  Biso   1.000  H
  C128     1.0000 0.21018  0.85951  0.01900  Biso   1.000  C
  H117     1.0000 0.17361  0.82159  0.03680  Biso   1.000  H
  C129     1.0000 0.14538  0.75511  0.34284  Biso   1.000  C
  H118     1.0000 0.11819  0.75780  0.39219  Biso   1.000  H
  H119     1.0000 0.11539  0.79498  0.36921  Biso   1.000  H
  C130     1.0000 0.06470  0.80437  0.30088  Biso   1.000  C
  C131     1.0000 0.00629  0.75865  0.37088  Biso   1.000  C
  H120     1.0000 0.04660  0.79638  0.38420  Biso   1.000  H
  H121     1.0000 0.05091  0.75860  0.40600  Biso   1.000  H
  C132     1.0000 0.05157  0.74316  0.25555  Biso   1.000  C
  H122     1.0000 0.31780  0.85828  0.23501  Biso   1.000  H
  H123     1.0000 0.34120  0.85509  0.27200  Biso   1.000  H
  C133     1.0000 0.35679  0.81807  0.23292  Biso   1.000  C
  C134     1.0000 0.31774  0.93220  0.15864  Biso   1.000  C
  C135     1.0000 0.26332  0.94409  0.19033  Biso   1.000  C
  H124     1.0000 0.36789  0.99497  0.26829  Biso   1.000  H
  H125     1.0000 0.34691  0.99970  0.23001  Biso   1.000  H
  C136     1.0000 0.39864  0.02186  0.22957  Biso   1.000  C
  C137     1.0000 0.22666  0.95947  0.28518  Biso   1.000  C
  C138     1.0000 0.24113  0.95046  0.22136  Biso   1.000  C
  H126     1.0000 0.14030  0.73649  0.12489  Biso   1.000  H
  H127     1.0000 0.17490  0.76340  0.12170  Biso   1.000  H
  C139     1.0000 0.13159  0.78658  0.15010  Biso   1.000  C
  H128     1.0000 0.10380  0.80028  0.01911  Biso   1.000  H
  H129     1.0000 0.08359  0.76178  0.01200  Biso   1.000  H
  C140     1.0000 0.10070  0.78680  0.96466  Biso   1.000  C
  C141     1.0000 0.04377  0.65652  0.06593  Biso   1.000  C
  H130     1.0000 0.37689  0.83450  0.10910  Biso   1.000  H
  H131     1.0000 0.33798  0.82678  0.12810  Biso   1.000  H
  H132     1.0000 0.36599  0.79369  0.12121  Biso   1.000  H
  H133     1.0000 0.34059  0.80130  0.13791  Biso   1.000  H
  H134     1.0000 0.33741  0.83829  0.11429  Biso   1.000  H
  H135     1.0000 0.31121  0.83200  0.14900  Biso   1.000  H
  H136     1.0000 0.29539  0.72899  0.92300  Biso   1.000  H
  H137     1.0000 0.32458  0.75950  0.93511  Biso   1.000  H
  H138     1.0000 0.32810  0.71839  0.95041  Biso   1.000  H
  C142     1.0000 0.25752  0.90070  0.99322  Biso   1.000  C
  H139     1.0000 0.19291  0.87890  0.01700  Biso   1.000  H
  H140     1.0000 0.14170  0.76499  0.31780  Biso   1.000  H
  H141     1.0000 0.14491  0.72800  0.34120  Biso   1.000  H
  C143     1.0000 0.18190  0.76708  0.35679  Biso   1.000  C
  C144     1.0000 0.05591  0.80967  0.26332  Biso   1.000  C
  C145     1.0000 0.06780  0.84133  0.31774  Biso   1.000  C
  H142     1.0000 0.00500  0.73168  0.36789  Biso   1.000  H
  H143     1.0000 0.00030  0.76999  0.34691  Biso   1.000  H
  C146     1.0000 0.97814  0.77043  0.39864  Biso   1.000  C
  C147     1.0000 0.04053  0.71480  0.22666  Biso   1.000  C
  C148     1.0000 0.04954  0.77861  0.24113  Biso   1.000  C
  H144     1.0000 0.34010  0.79880  0.24149  Biso   1.000  H
  H145     1.0000 0.35819  0.81739  0.20601  Biso   1.000  H
  H146     1.0000 0.38129  0.81398  0.24330  Biso   1.000  H
  C149     1.0000 0.35322  0.92377  0.14614  Biso   1.000  C
  C150     1.0000 0.29097  0.93981  0.13233  Biso   1.000  C
  C151     1.0000 0.25456  0.94793  0.14980  Biso   1.000  C
  H147     1.0000 0.42350  0.01238  0.23399  Biso   1.000  H
  H148     1.0000 0.39560  0.02699  0.20329  Biso   1.000  H
  H149     1.0000 0.39499  0.04449  0.24360  Biso   1.000  H
  C152     1.0000 0.21534  0.92698  0.30945  Biso   1.000  C
  C153     1.0000 0.23871  0.99281  0.30866  Biso   1.000  C
  C154     1.0000 0.19475  0.96985  0.26134  Biso   1.000  C
  C155     1.0000 0.20244  0.96271  0.22389  Biso   1.000  C
  H150     1.0000 0.14019  0.77809  0.17410  Biso   1.000  H
  H151     1.0000 0.13950  0.81198  0.14620  Biso   1.000  H
  H152     1.0000 0.10471  0.78529  0.14919  Biso   1.000  H
  H153     1.0000 0.07760  0.79998  0.96070  Biso   1.000  H
  H154     1.0000 0.12129  0.80228  0.95711  Biso   1.000  H
  H155     1.0000 0.10070  0.76409  0.95010  Biso   1.000  H
  N7       1.0000 0.02224  0.67586  0.04644  Biso   1.000  N
  H156     1.0000 0.03449  0.63620  0.07950  Biso   1.000  H
  N8       1.0000 0.28677  0.90490  0.97553  Biso   1.000  N
  H157     1.0000 0.24190  0.92138  0.99640  Biso   1.000  H
  H158     1.0000 0.20120  0.75849  0.34010  Biso   1.000  H
  H159     1.0000 0.18258  0.79399  0.35819  Biso   1.000  H
  H160     1.0000 0.18599  0.75670  0.38129  Biso   1.000  H
  C156     1.0000 0.05207  0.85020  0.25456  Biso   1.000  C
  C157     1.0000 0.07623  0.85383  0.35322  Biso   1.000  C
  C158     1.0000 0.06017  0.86767  0.29097  Biso   1.000  C
  H161     1.0000 0.98759  0.76598  0.42350  Biso   1.000  H
  H162     1.0000 0.97301  0.79668  0.39560  Biso   1.000  H
  H163     1.0000 0.95551  0.75640  0.39499  Biso   1.000  H
  C159     1.0000 0.03012  0.73863  0.19475  Biso   1.000  C
  C160     1.0000 0.07302  0.69052  0.21534  Biso   1.000  C
  C161     1.0000 0.00719  0.69132  0.23871  Biso   1.000  C
  C162     1.0000 0.03726  0.77609  0.20244  Biso   1.000  C
  C163     1.0000 0.36111  0.92369  0.10883  Biso   1.000  C
  H164     1.0000 0.37201  0.91809  0.16339  Biso   1.000  H
  C164     1.0000 0.29866  0.93967  0.09543  Biso   1.000  C
  C165     1.0000 0.22795  0.91743  0.13664  Biso   1.000  C
  C166     1.0000 0.24270  0.98921  0.14057  Biso   1.000  C
  H165     1.0000 0.23880  0.91759  0.31950  Biso   1.000  H
  H166     1.0000 0.20689  0.90809  0.29190  Biso   1.000  H
  C167     1.0000 0.18939  0.92429  0.34040  Biso   1.000  C
  H167     1.0000 0.19890  0.93690  0.32870  Biso   1.000  H
  H168     1.0000 0.23781  0.91828  0.32208  Biso   1.000  H
  C168     1.0000 0.19840  0.89650  0.29509  Biso   1.000  C
  H169     1.0000 0.25829  0.98468  0.32571  Biso   1.000  H
  H170     1.0000 0.21760  0.00080  0.32379  Biso   1.000  H
  C169     1.0000 0.25236  0.02499  0.28740  Biso   1.000  C
  C170     1.0000 0.16166  0.98446  0.27255  Biso   1.000  C
  C171     1.0000 0.17435  0.96823  0.19884  Biso   1.000  C
  C172     1.0000 0.98259  0.66803  0.04781  Biso   1.000  C
  C173     1.0000 0.29720  0.94126  0.96287  Biso   1.000  C
  C174     1.0000 0.08255  0.86333  0.22795  Biso   1.000  C
  C175     1.0000 0.01079  0.85943  0.24270  Biso   1.000  C
  H171     1.0000 0.08189  0.83658  0.37201  Biso   1.000  H
  C176     1.0000 0.07631  0.89117  0.36111  Biso   1.000  C
  C177     1.0000 0.06033  0.90455  0.29866  Biso   1.000  C
  C178     1.0000 0.01552  0.72745  0.16166  Biso   1.000  C
  H172     1.0000 0.08241  0.68050  0.23880  Biso   1.000  H
  H173     1.0000 0.09191  0.70810  0.20689  Biso   1.000  H
  C179     1.0000 0.07571  0.65960  0.18939  Biso   1.000  C
  H174     1.0000 0.06310  0.67130  0.19890  Biso   1.000  H
  H175     1.0000 0.08169  0.67789  0.23781  Biso   1.000  H
  C180     1.0000 0.10350  0.70488  0.19840  Biso   1.000  C
  H176     1.0000 0.01530  0.67429  0.25829  Biso   1.000  H
  H177     1.0000 0.99920  0.67619  0.21760  Biso   1.000  H
  C181     1.0000 0.97501  0.71257  0.25236  Biso   1.000  C
  C182     1.0000 0.03174  0.80116  0.17435  Biso   1.000  C
  C183     1.0000 0.33419  0.93253  0.08315  Biso   1.000  C
  H178     1.0000 0.38511  0.91748  0.10070  Biso   1.000  H
  H179     1.0000 0.27968  0.94439  0.07821  Biso   1.000  H
  H180     1.0000 0.22660  0.91828  0.10951  Biso   1.000  H
  H181     1.0000 0.20310  0.92300  0.14620  Biso   1.000  H
  C184     1.0000 0.23778  0.87989  0.14776  Biso   1.000  C
  H182     1.0000 0.22680  0.99808  0.16081  Biso   1.000  H
  C185     1.0000 0.22246  0.99572  0.10440  Biso   1.000  C
  H183     1.0000 0.26510  0.00459  0.14060  Biso   1.000  H
  H184     1.0000 0.16539  0.93390  0.33189  Biso   1.000  H
  H185     1.0000 0.19810  0.94099  0.36001  Biso   1.000  H
  C186     1.0000 0.18311  0.88859  0.35660  Biso   1.000  C
  H186     1.0000 0.17951  0.90460  0.27730  Biso   1.000  H
  H187     1.0000 0.21680  0.88189  0.28139  Biso   1.000  H
  C187     1.0000 0.18000  0.87159  0.32359  Biso   1.000  C
  H188     1.0000 0.23319  0.03268  0.26980  Biso   1.000  H
  H189     1.0000 0.27419  0.01749  0.27309  Biso   1.000  H
  C188     1.0000 0.26219  0.05676  0.31085  Biso   1.000  C
  C189     1.0000 0.13445  0.99080  0.24610  Biso   1.000  C
  H190     1.0000 0.15740  0.99009  0.29759  Biso   1.000  H
  C190     1.0000 0.14049  0.98100  0.21018  Biso   1.000  C
  H191     1.0000 0.17841  0.96318  0.17361  Biso   1.000  H
  H192     1.0000 0.97391  0.65968  0.02340  Biso   1.000  H
  H193     1.0000 0.97759  0.64840  0.06591  Biso   1.000  H
  C191     1.0000 0.96287  0.70277  0.05874  Biso   1.000  C
  H194     1.0000 0.30141  0.94088  0.93599  Biso   1.000  H
  H195     1.0000 0.27741  0.95908  0.96820  Biso   1.000  H
  C192     1.0000 0.33194  0.95219  0.98259  Biso   1.000  C
  H196     1.0000 0.08169  0.89049  0.22660  Biso   1.000  H
  H197     1.0000 0.07700  0.85380  0.20310  Biso   1.000  H
  C193     1.0000 0.12008  0.85224  0.23778  Biso   1.000  C
  H198     1.0000 0.00189  0.83919  0.22680  Biso   1.000  H
  C194     1.0000 0.00426  0.89560  0.22246  Biso   1.000  C
  H199     1.0000 0.99539  0.85940  0.26510  Biso   1.000  H
  H200     1.0000 0.08249  0.89930  0.38511  Biso   1.000  H
  C195     1.0000 0.06747  0.91685  0.33419  Biso   1.000  C
  H201     1.0000 0.05561  0.92179  0.27968  Biso   1.000  H
  C196     1.0000 0.00917  0.75387  0.13445  Biso   1.000  C
  H202     1.0000 0.00991  0.70238  0.15740  Biso   1.000  H
  H203     1.0000 0.06610  0.66809  0.16539  Biso   1.000  H
  H204     1.0000 0.05901  0.63999  0.19810  Biso   1.000  H
  C197     1.0000 0.11141  0.64340  0.18311  Biso   1.000  C
  H205     1.0000 0.09540  0.72270  0.17951  Biso   1.000  H
  H206     1.0000 0.11811  0.71859  0.21680  Biso   1.000  H
  C198     1.0000 0.12841  0.67638  0.18000  Biso   1.000  C
  H207     1.0000 0.96729  0.73020  0.23319  Biso   1.000  H
  H208     1.0000 0.98251  0.72688  0.27419  Biso   1.000  H
  C199     1.0000 0.94321  0.68912  0.26219  Biso   1.000  C
  C200     1.0000 0.01900  0.78982  0.14049  Biso   1.000  C
  H209     1.0000 0.03680  0.82639  0.17841  Biso   1.000  H
  C201     1.0000 0.34345  0.93404  0.04377  Biso   1.000  C
  H210     1.0000 0.26351  0.87508  0.14030  Biso   1.000  H
  H211     1.0000 0.23660  0.87830  0.17490  Biso   1.000  H
  C202     1.0000 0.21340  0.84990  0.13159  Biso   1.000  C
  H212     1.0000 0.19969  0.98089  0.10380  Biso   1.000  H
  H213     1.0000 0.23819  0.98800  0.08359  Biso   1.000  H
  C203     1.0000 0.21320  0.03534  0.10070  Biso   1.000  C
  H214     1.0000 0.16550  0.89090  0.37689  Biso   1.000  H
  H215     1.0000 0.17319  0.87190  0.33798  Biso   1.000  H
  H216     1.0000 0.20631  0.87879  0.36599  Biso   1.000  H
  H217     1.0000 0.19870  0.86209  0.34059  Biso   1.000  H
  H218     1.0000 0.16169  0.88568  0.33741  Biso   1.000  H
  H219     1.0000 0.16800  0.85100  0.31121  Biso   1.000  H
  H220     1.0000 0.27101  0.07700  0.29539  Biso   1.000  H
  H221     1.0000 0.24050  0.06489  0.32458  Biso   1.000  H
  H222     1.0000 0.28161  0.04959  0.32810  Biso   1.000  H
  C204     1.0000 0.09930  0.00676  0.25752  Biso   1.000  C
  H223     1.0000 0.12110  0.98300  0.19291  Biso   1.000  H
  N9       1.0000 0.97553  0.71323  0.09507  Biso   1.000  N
  H224     1.0000 0.93599  0.69859  0.05909  Biso   1.000  H
  H225     1.0000 0.96820  0.72259  0.04089  Biso   1.000  H
  N10      1.0000 0.32412  0.95356  0.02224  Biso   1.000  N
  H226     1.0000 0.34029  0.97658  0.97391  Biso   1.000  H
  H227     1.0000 0.35160  0.93409  0.97759  Biso   1.000  H
  H228     1.0000 0.12489  0.85968  0.26351  Biso   1.000  H
  H229     1.0000 0.12170  0.82508  0.23660  Biso   1.000  H
  C205     1.0000 0.15010  0.86838  0.21340  Biso   1.000  C
  H230     1.0000 0.01911  0.89620  0.19969  Biso   1.000  H
  H231     1.0000 0.01200  0.91638  0.23819  Biso   1.000  H
  C206     1.0000 0.96466  0.89930  0.21320  Biso   1.000  C
  C207     1.0000 0.06593  0.95623  0.34345  Biso   1.000  C
  C208     1.0000 0.99322  0.74245  0.09930  Biso   1.000  C
  H232     1.0000 0.10910  0.62311  0.16550  Biso   1.000  H
  H233     1.0000 0.12810  0.66199  0.17319  Biso   1.000  H
  H234     1.0000 0.12121  0.63398  0.20631  Biso   1.000  H
  H235     1.0000 0.13791  0.65938  0.19870  Biso   1.000  H
  H236     1.0000 0.11429  0.66259  0.16169  Biso   1.000  H
  H237     1.0000 0.14900  0.68879  0.16800  Biso   1.000  H
  H238     1.0000 0.92300  0.70458  0.27101  Biso   1.000  H
  H239     1.0000 0.93511  0.67539  0.24050  Biso   1.000  H
  H240     1.0000 0.95041  0.67190  0.28161  Biso   1.000  H
  H241     1.0000 0.01700  0.80709  0.12110  Biso   1.000  H
  H242     1.0000 0.36380  0.92050  0.03449  Biso   1.000  H
  H243     1.0000 0.22191  0.82590  0.14019  Biso   1.000  H
  H244     1.0000 0.18799  0.85380  0.13950  Biso   1.000  H
  H245     1.0000 0.21469  0.85078  0.10471  Biso   1.000  H
  H246     1.0000 0.19999  0.03930  0.07760  Biso   1.000  H
  H247     1.0000 0.19769  0.04289  0.12129  Biso   1.000  H
  H248     1.0000 0.23589  0.04990  0.10070  Biso   1.000  H
  N11      1.0000 0.09507  0.02444  0.28677  Biso   1.000  N
  H249     1.0000 0.07859  0.00360  0.24190  Biso   1.000  H
  H250     1.0000 0.17410  0.85979  0.22191  Biso   1.000  H
  H251     1.0000 0.14620  0.86050  0.18799  Biso   1.000  H
  H252     1.0000 0.14919  0.89529  0.21469  Biso   1.000  H
  H253     1.0000 0.96070  0.92240  0.19999  Biso   1.000  H
  H254     1.0000 0.95711  0.87868  0.19769  Biso   1.000  H
  H255     1.0000 0.95010  0.89930  0.23589  Biso   1.000  H
  N12      1.0000 0.04644  0.97773  0.32412  Biso   1.000  N
  H256     1.0000 0.07950  0.96548  0.36380  Biso   1.000  H
  H257     1.0000 0.99640  0.75810  0.07859  Biso   1.000  H
  C209     1.0000 0.05874  0.03713  0.29720  Biso   1.000  C
  C210     1.0000 0.04781  0.01738  0.33194  Biso   1.000  C
  H258     1.0000 0.05909  0.06398  0.30141  Biso   1.000  H
  H259     1.0000 0.04089  0.03180  0.27741  Biso   1.000  H
  H260     1.0000 0.02340  0.02609  0.34029  Biso   1.000  H
  H261     1.0000 0.06591  0.02238  0.35160  Biso   1.000  H
  C211     1.0000 0.71320  0.60067  0.53534  Biso   1.000  C
  C212     1.0000 0.72246  0.60440  0.49574  Biso   1.000  C
  H262     1.0000 0.69999  0.57760  0.53930  Biso   1.000  H
  H263     1.0000 0.69769  0.62129  0.54289  Biso   1.000  H
  H264     1.0000 0.73589  0.60070  0.54990  Biso   1.000  H
  C213     1.0000 0.74267  0.64057  0.48921  Biso   1.000  C
  H265     1.0000 0.69969  0.60380  0.48089  Biso   1.000  H
  H266     1.0000 0.73819  0.58359  0.48800  Biso   1.000  H
  C214     1.0000 0.75456  0.64980  0.44793  Biso   1.000  C
  H267     1.0000 0.76510  0.64060  0.50459  Biso   1.000  H
  H268     1.0000 0.72680  0.66078  0.49811  Biso   1.000  H
  C215     1.0000 0.79097  0.63230  0.43983  Biso   1.000  C
  C216     1.0000 0.76332  0.69030  0.44409  Biso   1.000  C
  C217     1.0000 0.72792  0.63664  0.41743  Biso   1.000  C
  C218     1.0000 0.79863  0.59543  0.43967  Biso   1.000  C
  C219     1.0000 0.81774  0.65864  0.43220  Biso   1.000  C
  C220     1.0000 0.74113  0.72136  0.45046  Biso   1.000  C
  C221     1.0000 0.80088  0.69560  0.43530  Biso   1.000  C
  H269     1.0000 0.72660  0.60948  0.41831  Biso   1.000  H
  H270     1.0000 0.70310  0.64620  0.42300  Biso   1.000  H
  C222     1.0000 0.73775  0.64776  0.37992  Biso   1.000  C
  C223     1.0000 0.83419  0.58312  0.43253  Biso   1.000  C
  H271     1.0000 0.77968  0.57818  0.44439  Biso   1.000  H
  C224     1.0000 0.85322  0.64614  0.42377  Biso   1.000  C
  C225     1.0000 0.70244  0.72389  0.46274  Biso   1.000  C
  C226     1.0000 0.75552  0.75684  0.44843  Biso   1.000  C
  C227     1.0000 0.81527  0.73083  0.43250  Biso   1.000  C
  H272     1.0000 0.76348  0.64030  0.37508  Biso   1.000  H
  H273     1.0000 0.73660  0.67490  0.37830  Biso   1.000  H
  C228     1.0000 0.71340  0.63159  0.34990  Biso   1.000  C
  C229     1.0000 0.84345  0.54377  0.43407  Biso   1.000  C
  C230     1.0000 0.86108  0.60883  0.42369  Biso   1.000  C
  H274     1.0000 0.87198  0.66339  0.41809  Biso   1.000  H
  C231     1.0000 0.69475  0.76134  0.46988  Biso   1.000  C
  C232     1.0000 0.67435  0.69881  0.46826  Biso   1.000  C
  C233     1.0000 0.72666  0.78518  0.45947  Biso   1.000  C
  C234     1.0000 0.79166  0.76195  0.43827  Biso   1.000  C
  C235     1.0000 0.85432  0.74303  0.42459  Biso   1.000  C
  H275     1.0000 0.72188  0.64019  0.32590  Biso   1.000  H
  H276     1.0000 0.68799  0.63950  0.35380  Biso   1.000  H
  H277     1.0000 0.71469  0.60468  0.35081  Biso   1.000  H
  N13      1.0000 0.82412  0.52224  0.45356  Biso   1.000  N
  H278     1.0000 0.86380  0.53449  0.42050  Biso   1.000  H
  H279     1.0000 0.88508  0.60070  0.41751  Biso   1.000  H
  C236     1.0000 0.66163  0.77252  0.48448  Biso   1.000  C
  C237     1.0000 0.64046  0.71018  0.48100  Biso   1.000  C
  H280     1.0000 0.67838  0.67361  0.46320  Biso   1.000  H
  C238     1.0000 0.71534  0.80945  0.42698  Biso   1.000  C
  C239     1.0000 0.73871  0.80866  0.49281  Biso   1.000  C
  C240     1.0000 0.81461  0.79517  0.43316  Biso   1.000  C
  C241     1.0000 0.85094  0.78438  0.42638  Biso   1.000  C
  C242     1.0000 0.86728  0.73212  0.38571  Biso   1.000  C
  C243     1.0000 0.88170  0.73064  0.45458  Biso   1.000  C
  C244     1.0000 0.83194  0.48259  0.45219  Biso   1.000  C
  C245     1.0000 0.63445  0.74610  0.49080  Biso   1.000  C
  H281     1.0000 0.65740  0.79759  0.49009  Biso   1.000  H
  H282     1.0000 0.62110  0.69288  0.48300  Biso   1.000  H
  H283     1.0000 0.73880  0.81950  0.41759  Biso   1.000  H
  H284     1.0000 0.70689  0.79188  0.40809  Biso   1.000  H
  C246     1.0000 0.68939  0.84040  0.42429  Biso   1.000  C
  H285     1.0000 0.69890  0.82870  0.43690  Biso   1.000  H
  H286     1.0000 0.73778  0.82208  0.41831  Biso   1.000  H
  C247     1.0000 0.69840  0.79509  0.39650  Biso   1.000  C
  H287     1.0000 0.75829  0.82568  0.48470  Biso   1.000  H
  H288     1.0000 0.71760  0.82379  0.50080  Biso   1.000  H
  C248     1.0000 0.75236  0.78740  0.52499  Biso   1.000  C
  C249     1.0000 0.80723  0.83351  0.43418  Biso   1.000  C
  C250     1.0000 0.87846  0.80959  0.42058  Biso   1.000  C
  C251     1.0000 0.84282  0.74489  0.35462  Biso   1.000  C
  H289     1.0000 0.89219  0.74220  0.38178  Biso   1.000  H
  H290     1.0000 0.86918  0.70499  0.38458  Biso   1.000  H
  C252     1.0000 0.87088  0.74132  0.49371  Biso   1.000  C
  H291     1.0000 0.88420  0.70359  0.45340  Biso   1.000  H
  H292     1.0000 0.90600  0.74140  0.44909  Biso   1.000  H
  C253     1.0000 0.79720  0.46285  0.44126  Biso   1.000  C
  H293     1.0000 0.84029  0.47389  0.47660  Biso   1.000  H
  H294     1.0000 0.85158  0.47759  0.43409  Biso   1.000  H
  C254     1.0000 0.59930  0.75752  0.50678  Biso   1.000  C
  H295     1.0000 0.66539  0.83189  0.43390  Biso   1.000  H
  H296     1.0000 0.69810  0.85998  0.44099  Biso   1.000  H
  C255     1.0000 0.68308  0.85660  0.38859  Biso   1.000  C
  H297     1.0000 0.67948  0.77730  0.40460  Biso   1.000  H
  H298     1.0000 0.71680  0.78139  0.38189  Biso   1.000  H
  C256     1.0000 0.68000  0.82359  0.37159  Biso   1.000  C
  H299     1.0000 0.73319  0.76980  0.53271  Biso   1.000  H
  H300     1.0000 0.77419  0.77309  0.51749  Biso   1.000  H
  C257     1.0000 0.76219  0.81085  0.55676  Biso   1.000  C
  H301     1.0000 0.78309  0.84210  0.43920  Biso   1.000  H
  C258     1.0000 0.83458  0.85781  0.42805  Biso   1.000  C
  H302     1.0000 0.90279  0.80138  0.41589  Biso   1.000  H
  C259     1.0000 0.87088  0.84680  0.42160  Biso   1.000  C
  H303     1.0000 0.81780  0.73498  0.35830  Biso   1.000  H
  H304     1.0000 0.84120  0.77200  0.35509  Biso   1.000  H
  C260     1.0000 0.85679  0.73289  0.31807  Biso   1.000  C
  H305     1.0000 0.86789  0.76829  0.49500  Biso   1.000  H
  H306     1.0000 0.84688  0.72998  0.49970  Biso   1.000  H
  C261     1.0000 0.89864  0.72954  0.52186  Biso   1.000  C
  N14      1.0000 0.78677  0.47553  0.40490  Biso   1.000  N
  H307     1.0000 0.80138  0.43599  0.44091  Biso   1.000  H
  H308     1.0000 0.77738  0.46820  0.45908  Biso   1.000  H
  N15      1.0000 0.59507  0.78677  0.52447  Biso   1.000  N
  H309     1.0000 0.57859  0.74190  0.50360  Biso   1.000  H
  H310     1.0000 0.66550  0.87689  0.39090  Biso   1.000  H
  H311     1.0000 0.67319  0.83798  0.37190  Biso   1.000  H
  H312     1.0000 0.70628  0.86599  0.37879  Biso   1.000  H
  H313     1.0000 0.69870  0.84059  0.36209  Biso   1.000  H
  H314     1.0000 0.66169  0.83738  0.38568  Biso   1.000  H
  H315     1.0000 0.66800  0.81118  0.35100  Biso   1.000  H
  H316     1.0000 0.77098  0.79539  0.57700  Biso   1.000  H
  H317     1.0000 0.74050  0.82458  0.56489  Biso   1.000  H
  H318     1.0000 0.78158  0.82810  0.54959  Biso   1.000  H
  H319     1.0000 0.82900  0.88329  0.42811  Biso   1.000  H
  C262     1.0000 0.89919  0.87470  0.41419  Biso   1.000  C
  H320     1.0000 0.84010  0.74149  0.29880  Biso   1.000  H
  H321     1.0000 0.85819  0.70598  0.31739  Biso   1.000  H
  H322     1.0000 0.88129  0.74330  0.31398  Biso   1.000  H
  H323     1.0000 0.92350  0.73399  0.51238  Biso   1.000  H
  H324     1.0000 0.89560  0.70329  0.52699  Biso   1.000  H
  H325     1.0000 0.89499  0.74360  0.54449  Biso   1.000  H
  C263     1.0000 0.75752  0.49322  0.40070  Biso   1.000  C
  C264     1.0000 0.55871  0.79720  0.53713  Biso   1.000  C
  N16      1.0000 0.93322  0.86635  0.41301  Biso   1.000  N
  H326     1.0000 0.89200  0.89949  0.41020  Biso   1.000  H
  C265     1.0000 0.74610  0.50917  0.36555  Biso   1.000  C
  H327     1.0000 0.74190  0.49640  0.42141  Biso   1.000  H
  C266     1.0000 0.54778  0.83194  0.51738  Biso   1.000  C
  H328     1.0000 0.55909  0.80138  0.56398  Biso   1.000  H
  H329     1.0000 0.54089  0.77738  0.53180  Biso   1.000  H
  C267     1.0000 0.95796  0.89532  0.40120  Biso   1.000  C
  C268     1.0000 0.77252  0.51552  0.33834  Biso   1.000  C
  C269     1.0000 0.71018  0.51900  0.35951  Biso   1.000  C
  N17      1.0000 0.54644  0.82412  0.47776  Biso   1.000  N
  H330     1.0000 0.52340  0.84029  0.52609  Biso   1.000  H
  H331     1.0000 0.56591  0.85158  0.52238  Biso   1.000  H
  C270     1.0000 0.97572  0.88447  0.36580  Biso   1.000  C
  H332     1.0000 0.97699  0.89949  0.42020  Biso   1.000  H
  H333     1.0000 0.94409  0.91850  0.39779  Biso   1.000  H
  C271     1.0000 0.76134  0.53012  0.30522  Biso   1.000  C
  H334     1.0000 0.79759  0.50989  0.34260  Biso   1.000  H
  C272     1.0000 0.69881  0.53174  0.32563  Biso   1.000  C
  H335     1.0000 0.69288  0.51700  0.37890  Biso   1.000  H
  C273     1.0000 0.56593  0.84345  0.45623  Biso   1.000  C
  N18      1.0000 0.94741  0.87758  0.33774  Biso   1.000  N
  H336     1.0000 0.99228  0.90430  0.35740  Biso   1.000  H
  H337     1.0000 0.99058  0.86198  0.36951  Biso   1.000  H
  C274     1.0000 0.72389  0.53726  0.29756  Biso   1.000  C
  C275     1.0000 0.78518  0.54053  0.27334  Biso   1.000  C
  H338     1.0000 0.67361  0.53680  0.32159  Biso   1.000  H
  C276     1.0000 0.56747  0.83419  0.41685  Biso   1.000  C
  H339     1.0000 0.57950  0.86380  0.46548  Biso   1.000  H
  C277     1.0000 0.94730  0.84666  0.32324  Biso   1.000  C
  C278     1.0000 0.72136  0.54954  0.25887  Biso   1.000  C
  C279     1.0000 0.75684  0.55154  0.24445  Biso   1.000  C
  C280     1.0000 0.80945  0.57299  0.28466  Biso   1.000  C
  C281     1.0000 0.80866  0.50719  0.26129  Biso   1.000  C
  C282     1.0000 0.56033  0.79863  0.40457  Biso   1.000  C
  C283     1.0000 0.57629  0.86108  0.39117  Biso   1.000  C
  C284     1.0000 0.92025  0.83532  0.29523  Biso   1.000  C
  H340     1.0000 0.96559  0.82950  0.33049  Biso   1.000  H
  C285     1.0000 0.69030  0.55588  0.23665  Biso   1.000  C
  C286     1.0000 0.76195  0.56173  0.20832  Biso   1.000  C
  H341     1.0000 0.81950  0.58238  0.26120  Biso   1.000  H
  H342     1.0000 0.79188  0.59188  0.29309  Biso   1.000  H
  C287     1.0000 0.84040  0.57568  0.31061  Biso   1.000  C
  H343     1.0000 0.82870  0.56310  0.30110  Biso   1.000  H
  H344     1.0000 0.82208  0.58169  0.26219  Biso   1.000  H
  C288     1.0000 0.79509  0.60350  0.30160  Biso   1.000  C
  H345     1.0000 0.82568  0.51530  0.24171  Biso   1.000  H
  H346     1.0000 0.82379  0.49920  0.28240  Biso   1.000  H
  C289     1.0000 0.78740  0.47501  0.24764  Biso   1.000  C
  C290     1.0000 0.56017  0.79097  0.36767  Biso   1.000  C
  H347     1.0000 0.55558  0.77968  0.42179  Biso   1.000  H
  C291     1.0000 0.57620  0.85322  0.35383  Biso   1.000  C
  H348     1.0000 0.58249  0.88508  0.39930  Biso   1.000  H
  C292     1.0000 0.89002  0.85652  0.28586  Biso   1.000  C
  C293     1.0000 0.92701  0.80297  0.27573  Biso   1.000  C
  C294     1.0000 0.64980  0.55207  0.24544  Biso   1.000  C
  C295     1.0000 0.69560  0.56470  0.19909  Biso   1.000  C
  C296     1.0000 0.73083  0.56750  0.18473  Biso   1.000  C
  C297     1.0000 0.79517  0.56684  0.18539  Biso   1.000  C
  H349     1.0000 0.83189  0.56610  0.33461  Biso   1.000  H
  H350     1.0000 0.85998  0.55899  0.30190  Biso   1.000  H
  C298     1.0000 0.85660  0.61138  0.31689  Biso   1.000  C
  H351     1.0000 0.77730  0.59540  0.32049  Biso   1.000  H
  H352     1.0000 0.78139  0.61808  0.28320  Biso   1.000  H
  C299     1.0000 0.82359  0.62841  0.32000  Biso   1.000  C
  H353     1.0000 0.76980  0.46729  0.26681  Biso   1.000  H
  H354     1.0000 0.77309  0.48251  0.22581  Biso   1.000  H
  C300     1.0000 0.81085  0.44321  0.23781  Biso   1.000  C
  C301     1.0000 0.55207  0.75456  0.35020  Biso   1.000  C
  C302     1.0000 0.56780  0.81774  0.34133  Biso   1.000  C
  H355     1.0000 0.58189  0.87198  0.33658  Biso   1.000  H
  C303     1.0000 0.86671  0.84485  0.25840  Biso   1.000  C
  H356     1.0000 0.88538  0.87898  0.29830  Biso   1.000  H
  C304     1.0000 0.90378  0.79136  0.24750  Biso   1.000  C
  H357     1.0000 0.94788  0.78858  0.28180  Biso   1.000  H
  C305     1.0000 0.63230  0.56017  0.20903  Biso   1.000  C
  C306     1.0000 0.63664  0.58255  0.27205  Biso   1.000  C
  C307     1.0000 0.64057  0.51079  0.25730  Biso   1.000  C
  C308     1.0000 0.65864  0.56780  0.18223  Biso   1.000  C
  C309     1.0000 0.74303  0.57541  0.14568  Biso   1.000  C
  C310     1.0000 0.78438  0.57359  0.14903  Biso   1.000  C
  C311     1.0000 0.83351  0.56582  0.19274  Biso   1.000  C
  H358     1.0000 0.87689  0.60910  0.33450  Biso   1.000  H
  H359     1.0000 0.83798  0.62810  0.32681  Biso   1.000  H
  H360     1.0000 0.86599  0.62118  0.29369  Biso   1.000  H
  H361     1.0000 0.84059  0.63788  0.30130  Biso   1.000  H
  H362     1.0000 0.83738  0.61429  0.33829  Biso   1.000  H
  H363     1.0000 0.81118  0.64900  0.33200  Biso   1.000  H
  H364     1.0000 0.79539  0.42300  0.22899  Biso   1.000  H
  H365     1.0000 0.82458  0.43508  0.25950  Biso   1.000  H
  H366     1.0000 0.82810  0.45041  0.21839  Biso   1.000  H
  C312     1.0000 0.55588  0.76332  0.30967  Biso   1.000  C
  C313     1.0000 0.58255  0.72792  0.36336  Biso   1.000  C
  C314     1.0000 0.51079  0.74267  0.35943  Biso   1.000  C
  C315     1.0000 0.56470  0.80088  0.30440  Biso   1.000  C
  C316     1.0000 0.83216  0.86385  0.24640  Biso   1.000  C
  C317     1.0000 0.87305  0.81258  0.23847  Biso   1.000  C
  H367     1.0000 0.90878  0.76928  0.23459  Biso   1.000  H
  C318     1.0000 0.59543  0.56033  0.20134  Biso   1.000  C
  H368     1.0000 0.60948  0.58169  0.27340  Biso   1.000  H
  H369     1.0000 0.64620  0.57700  0.29690  Biso   1.000  H
  C319     1.0000 0.64776  0.62008  0.26222  Biso   1.000  C
  H370     1.0000 0.64060  0.49539  0.23490  Biso   1.000  H
  H371     1.0000 0.66078  0.50189  0.27320  Biso   1.000  H
  C320     1.0000 0.60440  0.50426  0.27752  Biso   1.000  C
  C321     1.0000 0.64614  0.57620  0.14678  Biso   1.000  C
  C322     1.0000 0.73212  0.61429  0.13272  Biso   1.000  C
  C323     1.0000 0.73064  0.54539  0.11830  Biso   1.000  C
  C324     1.0000 0.80959  0.57942  0.12154  Biso   1.000  C
  H372     1.0000 0.84210  0.56080  0.21691  Biso   1.000  H
  C325     1.0000 0.85781  0.57195  0.16539  Biso   1.000  C
  C326     1.0000 0.54954  0.74113  0.27861  Biso   1.000  C
  H373     1.0000 0.58169  0.72660  0.39049  Biso   1.000  H
  H374     1.0000 0.57700  0.70310  0.35380  Biso   1.000  H
  C327     1.0000 0.62008  0.73775  0.35224  Biso   1.000  C
  H375     1.0000 0.49539  0.76510  0.35940  Biso   1.000  H
  H376     1.0000 0.50189  0.72680  0.33919  Biso   1.000  H
  C328     1.0000 0.50426  0.72246  0.39560  Biso   1.000  C
  C329     1.0000 0.56750  0.81527  0.26917  Biso   1.000  C
  C330     1.0000 0.81832  0.83916  0.21556  Biso   1.000  C
  C331     1.0000 0.80550  0.86646  0.27933  Biso   1.000  C
  C332     1.0000 0.84271  0.90342  0.23174  Biso   1.000  C
  C333     1.0000 0.84328  0.80901  0.21062  Biso   1.000  C
  C334     1.0000 0.58312  0.56747  0.16581  Biso   1.000  C
  H377     1.0000 0.57818  0.55558  0.22029  Biso   1.000  H
  H378     1.0000 0.64030  0.62489  0.23649  Biso   1.000  H
  H379     1.0000 0.67490  0.62170  0.26340  Biso   1.000  H
  C335     1.0000 0.63159  0.65010  0.28660  Biso   1.000  C
  C336     1.0000 0.60067  0.46463  0.28680  Biso   1.000  C
  H380     1.0000 0.60380  0.51909  0.30031  Biso   1.000  H
  H381     1.0000 0.58359  0.51200  0.26181  Biso   1.000  H
  C337     1.0000 0.60883  0.57629  0.13889  Biso   1.000  C
  H382     1.0000 0.66339  0.58189  0.12799  Biso   1.000  H
  C338     1.0000 0.74489  0.64538  0.15716  Biso   1.000  C
  H383     1.0000 0.74220  0.61819  0.10781  Biso   1.000  H
  H384     1.0000 0.70499  0.61539  0.13079  Biso   1.000  H
  C339     1.0000 0.74132  0.50626  0.12912  Biso   1.000  C
  H385     1.0000 0.70359  0.54660  0.11580  Biso   1.000  H
  H386     1.0000 0.74140  0.55088  0.09400  Biso   1.000  H
  H387     1.0000 0.80138  0.58408  0.09721  Biso   1.000  H
  C340     1.0000 0.84680  0.57840  0.12912  Biso   1.000  C
  H388     1.0000 0.88329  0.57189  0.17100  Biso   1.000  H
  C341     1.0000 0.53726  0.70244  0.27609  Biso   1.000  C
  C342     1.0000 0.55154  0.75552  0.24316  Biso   1.000  C
  H389     1.0000 0.62489  0.76348  0.35970  Biso   1.000  H
  H390     1.0000 0.62170  0.73660  0.32510  Biso   1.000  H
  C343     1.0000 0.65010  0.71340  0.36838  Biso   1.000  C
  C344     1.0000 0.46463  0.71320  0.39930  Biso   1.000  C
  H391     1.0000 0.51909  0.69969  0.39620  Biso   1.000  H
  H392     1.0000 0.51200  0.73819  0.41638  Biso   1.000  H
  C345     1.0000 0.56173  0.79166  0.23803  Biso   1.000  C
  C346     1.0000 0.57541  0.85432  0.25695  Biso   1.000  C
  C347     1.0000 0.78935  0.84328  0.19099  Biso   1.000  C
  H393     1.0000 0.81610  0.88329  0.29789  Biso   1.000  H
  H394     1.0000 0.78210  0.87728  0.27079  Biso   1.000  H
  C348     1.0000 0.79762  0.83018  0.29723  Biso   1.000  C
  H395     1.0000 0.81989  0.91729  0.22660  Biso   1.000  H
  H396     1.0000 0.85619  0.91668  0.25121  Biso   1.000  H
  C349     1.0000 0.86613  0.90271  0.19717  Biso   1.000  C
  C350     1.0000 0.83916  0.78441  0.18168  Biso   1.000  C
  C351     1.0000 0.54377  0.56593  0.15652  Biso   1.000  C
  H397     1.0000 0.64019  0.67410  0.27809  Biso   1.000  H
  H398     1.0000 0.63950  0.64620  0.31201  Biso   1.000  H
  H399     1.0000 0.60468  0.64919  0.28529  Biso   1.000  H
  H400     1.0000 0.57760  0.46070  0.30001  Biso   1.000  H
  H401     1.0000 0.62129  0.45711  0.30228  Biso   1.000  H
  H402     1.0000 0.60070  0.45010  0.26409  Biso   1.000  H
  H403     1.0000 0.60070  0.58249  0.11489  Biso   1.000  H
  H404     1.0000 0.73498  0.64170  0.18220  Biso   1.000  H
  H405     1.0000 0.77200  0.64488  0.15880  Biso   1.000  H
  C352     1.0000 0.73289  0.68190  0.14321  Biso   1.000  C
  H406     1.0000 0.76829  0.50500  0.13208  Biso   1.000  H
  H407     1.0000 0.72998  0.50030  0.15309  Biso   1.000  H
  C353     1.0000 0.72954  0.47811  0.10136  Biso   1.000  C
  C354     1.0000 0.87470  0.58581  0.10078  Biso   1.000  C
  C355     1.0000 0.53012  0.69475  0.23866  Biso   1.000  C
  C356     1.0000 0.53174  0.67435  0.30116  Biso   1.000  C
  C357     1.0000 0.54053  0.72666  0.21480  Biso   1.000  C
  H408     1.0000 0.67410  0.72188  0.35979  Biso   1.000  H
  H409     1.0000 0.64620  0.68799  0.36050  Biso   1.000  H
  H410     1.0000 0.64919  0.71469  0.39529  Biso   1.000  H
  H411     1.0000 0.46070  0.69999  0.42240  Biso   1.000  H
  H412     1.0000 0.45711  0.69769  0.37871  Biso   1.000  H
  H413     1.0000 0.45010  0.73589  0.39930  Biso   1.000  H
  C358     1.0000 0.56684  0.81461  0.20480  Biso   1.000  C
  C359     1.0000 0.57359  0.85094  0.21562  Biso   1.000  C
  C360     1.0000 0.61429  0.86728  0.26788  Biso   1.000  C
  C361     1.0000 0.54539  0.88170  0.26933  Biso   1.000  C
  C362     1.0000 0.76151  0.87305  0.18742  Biso   1.000  C
  C363     1.0000 0.78441  0.81832  0.16084  Biso   1.000  C
  H414     1.0000 0.78479  0.81409  0.27949  Biso   1.000  H
  H415     1.0000 0.82110  0.81818  0.30399  Biso   1.000  H
  C364     1.0000 0.77441  0.83450  0.33095  Biso   1.000  C
  H416     1.0000 0.88889  0.88909  0.20329  Biso   1.000  H
  H417     1.0000 0.85278  0.88758  0.17890  Biso   1.000  H
  C365     1.0000 0.87739  0.93629  0.17849  Biso   1.000  C
  C366     1.0000 0.86385  0.75360  0.16784  Biso   1.000  C
  C367     1.0000 0.80901  0.78935  0.15669  Biso   1.000  C
  N19      1.0000 0.52224  0.54644  0.17586  Biso   1.000  N
  H418     1.0000 0.53449  0.57950  0.13620  Biso   1.000  H
  H419     1.0000 0.74149  0.70120  0.15990  Biso   1.000  H
  H420     1.0000 0.70598  0.68258  0.14181  Biso   1.000  H
  H421     1.0000 0.74330  0.68599  0.11871  Biso   1.000  H
  H422     1.0000 0.73399  0.48759  0.07650  Biso   1.000  H
  H423     1.0000 0.70329  0.47301  0.10440  Biso   1.000  H
  H424     1.0000 0.74360  0.45549  0.10501  Biso   1.000  H
  N20      1.0000 0.86635  0.58697  0.06678  Biso   1.000  N
  H425     1.0000 0.89949  0.58980  0.10800  Biso   1.000  H
  C368     1.0000 0.51552  0.66163  0.22745  Biso   1.000  C
  C369     1.0000 0.51900  0.64046  0.28982  Biso   1.000  C
  H426     1.0000 0.53680  0.67838  0.32639  Biso   1.000  H
  C370     1.0000 0.57299  0.71534  0.19055  Biso   1.000  C
  C371     1.0000 0.50719  0.73871  0.19132  Biso   1.000  C
  C372     1.0000 0.56582  0.80723  0.16647  Biso   1.000  C
  C373     1.0000 0.57942  0.87846  0.19041  Biso   1.000  C
  C374     1.0000 0.64538  0.84282  0.25511  Biso   1.000  C
  H427     1.0000 0.61819  0.89219  0.25780  Biso   1.000  H
  H428     1.0000 0.61539  0.86918  0.29501  Biso   1.000  H
  C375     1.0000 0.50626  0.87088  0.25865  Biso   1.000  C
  H429     1.0000 0.54660  0.88420  0.29641  Biso   1.000  H
  H430     1.0000 0.55088  0.90600  0.25860  Biso   1.000  H
  C376     1.0000 0.74157  0.86671  0.15512  Biso   1.000  C
  C377     1.0000 0.75247  0.90378  0.20862  Biso   1.000  C
  C378     1.0000 0.75360  0.83216  0.13612  Biso   1.000  C
  H431     1.0000 0.76958  0.81019  0.34169  Biso   1.000  H
  H432     1.0000 0.75110  0.84608  0.32439  Biso   1.000  H
  H433     1.0000 0.78740  0.84979  0.34889  Biso   1.000  H
  H434     1.0000 0.89260  0.92998  0.15721  Biso   1.000  H
  H435     1.0000 0.89159  0.95170  0.19541  Biso   1.000  H
  H436     1.0000 0.85559  0.94969  0.17031  Biso   1.000  H
  C379     1.0000 0.84485  0.74157  0.13329  Biso   1.000  C
  C380     1.0000 0.86646  0.72067  0.19447  Biso   1.000  C
  C381     1.0000 0.90342  0.76826  0.15727  Biso   1.000  C
  C382     1.0000 0.81258  0.76151  0.12695  Biso   1.000  C
  C383     1.0000 0.48259  0.54778  0.16806  Biso   1.000  C
  C384     1.0000 0.89532  0.59878  0.04204  Biso   1.000  C
  C385     1.0000 0.50917  0.63445  0.25390  Biso   1.000  C
  H437     1.0000 0.50989  0.65740  0.20241  Biso   1.000  H
  H438     1.0000 0.51700  0.62110  0.30709  Biso   1.000  H
  H439     1.0000 0.58238  0.73880  0.18050  Biso   1.000  H
  H440     1.0000 0.59188  0.70689  0.20810  Biso   1.000  H
  C386     1.0000 0.57568  0.68939  0.15960  Biso   1.000  C
  H441     1.0000 0.56310  0.69890  0.17130  Biso   1.000  H
  H442     1.0000 0.58169  0.73778  0.17789  Biso   1.000  H
  C387     1.0000 0.60350  0.69840  0.20491  Biso   1.000  C
  H443     1.0000 0.51530  0.75829  0.17429  Biso   1.000  H
  H444     1.0000 0.49920  0.71760  0.17619  Biso   1.000  H
  C388     1.0000 0.47501  0.75236  0.21260  Biso   1.000  C
  H445     1.0000 0.56080  0.78309  0.15790  Biso   1.000  H
  C389     1.0000 0.57195  0.83458  0.14219  Biso   1.000  C
  H446     1.0000 0.58408  0.90279  0.19859  Biso   1.000  H
  C390     1.0000 0.57840  0.87088  0.15320  Biso   1.000  C
  H447     1.0000 0.64170  0.81780  0.26499  Biso   1.000  H
  H448     1.0000 0.64488  0.84120  0.22800  Biso   1.000  H
  C391     1.0000 0.68190  0.85679  0.26708  Biso   1.000  C
  H449     1.0000 0.50500  0.86789  0.23168  Biso   1.000  H
  H450     1.0000 0.50030  0.84688  0.26999  Biso   1.000  H
  C392     1.0000 0.47811  0.89864  0.27043  Biso   1.000  C
  C393     1.0000 0.71411  0.89002  0.14345  Biso   1.000  C
  C394     1.0000 0.72427  0.92701  0.19703  Biso   1.000  C
  H451     1.0000 0.76538  0.90878  0.23070  Biso   1.000  H
  C395     1.0000 0.72067  0.80550  0.13351  Biso   1.000  C
  C396     1.0000 0.76826  0.84271  0.09655  Biso   1.000  C
  C397     1.0000 0.85652  0.71411  0.10995  Biso   1.000  C
  H452     1.0000 0.88329  0.70208  0.18390  Biso   1.000  H
  H453     1.0000 0.87728  0.72918  0.21790  Biso   1.000  H
  C398     1.0000 0.83018  0.70274  0.20236  Biso   1.000  C
  H454     1.0000 0.91729  0.77340  0.18009  Biso   1.000  H
  H455     1.0000 0.91668  0.74879  0.14381  Biso   1.000  H
  C399     1.0000 0.90271  0.80283  0.13384  Biso   1.000  C
  C400     1.0000 0.79136  0.75247  0.09622  Biso   1.000  C
  C401     1.0000 0.46285  0.55871  0.20277  Biso   1.000  C
  H456     1.0000 0.47389  0.52340  0.15971  Biso   1.000  H
  H457     1.0000 0.47759  0.56591  0.14840  Biso   1.000  H
  H458     1.0000 0.89949  0.57980  0.02301  Biso   1.000  H
  H459     1.0000 0.91850  0.60218  0.05591  Biso   1.000  H
  C402     1.0000 0.88447  0.63417  0.02428  Biso   1.000  C
  C403     1.0000 0.49322  0.59930  0.24248  Biso   1.000  C
  H460     1.0000 0.56610  0.66539  0.16809  Biso   1.000  H
  H461     1.0000 0.55899  0.69810  0.13999  Biso   1.000  H
  C404     1.0000 0.61138  0.68308  0.14340  Biso   1.000  C
  H462     1.0000 0.59540  0.67948  0.22270  Biso   1.000  H
  H463     1.0000 0.61808  0.71680  0.21859  Biso   1.000  H
  C405     1.0000 0.62841  0.68000  0.17641  Biso   1.000  C
  H464     1.0000 0.46729  0.73319  0.23020  Biso   1.000  H
  H465     1.0000 0.48251  0.77419  0.22691  Biso   1.000  H
  C406     1.0000 0.44321  0.76219  0.18915  Biso   1.000  C
  H466     1.0000 0.57189  0.82900  0.11671  Biso   1.000  H
  C407     1.0000 0.58581  0.89919  0.12527  Biso   1.000  C
  H467     1.0000 0.70120  0.84010  0.25849  Biso   1.000  H
  H468     1.0000 0.68258  0.85819  0.29399  Biso   1.000  H
  H469     1.0000 0.68599  0.88129  0.25670  Biso   1.000  H
  H470     1.0000 0.48759  0.92350  0.26601  Biso   1.000  H
  H471     1.0000 0.47301  0.89560  0.29668  Biso   1.000  H
  H472     1.0000 0.45549  0.89499  0.25640  Biso   1.000  H
  C408     1.0000 0.70475  0.92025  0.16468  Biso   1.000  C
  H473     1.0000 0.70170  0.88538  0.12099  Biso   1.000  H
  H474     1.0000 0.71820  0.94788  0.21139  Biso   1.000  H
  H475     1.0000 0.70208  0.81610  0.11671  Biso   1.000  H
  H476     1.0000 0.72918  0.78210  0.12269  Biso   1.000  H
  C409     1.0000 0.70274  0.79762  0.16979  Biso   1.000  C
  H477     1.0000 0.77340  0.81989  0.08271  Biso   1.000  H
  H478     1.0000 0.74879  0.85619  0.08329  Biso   1.000  H
  C410     1.0000 0.80283  0.86613  0.09729  Biso   1.000  C
  C411     1.0000 0.83532  0.70475  0.07972  Biso   1.000  C
  H479     1.0000 0.87898  0.70170  0.11459  Biso   1.000  H
  H480     1.0000 0.81409  0.72048  0.21521  Biso   1.000  H
  H481     1.0000 0.81818  0.69599  0.17890  Biso   1.000  H
  C412     1.0000 0.83450  0.66905  0.22556  Biso   1.000  C
  H482     1.0000 0.88909  0.79668  0.11111  Biso   1.000  H
  H483     1.0000 0.88758  0.82110  0.14719  Biso   1.000  H
  C413     1.0000 0.93629  0.82148  0.12261  Biso   1.000  C
  C414     1.0000 0.80297  0.72427  0.07299  Biso   1.000  C
  H484     1.0000 0.76928  0.76538  0.09120  Biso   1.000  H
  N21      1.0000 0.47553  0.59507  0.21323  Biso   1.000  N
  H485     1.0000 0.43599  0.55909  0.19859  Biso   1.000  H
  H486     1.0000 0.46820  0.54089  0.22259  Biso   1.000  H
  N22      1.0000 0.87758  0.66226  0.05259  Biso   1.000  N
  H487     1.0000 0.90430  0.64260  0.00769  Biso   1.000  H
  H488     1.0000 0.86198  0.63049  0.00939  Biso   1.000  H
  H489     1.0000 0.49640  0.57859  0.25810  Biso   1.000  H
  H490     1.0000 0.60910  0.66550  0.12311  Biso   1.000  H
  H491     1.0000 0.62810  0.67319  0.16199  Biso   1.000  H
  H492     1.0000 0.62118  0.70628  0.13401  Biso   1.000  H
  H493     1.0000 0.63788  0.69870  0.15941  Biso   1.000  H
  H494     1.0000 0.61429  0.66169  0.16259  Biso   1.000  H
  H495     1.0000 0.64900  0.66800  0.18879  Biso   1.000  H
  H496     1.0000 0.42300  0.77098  0.20461  Biso   1.000  H
  H497     1.0000 0.43508  0.74050  0.17539  Biso   1.000  H
  H498     1.0000 0.45041  0.78158  0.17190  Biso   1.000  H
  N23      1.0000 0.58697  0.93322  0.13365  Biso   1.000  N
  H499     1.0000 0.58980  0.89200  0.10051  Biso   1.000  H
  C415     1.0000 0.67676  0.94730  0.15331  Biso   1.000  C
  H500     1.0000 0.72048  0.78479  0.18591  Biso   1.000  H
  H501     1.0000 0.69599  0.82110  0.18179  Biso   1.000  H
  C416     1.0000 0.66905  0.77441  0.16550  Biso   1.000  C
  H502     1.0000 0.79668  0.88889  0.11089  Biso   1.000  H
  H503     1.0000 0.82110  0.85278  0.11240  Biso   1.000  H
  C417     1.0000 0.82148  0.87739  0.06371  Biso   1.000  C
  C418     1.0000 0.84666  0.67676  0.05267  Biso   1.000  C
  H504     1.0000 0.81019  0.65828  0.23039  Biso   1.000  H
  H505     1.0000 0.84608  0.67558  0.24890  Biso   1.000  H
  H506     1.0000 0.84979  0.65109  0.21260  Biso   1.000  H
  H507     1.0000 0.92998  0.84279  0.10740  Biso   1.000  H
  H508     1.0000 0.95170  0.80459  0.10839  Biso   1.000  H
  H509     1.0000 0.94969  0.82969  0.14439  Biso   1.000  H
  H510     1.0000 0.78858  0.71820  0.05209  Biso   1.000  H
  C419     1.0000 0.59878  0.95796  0.10468  Biso   1.000  C
  N24      1.0000 0.66226  0.94741  0.12242  Biso   1.000  N
  H511     1.0000 0.66949  0.96559  0.17050  Biso   1.000  H
  H512     1.0000 0.65828  0.76958  0.18981  Biso   1.000  H
  H513     1.0000 0.67558  0.75110  0.15389  Biso   1.000  H
  H514     1.0000 0.65109  0.78740  0.15021  Biso   1.000  H
  H515     1.0000 0.84279  0.89260  0.07000  Biso   1.000  H
  H516     1.0000 0.80459  0.89159  0.04830  Biso   1.000  H
  H517     1.0000 0.82969  0.85559  0.05031  Biso   1.000  H
  H518     1.0000 0.82950  0.66949  0.03441  Biso   1.000  H
  H519     1.0000 0.57980  0.97699  0.10051  Biso   1.000  H
  H520     1.0000 0.60218  0.94409  0.08150  Biso   1.000  H
  C420     1.0000 0.63417  0.97572  0.11553  Biso   1.000  C
  H521     1.0000 0.64260  0.99228  0.09570  Biso   1.000  H
  H522     1.0000 0.63049  0.99058  0.13799  Biso   1.000  H
