data_image0
_cell_length_a       14.001
_cell_length_b       15.937
_cell_length_c       15.733
_cell_angle_alpha    90
_cell_angle_beta     97.46
_cell_angle_gamma    90

_symmetry_space_group_name_H-M    "P 1"
_symmetry_int_tables_number       1

loop_
  _symmetry_equiv_pos_as_xyz
  'x, y, z'

loop_
  _atom_site_label
  _atom_site_occupancy
  _atom_site_fract_x
  _atom_site_fract_y
  _atom_site_fract_z
  _atom_site_thermal_displace_type
  _atom_site_B_iso_or_equiv
  _atom_site_type_symbol
  O1       1.0000 0.62638  0.22250  0.19481  Biso   1.000  O
  C1       1.0000 0.69055  0.17180  0.18821  Biso   1.000  C
  C2       1.0000 0.69048  0.17180  0.18821  Biso   1.000  C
  N1       1.0000 0.71196  0.10278  0.23949  Biso   1.000  N
  N2       1.0000 0.75472  0.17375  0.12962  Biso   1.000  N
  O2       1.0000 0.62645  0.22250  0.19481  Biso   1.000  O
  N3       1.0000 0.75472  0.17368  0.12962  Biso   1.000  N
  C3       1.0000 0.66195  0.08239  0.31084  Biso   1.000  C
  C4       1.0000 0.66188  0.08239  0.31084  Biso   1.000  C
  C5       1.0000 0.79679  0.05892  0.22026  Biso   1.000  C
  C6       1.0000 0.79672  0.05892  0.22026  Biso   1.000  C
  C7       1.0000 0.79679  0.05886  0.22026  Biso   1.000  C
  C8       1.0000 0.79672  0.05886  0.22026  Biso   1.000  C
  C9       1.0000 0.82439  0.10711  0.14212  Biso   1.000  C
  C10      1.0000 0.75210  0.23750  0.06372  Biso   1.000  C
  N4       1.0000 0.59525  0.01173  0.29475  Biso   1.000  N
  H1       1.0000 0.62622  0.13127  0.32539  Biso   1.000  H
  H2       1.0000 0.70896  0.06921  0.35988  Biso   1.000  H
  H3       1.0000 0.70889  0.06921  0.35988  Biso   1.000  H
  H4       1.0000 0.84841  0.06143  0.26859  Biso   1.000  H
  H5       1.0000 0.84841  0.06137  0.26859  Biso   1.000  H
  N5       1.0000 0.78103  0.97465  0.19007  Biso   1.000  N
  N6       1.0000 0.78096  0.97465  0.19007  Biso   1.000  N
  H6       1.0000 0.89013  0.12920  0.15308  Biso   1.000  H
  N7       1.0000 0.81569  0.04386  0.07513  Biso   1.000  N
  N8       1.0000 0.81569  0.04380  0.07513  Biso   1.000  N
  H7       1.0000 0.81733  0.25682  0.06090  Biso   1.000  H
  H8       1.0000 0.71524  0.28487  0.08032  Biso   1.000  H
  H9       1.0000 0.71517  0.28487  0.08032  Biso   1.000  H
  H10      1.0000 0.81733  0.25676  0.06090  Biso   1.000  H
  N9       1.0000 0.71055  0.20983  0.97820  Biso   1.000  N
  N10      1.0000 0.71048  0.20983  0.97820  Biso   1.000  N
  N11      1.0000 0.71055  0.20976  0.97820  Biso   1.000  N
  N12      1.0000 0.71048  0.20976  0.97820  Biso   1.000  N
  C11      1.0000 0.49741  0.02309  0.28455  Biso   1.000  C
  C12      1.0000 0.62149  0.92552  0.31552  Biso   1.000  C
  C13      1.0000 0.62149  0.92546  0.31552  Biso   1.000  C
  C14      1.0000 0.77215  0.90255  0.24423  Biso   1.000  C
  C15      1.0000 0.77208  0.90255  0.24423  Biso   1.000  C
  C16      1.0000 0.79641  0.96555  0.10603  Biso   1.000  C
  C17      1.0000 0.85698  0.05352  0.99635  Biso   1.000  C
  C18      1.0000 0.85698  0.05346  0.99635  Biso   1.000  C
  C19      1.0000 0.76947  0.17500  0.91692  Biso   1.000  C
  C20      1.0000 0.62570  0.24032  0.93801  Biso   1.000  C
  C21      1.0000 0.62563  0.24032  0.93801  Biso   1.000  C
  C22      1.0000 0.62570  0.24026  0.93801  Biso   1.000  C
  C23      1.0000 0.62563  0.24026  0.93801  Biso   1.000  C
  O3       1.0000 0.45673  0.09130  0.27744  Biso   1.000  O
  O4       1.0000 0.45680  0.09130  0.27744  Biso   1.000  O
  N13      1.0000 0.45462  0.94666  0.28398  Biso   1.000  N
  C24      1.0000 0.52365  0.87996  0.30532  Biso   1.000  C
  C25      1.0000 0.52358  0.87996  0.30532  Biso   1.000  C
  H11      1.0000 0.65394  0.92081  0.37443  Biso   1.000  H
  N14      1.0000 0.67452  0.88222  0.25648  Biso   1.000  N
  H12      1.0000 0.65387  0.92081  0.37443  Biso   1.000  H
  N15      1.0000 0.67452  0.88216  0.25648  Biso   1.000  N
  H13      1.0000 0.80043  0.85443  0.21923  Biso   1.000  H
  H14      1.0000 0.80904  0.91291  0.29981  Biso   1.000  H
  H15      1.0000 0.80042  0.85443  0.21917  Biso   1.000  H
  H16      1.0000 0.80897  0.91291  0.29981  Biso   1.000  H
  H17      1.0000 0.80043  0.85436  0.21923  Biso   1.000  H
  H18      1.0000 0.80042  0.85436  0.21917  Biso   1.000  H
  O5       1.0000 0.79470  0.90111  0.06590  Biso   1.000  O
  H19      1.0000 0.91223  0.09061  0.00641  Biso   1.000  H
  H20      1.0000 0.87979  0.99931  0.97942  Biso   1.000  H
  N16      1.0000 0.79084  0.08653  0.92782  Biso   1.000  N
  H21      1.0000 0.82801  0.20819  0.91429  Biso   1.000  H
  C26      1.0000 0.70202  0.17757  0.83160  Biso   1.000  C
  H22      1.0000 0.82794  0.20819  0.91429  Biso   1.000  H
  C27      1.0000 0.70195  0.17757  0.83160  Biso   1.000  C
  O6       1.0000 0.56894  0.28343  0.97199  Biso   1.000  O
  N17      1.0000 0.61562  0.21623  0.85474  Biso   1.000  N
  O7       1.0000 0.56894  0.28337  0.97199  Biso   1.000  O
  C28      1.0000 0.35222  0.93550  0.27827  Biso   1.000  C
  H23      1.0000 0.51266  0.85110  0.35821  Biso   1.000  H
  N18      1.0000 0.53264  0.82086  0.23622  Biso   1.000  N
  H24      1.0000 0.51259  0.85110  0.35821  Biso   1.000  H
  N19      1.0000 0.53257  0.82086  0.23622  Biso   1.000  N
  N20      1.0000 0.53264  0.82079  0.23622  Biso   1.000  N
  N21      1.0000 0.53257  0.82079  0.23622  Biso   1.000  N
  C29      1.0000 0.62282  0.82067  0.21205  Biso   1.000  C
  C30      1.0000 0.62282  0.82061  0.21205  Biso   1.000  C
  C31      1.0000 0.74801  0.03884  0.86090  Biso   1.000  C
  C32      1.0000 0.74794  0.03884  0.86090  Biso   1.000  C
  C33      1.0000 0.74801  0.03878  0.86090  Biso   1.000  C
  C34      1.0000 0.74794  0.03878  0.86090  Biso   1.000  C
  N22      1.0000 0.69316  0.09067  0.80609  Biso   1.000  N
  N23      1.0000 0.69309  0.09067  0.80609  Biso   1.000  N
  N24      1.0000 0.69316  0.09061  0.80609  Biso   1.000  N
  N25      1.0000 0.69309  0.09061  0.80609  Biso   1.000  N
  H25      1.0000 0.72976  0.21121  0.78872  Biso   1.000  H
  C35      1.0000 0.53797  0.24402  0.79154  Biso   1.000  C
  H26      1.0000 0.32340  0.98789  0.29321  Biso   1.000  H
  H27      1.0000 0.33881  0.89383  0.32000  Biso   1.000  H
  N26      1.0000 0.30699  0.90933  0.19391  Biso   1.000  N
  N27      1.0000 0.30691  0.90933  0.19391  Biso   1.000  N
  H28      1.0000 0.33881  0.89377  0.32000  Biso   1.000  H
  C36      1.0000 0.46210  0.75598  0.20846  Biso   1.000  C
  C37      1.0000 0.46209  0.75598  0.20840  Biso   1.000  C
  C38      1.0000 0.46210  0.75591  0.20846  Biso   1.000  C
  C39      1.0000 0.46209  0.75591  0.20840  Biso   1.000  C
  O8       1.0000 0.65238  0.77160  0.16205  Biso   1.000  O
  O9       1.0000 0.65238  0.77154  0.16205  Biso   1.000  O
  O10      1.0000 0.75914  0.96386  0.85250  Biso   1.000  O
  O11      1.0000 0.75907  0.96386  0.85250  Biso   1.000  O
  C40      1.0000 0.64785  0.06450  0.72173  Biso   1.000  C
  C41      1.0000 0.64785  0.06444  0.72173  Biso   1.000  C
  H29      1.0000 0.56502  0.26479  0.74192  Biso   1.000  H
  H30      1.0000 0.50521  0.29052  0.81519  Biso   1.000  H
  N28      1.0000 0.46750  0.17914  0.76378  Biso   1.000  N
  H31      1.0000 0.56495  0.26479  0.74192  Biso   1.000  H
  H32      1.0000 0.50514  0.29052  0.81519  Biso   1.000  H
  N29      1.0000 0.46743  0.17914  0.76378  Biso   1.000  N
  H33      1.0000 0.50521  0.29046  0.81519  Biso   1.000  H
  H34      1.0000 0.50514  0.29046  0.81519  Biso   1.000  H
  C42      1.0000 0.29812  0.82243  0.16840  Biso   1.000  C
  C43      1.0000 0.25214  0.96116  0.13910  Biso   1.000  C
  C44      1.0000 0.29805  0.82243  0.16840  Biso   1.000  C
  C45      1.0000 0.25206  0.96116  0.13910  Biso   1.000  C
  H35      1.0000 0.43512  0.73521  0.25808  Biso   1.000  H
  H36      1.0000 0.49493  0.70948  0.18481  Biso   1.000  H
  N30      1.0000 0.38445  0.78377  0.14526  Biso   1.000  N
  H37      1.0000 0.43505  0.73521  0.25808  Biso   1.000  H
  H38      1.0000 0.49486  0.70948  0.18481  Biso   1.000  H
  N31      1.0000 0.38445  0.78371  0.14526  Biso   1.000  N
  H39      1.0000 0.67667  0.01211  0.70679  Biso   1.000  H
  H40      1.0000 0.66126  0.10617  0.68000  Biso   1.000  H
  N32      1.0000 0.54546  0.05334  0.71602  Biso   1.000  N
  N33      1.0000 0.54546  0.05327  0.71602  Biso   1.000  N
  C46      1.0000 0.47649  0.12004  0.69468  Biso   1.000  C
  C47      1.0000 0.37725  0.17933  0.78795  Biso   1.000  C
  C48      1.0000 0.47642  0.12004  0.69468  Biso   1.000  C
  C49      1.0000 0.23061  0.82500  0.08308  Biso   1.000  C
  H41      1.0000 0.27031  0.78879  0.21128  Biso   1.000  H
  O12      1.0000 0.24100  0.03614  0.14750  Biso   1.000  O
  O13      1.0000 0.24093  0.03614  0.14750  Biso   1.000  O
  O14      1.0000 0.24100  0.03608  0.14750  Biso   1.000  O
  O15      1.0000 0.24093  0.03608  0.14750  Biso   1.000  O
  N34      1.0000 0.20923  0.91347  0.07218  Biso   1.000  N
  C50      1.0000 0.37437  0.75968  0.06199  Biso   1.000  C
  C51      1.0000 0.50266  0.97691  0.71545  Biso   1.000  C
  C52      1.0000 0.37858  0.07448  0.68448  Biso   1.000  C
  H42      1.0000 0.48749  0.14890  0.64179  Biso   1.000  H
  H43      1.0000 0.48741  0.14890  0.64179  Biso   1.000  H
  N35      1.0000 0.32556  0.11778  0.74352  Biso   1.000  N
  O16      1.0000 0.34769  0.22840  0.83795  Biso   1.000  O
  H44      1.0000 0.17214  0.79181  0.08571  Biso   1.000  H
  N36      1.0000 0.28959  0.79017  0.02180  Biso   1.000  N
  H45      1.0000 0.17206  0.79181  0.08571  Biso   1.000  H
  N37      1.0000 0.28952  0.79017  0.02180  Biso   1.000  N
  C53      1.0000 0.14309  0.94648  0.00365  Biso   1.000  C
  O17      1.0000 0.43113  0.71657  0.02801  Biso   1.000  O
  N38      1.0000 0.40482  0.98827  0.70525  Biso   1.000  N
  O18      1.0000 0.54327  0.90870  0.72256  Biso   1.000  O
  H46      1.0000 0.34620  0.07919  0.62557  Biso   1.000  H
  H47      1.0000 0.34613  0.07919  0.62557  Biso   1.000  H
  C54      1.0000 0.22799  0.09745  0.75577  Biso   1.000  C
  C55      1.0000 0.22792  0.09745  0.75577  Biso   1.000  C
  C56      1.0000 0.22799  0.09738  0.75577  Biso   1.000  C
  C57      1.0000 0.22792  0.09738  0.75577  Biso   1.000  C
  C58      1.0000 0.24797  0.76250  0.93628  Biso   1.000  C
  H48      1.0000 0.12028  0.00069  0.02058  Biso   1.000  H
  H49      1.0000 0.08784  0.90939  0.99359  Biso   1.000  H
  N39      1.0000 0.18438  0.95614  0.92487  Biso   1.000  N
  C59      1.0000 0.33819  0.91761  0.68916  Biso   1.000  C
  C60      1.0000 0.33812  0.91761  0.68916  Biso   1.000  C
  C61      1.0000 0.33819  0.91755  0.68916  Biso   1.000  C
  C62      1.0000 0.33812  0.91755  0.68916  Biso   1.000  C
  N40      1.0000 0.21911  0.02535  0.80993  Biso   1.000  N
  N41      1.0000 0.21904  0.02535  0.80993  Biso   1.000  N
  N42      1.0000 0.21911  0.02529  0.80993  Biso   1.000  N
  N43      1.0000 0.21904  0.02529  0.80993  Biso   1.000  N
  H50      1.0000 0.19964  0.14557  0.78077  Biso   1.000  H
  H51      1.0000 0.19110  0.08709  0.70019  Biso   1.000  H
  H52      1.0000 0.19103  0.08709  0.70019  Biso   1.000  H
  H53      1.0000 0.18274  0.74318  0.93910  Biso   1.000  H
  H54      1.0000 0.28490  0.71513  0.91968  Biso   1.000  H
  N44      1.0000 0.24536  0.82625  0.87038  Biso   1.000  N
  H55      1.0000 0.28483  0.71513  0.91968  Biso   1.000  H
  H56      1.0000 0.28490  0.71507  0.91968  Biso   1.000  H
  H57      1.0000 0.28483  0.71507  0.91968  Biso   1.000  H
  C63      1.0000 0.17568  0.89289  0.85788  Biso   1.000  C
  C64      1.0000 0.17568  0.89283  0.85788  Biso   1.000  C
  C65      1.0000 0.20366  0.03445  0.89397  Biso   1.000  C
  N45      1.0000 0.28811  0.89722  0.76051  Biso   1.000  N
  N46      1.0000 0.28804  0.89722  0.76051  Biso   1.000  N
  H58      1.0000 0.37385  0.86873  0.67461  Biso   1.000  H
  H59      1.0000 0.29119  0.93079  0.64012  Biso   1.000  H
  H60      1.0000 0.29111  0.93079  0.64012  Biso   1.000  H
  H61      1.0000 0.37385  0.86867  0.67461  Biso   1.000  H
  C66      1.0000 0.20335  0.94108  0.77974  Biso   1.000  C
  C67      1.0000 0.20328  0.94108  0.77974  Biso   1.000  C
  C68      1.0000 0.30959  0.82820  0.81179  Biso   1.000  C
  C69      1.0000 0.30952  0.82820  0.81179  Biso   1.000  C
  H62      1.0000 0.10994  0.87080  0.84692  Biso   1.000  H
  O19      1.0000 0.20537  0.09889  0.93410  Biso   1.000  O
  H63      1.0000 0.15166  0.93857  0.73141  Biso   1.000  H
  O20      1.0000 0.37369  0.77750  0.80519  Biso   1.000  O
  O21      1.0000 0.37362  0.77750  0.80519  Biso   1.000  O
  O22      1.0000 0.62638  0.22250  0.19481  Biso   1.000  O
  C70      1.0000 0.69055  0.17180  0.18821  Biso   1.000  C
  C71      1.0000 0.69048  0.17180  0.18821  Biso   1.000  C
  N47      1.0000 0.71196  0.10278  0.23949  Biso   1.000  N
  N48      1.0000 0.75472  0.17375  0.12962  Biso   1.000  N
  O23      1.0000 0.62645  0.22250  0.19481  Biso   1.000  O
  N49      1.0000 0.75472  0.17368  0.12962  Biso   1.000  N
  C72      1.0000 0.66195  0.08239  0.31084  Biso   1.000  C
  C73      1.0000 0.66188  0.08239  0.31084  Biso   1.000  C
  C74      1.0000 0.79679  0.05892  0.22026  Biso   1.000  C
  C75      1.0000 0.79672  0.05892  0.22026  Biso   1.000  C
  C76      1.0000 0.79679  0.05886  0.22026  Biso   1.000  C
  C77      1.0000 0.79672  0.05886  0.22026  Biso   1.000  C
  C78      1.0000 0.82439  0.10711  0.14212  Biso   1.000  C
  C79      1.0000 0.75210  0.23750  0.06372  Biso   1.000  C
  N50      1.0000 0.59525  0.01173  0.29475  Biso   1.000  N
  H64      1.0000 0.62622  0.13127  0.32539  Biso   1.000  H
  H65      1.0000 0.70896  0.06921  0.35988  Biso   1.000  H
  H66      1.0000 0.70889  0.06921  0.35988  Biso   1.000  H
  H67      1.0000 0.84841  0.06143  0.26859  Biso   1.000  H
  H68      1.0000 0.84841  0.06137  0.26859  Biso   1.000  H
  N51      1.0000 0.78103  0.97465  0.19007  Biso   1.000  N
  N52      1.0000 0.78096  0.97465  0.19007  Biso   1.000  N
  H69      1.0000 0.89013  0.12920  0.15308  Biso   1.000  H
  N53      1.0000 0.81569  0.04386  0.07513  Biso   1.000  N
  N54      1.0000 0.81569  0.04380  0.07513  Biso   1.000  N
  H70      1.0000 0.81733  0.25682  0.06090  Biso   1.000  H
  H71      1.0000 0.71524  0.28487  0.08032  Biso   1.000  H
  H72      1.0000 0.81733  0.25676  0.06090  Biso   1.000  H
  H73      1.0000 0.71517  0.28487  0.08032  Biso   1.000  H
  N55      1.0000 0.71055  0.20983  0.97820  Biso   1.000  N
  N56      1.0000 0.71048  0.20983  0.97820  Biso   1.000  N
  N57      1.0000 0.71055  0.20976  0.97820  Biso   1.000  N
  N58      1.0000 0.71048  0.20976  0.97820  Biso   1.000  N
  C80      1.0000 0.49741  0.02309  0.28455  Biso   1.000  C
  C81      1.0000 0.62149  0.92552  0.31552  Biso   1.000  C
  C82      1.0000 0.62149  0.92546  0.31552  Biso   1.000  C
  C83      1.0000 0.77215  0.90255  0.24423  Biso   1.000  C
  C84      1.0000 0.77208  0.90255  0.24423  Biso   1.000  C
  C85      1.0000 0.79641  0.96555  0.10603  Biso   1.000  C
  C86      1.0000 0.85698  0.05352  0.99635  Biso   1.000  C
  C87      1.0000 0.85698  0.05346  0.99635  Biso   1.000  C
  C88      1.0000 0.76947  0.17500  0.91692  Biso   1.000  C
  C89      1.0000 0.62570  0.24032  0.93801  Biso   1.000  C
  C90      1.0000 0.62563  0.24032  0.93801  Biso   1.000  C
  C91      1.0000 0.62570  0.24026  0.93801  Biso   1.000  C
  C92      1.0000 0.62563  0.24026  0.93801  Biso   1.000  C
  O24      1.0000 0.45673  0.09130  0.27744  Biso   1.000  O
  O25      1.0000 0.45680  0.09130  0.27744  Biso   1.000  O
  N59      1.0000 0.45462  0.94666  0.28398  Biso   1.000  N
  C93      1.0000 0.52365  0.87996  0.30532  Biso   1.000  C
  C94      1.0000 0.52358  0.87996  0.30532  Biso   1.000  C
  H74      1.0000 0.65394  0.92081  0.37443  Biso   1.000  H
  N60      1.0000 0.67452  0.88222  0.25648  Biso   1.000  N
  H75      1.0000 0.65387  0.92081  0.37443  Biso   1.000  H
  N61      1.0000 0.67452  0.88216  0.25648  Biso   1.000  N
  H76      1.0000 0.80043  0.85443  0.21923  Biso   1.000  H
  H77      1.0000 0.80904  0.91291  0.29981  Biso   1.000  H
  H78      1.0000 0.80042  0.85443  0.21917  Biso   1.000  H
  H79      1.0000 0.80897  0.91291  0.29981  Biso   1.000  H
  H80      1.0000 0.80043  0.85436  0.21923  Biso   1.000  H
  H81      1.0000 0.80042  0.85436  0.21917  Biso   1.000  H
  O26      1.0000 0.79470  0.90111  0.06590  Biso   1.000  O
  H82      1.0000 0.91223  0.09061  0.00641  Biso   1.000  H
  H83      1.0000 0.87979  0.99931  0.97942  Biso   1.000  H
  N62      1.0000 0.79084  0.08653  0.92782  Biso   1.000  N
  H84      1.0000 0.82801  0.20819  0.91429  Biso   1.000  H
  C95      1.0000 0.70202  0.17757  0.83160  Biso   1.000  C
  H85      1.0000 0.82794  0.20819  0.91429  Biso   1.000  H
  C96      1.0000 0.70195  0.17757  0.83160  Biso   1.000  C
  O27      1.0000 0.56894  0.28343  0.97199  Biso   1.000  O
  N63      1.0000 0.61562  0.21623  0.85474  Biso   1.000  N
  O28      1.0000 0.56894  0.28337  0.97199  Biso   1.000  O
  C97      1.0000 0.35222  0.93550  0.27827  Biso   1.000  C
  H86      1.0000 0.51266  0.85110  0.35821  Biso   1.000  H
  N64      1.0000 0.53264  0.82086  0.23622  Biso   1.000  N
  H87      1.0000 0.51259  0.85110  0.35821  Biso   1.000  H
  N65      1.0000 0.53257  0.82086  0.23622  Biso   1.000  N
  N66      1.0000 0.53264  0.82079  0.23622  Biso   1.000  N
  N67      1.0000 0.53257  0.82079  0.23622  Biso   1.000  N
  C98      1.0000 0.62282  0.82067  0.21205  Biso   1.000  C
  C99      1.0000 0.62282  0.82061  0.21205  Biso   1.000  C
  C100     1.0000 0.74801  0.03884  0.86090  Biso   1.000  C
  C101     1.0000 0.74794  0.03884  0.86090  Biso   1.000  C
  C102     1.0000 0.74801  0.03878  0.86090  Biso   1.000  C
  C103     1.0000 0.74794  0.03878  0.86090  Biso   1.000  C
  H88      1.0000 0.72976  0.21121  0.78872  Biso   1.000  H
  N68      1.0000 0.69316  0.09067  0.80609  Biso   1.000  N
  N69      1.0000 0.69309  0.09067  0.80609  Biso   1.000  N
  N70      1.0000 0.69316  0.09061  0.80609  Biso   1.000  N
  N71      1.0000 0.69309  0.09061  0.80609  Biso   1.000  N
  C104     1.0000 0.53797  0.24402  0.79154  Biso   1.000  C
  H89      1.0000 0.32340  0.98789  0.29321  Biso   1.000  H
  H90      1.0000 0.33881  0.89383  0.32000  Biso   1.000  H
  N72      1.0000 0.30699  0.90933  0.19391  Biso   1.000  N
  N73      1.0000 0.30691  0.90933  0.19391  Biso   1.000  N
  H91      1.0000 0.33881  0.89377  0.32000  Biso   1.000  H
  C105     1.0000 0.46210  0.75598  0.20846  Biso   1.000  C
  C106     1.0000 0.46209  0.75598  0.20840  Biso   1.000  C
  C107     1.0000 0.46210  0.75591  0.20846  Biso   1.000  C
  C108     1.0000 0.46209  0.75591  0.20840  Biso   1.000  C
  O29      1.0000 0.65238  0.77160  0.16205  Biso   1.000  O
  O30      1.0000 0.65238  0.77154  0.16205  Biso   1.000  O
  O31      1.0000 0.75914  0.96386  0.85250  Biso   1.000  O
  O32      1.0000 0.75907  0.96386  0.85250  Biso   1.000  O
  C109     1.0000 0.64785  0.06450  0.72173  Biso   1.000  C
  C110     1.0000 0.64785  0.06444  0.72173  Biso   1.000  C
  H92      1.0000 0.56502  0.26479  0.74192  Biso   1.000  H
  H93      1.0000 0.50521  0.29052  0.81519  Biso   1.000  H
  N74      1.0000 0.46750  0.17914  0.76378  Biso   1.000  N
  H94      1.0000 0.56495  0.26479  0.74192  Biso   1.000  H
  H95      1.0000 0.50514  0.29052  0.81519  Biso   1.000  H
  N75      1.0000 0.46743  0.17914  0.76378  Biso   1.000  N
  H96      1.0000 0.50521  0.29046  0.81519  Biso   1.000  H
  H97      1.0000 0.50514  0.29046  0.81519  Biso   1.000  H
  C111     1.0000 0.29812  0.82243  0.16840  Biso   1.000  C
  C112     1.0000 0.25214  0.96116  0.13910  Biso   1.000  C
  C113     1.0000 0.29805  0.82243  0.16840  Biso   1.000  C
  C114     1.0000 0.25206  0.96116  0.13910  Biso   1.000  C
  H98      1.0000 0.43512  0.73521  0.25808  Biso   1.000  H
  H99      1.0000 0.49493  0.70948  0.18481  Biso   1.000  H
  N76      1.0000 0.38445  0.78377  0.14526  Biso   1.000  N
  H100     1.0000 0.43505  0.73521  0.25808  Biso   1.000  H
  H101     1.0000 0.49486  0.70948  0.18481  Biso   1.000  H
  N77      1.0000 0.38445  0.78371  0.14526  Biso   1.000  N
  H102     1.0000 0.67667  0.01211  0.70679  Biso   1.000  H
  H103     1.0000 0.66126  0.10617  0.68000  Biso   1.000  H
  N78      1.0000 0.54546  0.05334  0.71602  Biso   1.000  N
  N79      1.0000 0.54546  0.05327  0.71602  Biso   1.000  N
  C115     1.0000 0.47649  0.12004  0.69468  Biso   1.000  C
  C116     1.0000 0.37725  0.17933  0.78795  Biso   1.000  C
  C117     1.0000 0.47642  0.12004  0.69468  Biso   1.000  C
  C118     1.0000 0.23061  0.82500  0.08308  Biso   1.000  C
  H104     1.0000 0.27031  0.78879  0.21128  Biso   1.000  H
  N80      1.0000 0.20923  0.91347  0.07218  Biso   1.000  N
  O33      1.0000 0.24100  0.03614  0.14750  Biso   1.000  O
  O34      1.0000 0.24093  0.03614  0.14750  Biso   1.000  O
  O35      1.0000 0.24100  0.03608  0.14750  Biso   1.000  O
  O36      1.0000 0.24093  0.03608  0.14750  Biso   1.000  O
  C119     1.0000 0.37437  0.75968  0.06199  Biso   1.000  C
  C120     1.0000 0.50266  0.97691  0.71545  Biso   1.000  C
  C121     1.0000 0.37858  0.07448  0.68448  Biso   1.000  C
  H105     1.0000 0.48749  0.14890  0.64179  Biso   1.000  H
  H106     1.0000 0.48741  0.14890  0.64179  Biso   1.000  H
  N81      1.0000 0.32556  0.11778  0.74352  Biso   1.000  N
  O37      1.0000 0.34769  0.22840  0.83795  Biso   1.000  O
  H107     1.0000 0.17214  0.79181  0.08571  Biso   1.000  H
  N82      1.0000 0.28959  0.79017  0.02180  Biso   1.000  N
  H108     1.0000 0.17206  0.79181  0.08571  Biso   1.000  H
  N83      1.0000 0.28952  0.79017  0.02180  Biso   1.000  N
  C122     1.0000 0.14309  0.94648  0.00365  Biso   1.000  C
  O38      1.0000 0.43113  0.71657  0.02801  Biso   1.000  O
  N84      1.0000 0.40482  0.98827  0.70525  Biso   1.000  N
  O39      1.0000 0.54327  0.90870  0.72256  Biso   1.000  O
  H109     1.0000 0.34620  0.07919  0.62557  Biso   1.000  H
  H110     1.0000 0.34613  0.07919  0.62557  Biso   1.000  H
  C123     1.0000 0.22799  0.09745  0.75577  Biso   1.000  C
  C124     1.0000 0.22792  0.09745  0.75577  Biso   1.000  C
  C125     1.0000 0.22799  0.09738  0.75577  Biso   1.000  C
  C126     1.0000 0.22792  0.09738  0.75577  Biso   1.000  C
  C127     1.0000 0.24797  0.76250  0.93628  Biso   1.000  C
  H111     1.0000 0.12028  0.00069  0.02058  Biso   1.000  H
  H112     1.0000 0.08784  0.90939  0.99359  Biso   1.000  H
  N85      1.0000 0.18438  0.95614  0.92487  Biso   1.000  N
  C128     1.0000 0.33819  0.91761  0.68916  Biso   1.000  C
  C129     1.0000 0.33812  0.91761  0.68916  Biso   1.000  C
  C130     1.0000 0.33819  0.91755  0.68916  Biso   1.000  C
  C131     1.0000 0.33812  0.91755  0.68916  Biso   1.000  C
  N86      1.0000 0.21911  0.02535  0.80993  Biso   1.000  N
  N87      1.0000 0.21904  0.02535  0.80993  Biso   1.000  N
  N88      1.0000 0.21911  0.02529  0.80993  Biso   1.000  N
  N89      1.0000 0.21904  0.02529  0.80993  Biso   1.000  N
  H113     1.0000 0.19964  0.14557  0.78077  Biso   1.000  H
  H114     1.0000 0.19110  0.08709  0.70019  Biso   1.000  H
  H115     1.0000 0.19103  0.08709  0.70019  Biso   1.000  H
  H116     1.0000 0.18274  0.74318  0.93910  Biso   1.000  H
  H117     1.0000 0.28490  0.71513  0.91968  Biso   1.000  H
  N90      1.0000 0.24536  0.82625  0.87038  Biso   1.000  N
  H118     1.0000 0.28483  0.71513  0.91968  Biso   1.000  H
  H119     1.0000 0.28490  0.71507  0.91968  Biso   1.000  H
  H120     1.0000 0.28483  0.71507  0.91968  Biso   1.000  H
  C132     1.0000 0.17568  0.89289  0.85788  Biso   1.000  C
  C133     1.0000 0.17568  0.89283  0.85788  Biso   1.000  C
  C134     1.0000 0.20366  0.03445  0.89397  Biso   1.000  C
  N91      1.0000 0.28811  0.89722  0.76051  Biso   1.000  N
  N92      1.0000 0.28804  0.89722  0.76051  Biso   1.000  N
  H121     1.0000 0.37385  0.86873  0.67461  Biso   1.000  H
  H122     1.0000 0.29119  0.93079  0.64012  Biso   1.000  H
  H123     1.0000 0.29111  0.93079  0.64012  Biso   1.000  H
  H124     1.0000 0.37385  0.86867  0.67461  Biso   1.000  H
  C135     1.0000 0.20335  0.94108  0.77974  Biso   1.000  C
  C136     1.0000 0.20328  0.94108  0.77974  Biso   1.000  C
  C137     1.0000 0.30959  0.82820  0.81179  Biso   1.000  C
  C138     1.0000 0.30952  0.82820  0.81179  Biso   1.000  C
  H125     1.0000 0.10994  0.87080  0.84692  Biso   1.000  H
  O40      1.0000 0.20537  0.09889  0.93410  Biso   1.000  O
  H126     1.0000 0.15166  0.93857  0.73141  Biso   1.000  H
  O41      1.0000 0.37369  0.77750  0.80519  Biso   1.000  O
  O42      1.0000 0.37362  0.77750  0.80519  Biso   1.000  O
  O43      1.0000 0.62638  0.22250  0.19481  Biso   1.000  O
  C139     1.0000 0.69055  0.17180  0.18821  Biso   1.000  C
  C140     1.0000 0.69048  0.17180  0.18821  Biso   1.000  C
  N93      1.0000 0.71196  0.10278  0.23949  Biso   1.000  N
  N94      1.0000 0.75472  0.17375  0.12962  Biso   1.000  N
  O44      1.0000 0.62645  0.22250  0.19481  Biso   1.000  O
  N95      1.0000 0.75472  0.17368  0.12962  Biso   1.000  N
  C141     1.0000 0.66195  0.08239  0.31084  Biso   1.000  C
  C142     1.0000 0.66188  0.08239  0.31084  Biso   1.000  C
  C143     1.0000 0.79679  0.05892  0.22026  Biso   1.000  C
  C144     1.0000 0.79672  0.05892  0.22026  Biso   1.000  C
  C145     1.0000 0.79679  0.05886  0.22026  Biso   1.000  C
  C146     1.0000 0.79672  0.05886  0.22026  Biso   1.000  C
  C147     1.0000 0.82439  0.10711  0.14212  Biso   1.000  C
  C148     1.0000 0.75210  0.23750  0.06372  Biso   1.000  C
  N96      1.0000 0.59525  0.01173  0.29475  Biso   1.000  N
  H127     1.0000 0.62622  0.13127  0.32539  Biso   1.000  H
  H128     1.0000 0.70896  0.06921  0.35988  Biso   1.000  H
  H129     1.0000 0.70889  0.06921  0.35988  Biso   1.000  H
  N97      1.0000 0.78103  0.97465  0.19007  Biso   1.000  N
  N98      1.0000 0.78096  0.97465  0.19007  Biso   1.000  N
  H130     1.0000 0.84841  0.06143  0.26859  Biso   1.000  H
  H131     1.0000 0.84841  0.06137  0.26859  Biso   1.000  H
  H132     1.0000 0.89013  0.12920  0.15308  Biso   1.000  H
  N99      1.0000 0.81569  0.04386  0.07513  Biso   1.000  N
  N100     1.0000 0.81569  0.04380  0.07513  Biso   1.000  N
  N101     1.0000 0.71055  0.20983  0.97820  Biso   1.000  N
  N102     1.0000 0.71048  0.20983  0.97820  Biso   1.000  N
  N103     1.0000 0.71055  0.20976  0.97820  Biso   1.000  N
  N104     1.0000 0.71048  0.20976  0.97820  Biso   1.000  N
  H133     1.0000 0.81733  0.25682  0.06090  Biso   1.000  H
  H134     1.0000 0.71524  0.28487  0.08032  Biso   1.000  H
  H135     1.0000 0.71517  0.28487  0.08032  Biso   1.000  H
  H136     1.0000 0.81733  0.25676  0.06090  Biso   1.000  H
  C149     1.0000 0.49741  0.02309  0.28455  Biso   1.000  C
  C150     1.0000 0.62149  0.92552  0.31552  Biso   1.000  C
  C151     1.0000 0.62149  0.92546  0.31552  Biso   1.000  C
  C152     1.0000 0.77215  0.90255  0.24423  Biso   1.000  C
  C153     1.0000 0.77208  0.90255  0.24423  Biso   1.000  C
  C154     1.0000 0.79641  0.96555  0.10603  Biso   1.000  C
  C155     1.0000 0.85698  0.05352  0.99635  Biso   1.000  C
  C156     1.0000 0.85698  0.05346  0.99635  Biso   1.000  C
  C157     1.0000 0.76947  0.17500  0.91692  Biso   1.000  C
  C158     1.0000 0.62570  0.24032  0.93801  Biso   1.000  C
  C159     1.0000 0.62563  0.24032  0.93801  Biso   1.000  C
  C160     1.0000 0.62570  0.24026  0.93801  Biso   1.000  C
  C161     1.0000 0.62563  0.24026  0.93801  Biso   1.000  C
  N105     1.0000 0.45462  0.94666  0.28398  Biso   1.000  N
  O45      1.0000 0.45680  0.09130  0.27744  Biso   1.000  O
  O46      1.0000 0.45673  0.09130  0.27744  Biso   1.000  O
  C162     1.0000 0.52365  0.87996  0.30532  Biso   1.000  C
  C163     1.0000 0.52358  0.87996  0.30532  Biso   1.000  C
  H137     1.0000 0.65394  0.92081  0.37443  Biso   1.000  H
  N106     1.0000 0.67452  0.88222  0.25648  Biso   1.000  N
  H138     1.0000 0.65387  0.92081  0.37443  Biso   1.000  H
  N107     1.0000 0.67452  0.88216  0.25648  Biso   1.000  N
  H139     1.0000 0.80043  0.85443  0.21923  Biso   1.000  H
  H140     1.0000 0.80904  0.91291  0.29981  Biso   1.000  H
  H141     1.0000 0.80042  0.85443  0.21917  Biso   1.000  H
  H142     1.0000 0.80897  0.91291  0.29981  Biso   1.000  H
  H143     1.0000 0.80043  0.85436  0.21923  Biso   1.000  H
  H144     1.0000 0.80042  0.85436  0.21917  Biso   1.000  H
  O47      1.0000 0.79470  0.90111  0.06590  Biso   1.000  O
  H145     1.0000 0.91223  0.09061  0.00641  Biso   1.000  H
  H146     1.0000 0.87979  0.99931  0.97942  Biso   1.000  H
  N108     1.0000 0.79084  0.08653  0.92782  Biso   1.000  N
  H147     1.0000 0.82801  0.20819  0.91429  Biso   1.000  H
  C164     1.0000 0.70202  0.17757  0.83160  Biso   1.000  C
  H148     1.0000 0.82794  0.20819  0.91429  Biso   1.000  H
  C165     1.0000 0.70195  0.17757  0.83160  Biso   1.000  C
  O48      1.0000 0.56894  0.28343  0.97199  Biso   1.000  O
  N109     1.0000 0.61562  0.21623  0.85474  Biso   1.000  N
  O49      1.0000 0.56894  0.28337  0.97199  Biso   1.000  O
  C166     1.0000 0.35222  0.93550  0.27827  Biso   1.000  C
  H149     1.0000 0.51266  0.85110  0.35821  Biso   1.000  H
  N110     1.0000 0.53264  0.82086  0.23622  Biso   1.000  N
  H150     1.0000 0.51259  0.85110  0.35821  Biso   1.000  H
  N111     1.0000 0.53257  0.82086  0.23622  Biso   1.000  N
  N112     1.0000 0.53264  0.82079  0.23622  Biso   1.000  N
  N113     1.0000 0.53257  0.82079  0.23622  Biso   1.000  N
  C167     1.0000 0.62282  0.82067  0.21205  Biso   1.000  C
  C168     1.0000 0.62282  0.82061  0.21205  Biso   1.000  C
  C169     1.0000 0.74801  0.03884  0.86090  Biso   1.000  C
  C170     1.0000 0.74794  0.03884  0.86090  Biso   1.000  C
  C171     1.0000 0.74801  0.03878  0.86090  Biso   1.000  C
  C172     1.0000 0.74794  0.03878  0.86090  Biso   1.000  C
  N114     1.0000 0.69316  0.09067  0.80609  Biso   1.000  N
  N115     1.0000 0.69309  0.09067  0.80609  Biso   1.000  N
  N116     1.0000 0.69316  0.09061  0.80609  Biso   1.000  N
  N117     1.0000 0.69309  0.09061  0.80609  Biso   1.000  N
  H151     1.0000 0.72976  0.21121  0.78872  Biso   1.000  H
  C173     1.0000 0.53797  0.24402  0.79154  Biso   1.000  C
  H152     1.0000 0.32340  0.98789  0.29321  Biso   1.000  H
  H153     1.0000 0.33881  0.89383  0.32000  Biso   1.000  H
  N118     1.0000 0.30699  0.90933  0.19391  Biso   1.000  N
  N119     1.0000 0.30691  0.90933  0.19391  Biso   1.000  N
  H154     1.0000 0.33881  0.89377  0.32000  Biso   1.000  H
  C174     1.0000 0.46210  0.75598  0.20846  Biso   1.000  C
  C175     1.0000 0.46209  0.75598  0.20840  Biso   1.000  C
  C176     1.0000 0.46210  0.75591  0.20846  Biso   1.000  C
  C177     1.0000 0.46209  0.75591  0.20840  Biso   1.000  C
  O50      1.0000 0.65238  0.77160  0.16205  Biso   1.000  O
  O51      1.0000 0.65238  0.77154  0.16205  Biso   1.000  O
  O52      1.0000 0.75914  0.96386  0.85250  Biso   1.000  O
  O53      1.0000 0.75907  0.96386  0.85250  Biso   1.000  O
  C178     1.0000 0.64785  0.06450  0.72173  Biso   1.000  C
  C179     1.0000 0.64785  0.06444  0.72173  Biso   1.000  C
  H155     1.0000 0.56502  0.26479  0.74192  Biso   1.000  H
  H156     1.0000 0.50521  0.29052  0.81519  Biso   1.000  H
  N120     1.0000 0.46750  0.17914  0.76378  Biso   1.000  N
  H157     1.0000 0.56495  0.26479  0.74192  Biso   1.000  H
  H158     1.0000 0.50514  0.29052  0.81519  Biso   1.000  H
  N121     1.0000 0.46743  0.17914  0.76378  Biso   1.000  N
  H159     1.0000 0.50521  0.29046  0.81519  Biso   1.000  H
  H160     1.0000 0.50514  0.29046  0.81519  Biso   1.000  H
  C180     1.0000 0.29812  0.82243  0.16840  Biso   1.000  C
  C181     1.0000 0.25214  0.96116  0.13910  Biso   1.000  C
  C182     1.0000 0.29805  0.82243  0.16840  Biso   1.000  C
  C183     1.0000 0.25206  0.96116  0.13910  Biso   1.000  C
  H161     1.0000 0.43512  0.73521  0.25808  Biso   1.000  H
  H162     1.0000 0.49493  0.70948  0.18481  Biso   1.000  H
  N122     1.0000 0.38445  0.78377  0.14526  Biso   1.000  N
  H163     1.0000 0.43505  0.73521  0.25808  Biso   1.000  H
  H164     1.0000 0.49486  0.70948  0.18481  Biso   1.000  H
  N123     1.0000 0.38445  0.78371  0.14526  Biso   1.000  N
  H165     1.0000 0.67667  0.01211  0.70679  Biso   1.000  H
  H166     1.0000 0.66126  0.10617  0.68000  Biso   1.000  H
  N124     1.0000 0.54546  0.05334  0.71602  Biso   1.000  N
  N125     1.0000 0.54546  0.05327  0.71602  Biso   1.000  N
  C184     1.0000 0.47649  0.12004  0.69468  Biso   1.000  C
  C185     1.0000 0.37725  0.17933  0.78795  Biso   1.000  C
  C186     1.0000 0.47642  0.12004  0.69468  Biso   1.000  C
  C187     1.0000 0.23061  0.82500  0.08308  Biso   1.000  C
  H167     1.0000 0.27031  0.78879  0.21128  Biso   1.000  H
  N126     1.0000 0.20923  0.91347  0.07218  Biso   1.000  N
  O54      1.0000 0.24100  0.03614  0.14750  Biso   1.000  O
  O55      1.0000 0.24093  0.03614  0.14750  Biso   1.000  O
  O56      1.0000 0.24100  0.03608  0.14750  Biso   1.000  O
  O57      1.0000 0.24093  0.03608  0.14750  Biso   1.000  O
  C188     1.0000 0.37437  0.75968  0.06199  Biso   1.000  C
  C189     1.0000 0.50266  0.97691  0.71545  Biso   1.000  C
  C190     1.0000 0.37858  0.07448  0.68448  Biso   1.000  C
  H168     1.0000 0.48749  0.14890  0.64179  Biso   1.000  H
  H169     1.0000 0.48741  0.14890  0.64179  Biso   1.000  H
  N127     1.0000 0.32556  0.11778  0.74352  Biso   1.000  N
  O58      1.0000 0.34769  0.22840  0.83795  Biso   1.000  O
  H170     1.0000 0.17214  0.79181  0.08571  Biso   1.000  H
  N128     1.0000 0.28959  0.79017  0.02180  Biso   1.000  N
  H171     1.0000 0.17206  0.79181  0.08571  Biso   1.000  H
  N129     1.0000 0.28952  0.79017  0.02180  Biso   1.000  N
  C191     1.0000 0.14309  0.94648  0.00365  Biso   1.000  C
  O59      1.0000 0.43113  0.71657  0.02801  Biso   1.000  O
  N130     1.0000 0.40482  0.98827  0.70525  Biso   1.000  N
  O60      1.0000 0.54327  0.90870  0.72256  Biso   1.000  O
  H172     1.0000 0.34620  0.07919  0.62557  Biso   1.000  H
  H173     1.0000 0.34613  0.07919  0.62557  Biso   1.000  H
  C192     1.0000 0.22799  0.09745  0.75577  Biso   1.000  C
  C193     1.0000 0.22792  0.09745  0.75577  Biso   1.000  C
  C194     1.0000 0.22799  0.09738  0.75577  Biso   1.000  C
  C195     1.0000 0.22792  0.09738  0.75577  Biso   1.000  C
  C196     1.0000 0.24797  0.76250  0.93628  Biso   1.000  C
  H174     1.0000 0.12028  0.00069  0.02058  Biso   1.000  H
  H175     1.0000 0.08784  0.90939  0.99359  Biso   1.000  H
  N131     1.0000 0.18438  0.95614  0.92487  Biso   1.000  N
  C197     1.0000 0.33819  0.91761  0.68916  Biso   1.000  C
  C198     1.0000 0.33812  0.91761  0.68916  Biso   1.000  C
  C199     1.0000 0.33819  0.91755  0.68916  Biso   1.000  C
  C200     1.0000 0.33812  0.91755  0.68916  Biso   1.000  C
  N132     1.0000 0.21911  0.02535  0.80993  Biso   1.000  N
  N133     1.0000 0.21904  0.02535  0.80993  Biso   1.000  N
  N134     1.0000 0.21911  0.02529  0.80993  Biso   1.000  N
  N135     1.0000 0.21904  0.02529  0.80993  Biso   1.000  N
  H176     1.0000 0.19964  0.14557  0.78077  Biso   1.000  H
  H177     1.0000 0.19110  0.08709  0.70019  Biso   1.000  H
  H178     1.0000 0.19103  0.08709  0.70019  Biso   1.000  H
  H179     1.0000 0.18274  0.74318  0.93910  Biso   1.000  H
  H180     1.0000 0.28490  0.71513  0.91968  Biso   1.000  H
  N136     1.0000 0.24536  0.82625  0.87038  Biso   1.000  N
  H181     1.0000 0.28483  0.71513  0.91968  Biso   1.000  H
  H182     1.0000 0.28490  0.71507  0.91968  Biso   1.000  H
  H183     1.0000 0.28483  0.71507  0.91968  Biso   1.000  H
  C201     1.0000 0.17568  0.89289  0.85788  Biso   1.000  C
  C202     1.0000 0.17568  0.89283  0.85788  Biso   1.000  C
  C203     1.0000 0.20366  0.03445  0.89397  Biso   1.000  C
  N137     1.0000 0.28811  0.89722  0.76051  Biso   1.000  N
  N138     1.0000 0.28804  0.89722  0.76051  Biso   1.000  N
  H184     1.0000 0.37385  0.86873  0.67461  Biso   1.000  H
  H185     1.0000 0.29119  0.93079  0.64012  Biso   1.000  H
  H186     1.0000 0.29111  0.93079  0.64012  Biso   1.000  H
  H187     1.0000 0.37385  0.86867  0.67461  Biso   1.000  H
  C204     1.0000 0.20335  0.94108  0.77974  Biso   1.000  C
  C205     1.0000 0.20328  0.94108  0.77974  Biso   1.000  C
  C206     1.0000 0.30959  0.82820  0.81179  Biso   1.000  C
  C207     1.0000 0.30952  0.82820  0.81179  Biso   1.000  C
  H188     1.0000 0.10994  0.87080  0.84692  Biso   1.000  H
  O61      1.0000 0.20537  0.09889  0.93410  Biso   1.000  O
  H189     1.0000 0.15166  0.93857  0.73141  Biso   1.000  H
  O62      1.0000 0.37369  0.77750  0.80519  Biso   1.000  O
  O63      1.0000 0.37362  0.77750  0.80519  Biso   1.000  O
  O64      1.0000 0.62638  0.22250  0.19481  Biso   1.000  O
  C208     1.0000 0.69055  0.17180  0.18821  Biso   1.000  C
  C209     1.0000 0.69048  0.17180  0.18821  Biso   1.000  C
  N139     1.0000 0.71196  0.10278  0.23949  Biso   1.000  N
  N140     1.0000 0.75472  0.17375  0.12962  Biso   1.000  N
  O65      1.0000 0.62645  0.22250  0.19481  Biso   1.000  O
  N141     1.0000 0.75472  0.17368  0.12962  Biso   1.000  N
  C210     1.0000 0.66195  0.08239  0.31084  Biso   1.000  C
  C211     1.0000 0.66188  0.08239  0.31084  Biso   1.000  C
  C212     1.0000 0.79679  0.05892  0.22026  Biso   1.000  C
  C213     1.0000 0.79672  0.05892  0.22026  Biso   1.000  C
  C214     1.0000 0.79679  0.05886  0.22026  Biso   1.000  C
  C215     1.0000 0.79672  0.05886  0.22026  Biso   1.000  C
  C216     1.0000 0.82439  0.10711  0.14212  Biso   1.000  C
  C217     1.0000 0.75210  0.23750  0.06372  Biso   1.000  C
  N142     1.0000 0.59525  0.01173  0.29475  Biso   1.000  N
  H190     1.0000 0.62622  0.13127  0.32539  Biso   1.000  H
  H191     1.0000 0.70896  0.06921  0.35988  Biso   1.000  H
  H192     1.0000 0.70889  0.06921  0.35988  Biso   1.000  H
  N143     1.0000 0.78103  0.97465  0.19007  Biso   1.000  N
  N144     1.0000 0.78096  0.97465  0.19007  Biso   1.000  N
  H193     1.0000 0.84841  0.06143  0.26859  Biso   1.000  H
  H194     1.0000 0.84841  0.06137  0.26859  Biso   1.000  H
  H195     1.0000 0.89013  0.12920  0.15308  Biso   1.000  H
  N145     1.0000 0.81569  0.04386  0.07513  Biso   1.000  N
  N146     1.0000 0.81569  0.04380  0.07513  Biso   1.000  N
  N147     1.0000 0.71055  0.20983  0.97820  Biso   1.000  N
  N148     1.0000 0.71048  0.20983  0.97820  Biso   1.000  N
  N149     1.0000 0.71055  0.20976  0.97820  Biso   1.000  N
  N150     1.0000 0.71048  0.20976  0.97820  Biso   1.000  N
  H196     1.0000 0.81733  0.25682  0.06090  Biso   1.000  H
  H197     1.0000 0.71524  0.28487  0.08032  Biso   1.000  H
  H198     1.0000 0.71517  0.28487  0.08032  Biso   1.000  H
  H199     1.0000 0.81733  0.25676  0.06090  Biso   1.000  H
  C218     1.0000 0.49741  0.02309  0.28455  Biso   1.000  C
  C219     1.0000 0.62149  0.92552  0.31552  Biso   1.000  C
  C220     1.0000 0.62149  0.92546  0.31552  Biso   1.000  C
  C221     1.0000 0.77215  0.90255  0.24423  Biso   1.000  C
  C222     1.0000 0.77208  0.90255  0.24423  Biso   1.000  C
  C223     1.0000 0.79641  0.96555  0.10603  Biso   1.000  C
  C224     1.0000 0.85698  0.05352  0.99635  Biso   1.000  C
  C225     1.0000 0.85698  0.05346  0.99635  Biso   1.000  C
  C226     1.0000 0.76947  0.17500  0.91692  Biso   1.000  C
  C227     1.0000 0.62570  0.24032  0.93801  Biso   1.000  C
  C228     1.0000 0.62563  0.24032  0.93801  Biso   1.000  C
  C229     1.0000 0.62570  0.24026  0.93801  Biso   1.000  C
  C230     1.0000 0.62563  0.24026  0.93801  Biso   1.000  C
  N151     1.0000 0.45462  0.94666  0.28398  Biso   1.000  N
  O66      1.0000 0.45680  0.09130  0.27744  Biso   1.000  O
  O67      1.0000 0.45673  0.09130  0.27744  Biso   1.000  O
  C231     1.0000 0.52365  0.87996  0.30532  Biso   1.000  C
  C232     1.0000 0.52358  0.87996  0.30532  Biso   1.000  C
  H200     1.0000 0.65394  0.92081  0.37443  Biso   1.000  H
  N152     1.0000 0.67452  0.88222  0.25648  Biso   1.000  N
  H201     1.0000 0.65387  0.92081  0.37443  Biso   1.000  H
  N153     1.0000 0.67452  0.88216  0.25648  Biso   1.000  N
  H202     1.0000 0.80043  0.85443  0.21923  Biso   1.000  H
  H203     1.0000 0.80904  0.91291  0.29981  Biso   1.000  H
  H204     1.0000 0.80042  0.85443  0.21917  Biso   1.000  H
  H205     1.0000 0.80897  0.91291  0.29981  Biso   1.000  H
  H206     1.0000 0.80043  0.85436  0.21923  Biso   1.000  H
  H207     1.0000 0.80042  0.85436  0.21917  Biso   1.000  H
  O68      1.0000 0.79470  0.90111  0.06590  Biso   1.000  O
  H208     1.0000 0.91223  0.09061  0.00641  Biso   1.000  H
  H209     1.0000 0.87979  0.99931  0.97942  Biso   1.000  H
  N154     1.0000 0.79084  0.08653  0.92782  Biso   1.000  N
  H210     1.0000 0.82801  0.20819  0.91429  Biso   1.000  H
  C233     1.0000 0.70202  0.17757  0.83160  Biso   1.000  C
  H211     1.0000 0.82794  0.20819  0.91429  Biso   1.000  H
  C234     1.0000 0.70195  0.17757  0.83160  Biso   1.000  C
  O69      1.0000 0.56894  0.28343  0.97199  Biso   1.000  O
  N155     1.0000 0.61562  0.21623  0.85474  Biso   1.000  N
  O70      1.0000 0.56894  0.28337  0.97199  Biso   1.000  O
  C235     1.0000 0.35222  0.93550  0.27827  Biso   1.000  C
  H212     1.0000 0.51266  0.85110  0.35821  Biso   1.000  H
  N156     1.0000 0.53264  0.82086  0.23622  Biso   1.000  N
  H213     1.0000 0.51259  0.85110  0.35821  Biso   1.000  H
  N157     1.0000 0.53257  0.82086  0.23622  Biso   1.000  N
  N158     1.0000 0.53264  0.82079  0.23622  Biso   1.000  N
  N159     1.0000 0.53257  0.82079  0.23622  Biso   1.000  N
  C236     1.0000 0.62282  0.82067  0.21205  Biso   1.000  C
  C237     1.0000 0.62282  0.82061  0.21205  Biso   1.000  C
  C238     1.0000 0.74801  0.03884  0.86090  Biso   1.000  C
  C239     1.0000 0.74794  0.03884  0.86090  Biso   1.000  C
  C240     1.0000 0.74801  0.03878  0.86090  Biso   1.000  C
  C241     1.0000 0.74794  0.03878  0.86090  Biso   1.000  C
  N160     1.0000 0.69316  0.09067  0.80609  Biso   1.000  N
  N161     1.0000 0.69309  0.09067  0.80609  Biso   1.000  N
  N162     1.0000 0.69316  0.09061  0.80609  Biso   1.000  N
  N163     1.0000 0.69309  0.09061  0.80609  Biso   1.000  N
  H214     1.0000 0.72976  0.21121  0.78872  Biso   1.000  H
  C242     1.0000 0.53797  0.24402  0.79154  Biso   1.000  C
  H215     1.0000 0.32340  0.98789  0.29321  Biso   1.000  H
  H216     1.0000 0.33881  0.89383  0.32000  Biso   1.000  H
  N164     1.0000 0.30699  0.90933  0.19391  Biso   1.000  N
  N165     1.0000 0.30691  0.90933  0.19391  Biso   1.000  N
  H217     1.0000 0.33881  0.89377  0.32000  Biso   1.000  H
  C243     1.0000 0.46210  0.75598  0.20846  Biso   1.000  C
  C244     1.0000 0.46209  0.75598  0.20840  Biso   1.000  C
  C245     1.0000 0.46210  0.75591  0.20846  Biso   1.000  C
  C246     1.0000 0.46209  0.75591  0.20840  Biso   1.000  C
  O71      1.0000 0.65238  0.77160  0.16205  Biso   1.000  O
  O72      1.0000 0.65238  0.77154  0.16205  Biso   1.000  O
  O73      1.0000 0.75914  0.96386  0.85250  Biso   1.000  O
  O74      1.0000 0.75907  0.96386  0.85250  Biso   1.000  O
  C247     1.0000 0.64785  0.06450  0.72173  Biso   1.000  C
  C248     1.0000 0.64785  0.06444  0.72173  Biso   1.000  C
  H218     1.0000 0.56502  0.26479  0.74192  Biso   1.000  H
  H219     1.0000 0.50521  0.29052  0.81519  Biso   1.000  H
  N166     1.0000 0.46750  0.17914  0.76378  Biso   1.000  N
  H220     1.0000 0.56495  0.26479  0.74192  Biso   1.000  H
  H221     1.0000 0.50514  0.29052  0.81519  Biso   1.000  H
  N167     1.0000 0.46743  0.17914  0.76378  Biso   1.000  N
  H222     1.0000 0.50521  0.29046  0.81519  Biso   1.000  H
  H223     1.0000 0.50514  0.29046  0.81519  Biso   1.000  H
  C249     1.0000 0.29812  0.82243  0.16840  Biso   1.000  C
  C250     1.0000 0.25214  0.96116  0.13910  Biso   1.000  C
  C251     1.0000 0.29805  0.82243  0.16840  Biso   1.000  C
  C252     1.0000 0.25206  0.96116  0.13910  Biso   1.000  C
  H224     1.0000 0.43512  0.73521  0.25808  Biso   1.000  H
  H225     1.0000 0.49493  0.70948  0.18481  Biso   1.000  H
  N168     1.0000 0.38445  0.78377  0.14526  Biso   1.000  N
  H226     1.0000 0.43505  0.73521  0.25808  Biso   1.000  H
  H227     1.0000 0.49486  0.70948  0.18481  Biso   1.000  H
  N169     1.0000 0.38445  0.78371  0.14526  Biso   1.000  N
  H228     1.0000 0.67667  0.01211  0.70679  Biso   1.000  H
  H229     1.0000 0.66126  0.10617  0.68000  Biso   1.000  H
  N170     1.0000 0.54546  0.05334  0.71602  Biso   1.000  N
  N171     1.0000 0.54546  0.05327  0.71602  Biso   1.000  N
  C253     1.0000 0.47649  0.12004  0.69468  Biso   1.000  C
  C254     1.0000 0.37725  0.17933  0.78795  Biso   1.000  C
  C255     1.0000 0.47642  0.12004  0.69468  Biso   1.000  C
  C256     1.0000 0.23061  0.82500  0.08308  Biso   1.000  C
  H230     1.0000 0.27031  0.78879  0.21128  Biso   1.000  H
  N172     1.0000 0.20923  0.91347  0.07218  Biso   1.000  N
  O75      1.0000 0.24100  0.03614  0.14750  Biso   1.000  O
  O76      1.0000 0.24093  0.03614  0.14750  Biso   1.000  O
  O77      1.0000 0.24100  0.03608  0.14750  Biso   1.000  O
  O78      1.0000 0.24093  0.03608  0.14750  Biso   1.000  O
  C257     1.0000 0.37437  0.75968  0.06199  Biso   1.000  C
  C258     1.0000 0.50266  0.97691  0.71545  Biso   1.000  C
  C259     1.0000 0.37858  0.07448  0.68448  Biso   1.000  C
  H231     1.0000 0.48749  0.14890  0.64179  Biso   1.000  H
  H232     1.0000 0.48741  0.14890  0.64179  Biso   1.000  H
  N173     1.0000 0.32556  0.11778  0.74352  Biso   1.000  N
  O79      1.0000 0.34769  0.22840  0.83795  Biso   1.000  O
  H233     1.0000 0.17214  0.79181  0.08571  Biso   1.000  H
  N174     1.0000 0.28959  0.79017  0.02180  Biso   1.000  N
  H234     1.0000 0.17206  0.79181  0.08571  Biso   1.000  H
  N175     1.0000 0.28952  0.79017  0.02180  Biso   1.000  N
  C260     1.0000 0.14309  0.94648  0.00365  Biso   1.000  C
  O80      1.0000 0.43113  0.71657  0.02801  Biso   1.000  O
  N176     1.0000 0.40482  0.98827  0.70525  Biso   1.000  N
  O81      1.0000 0.54327  0.90870  0.72256  Biso   1.000  O
  H235     1.0000 0.34620  0.07919  0.62557  Biso   1.000  H
  H236     1.0000 0.34613  0.07919  0.62557  Biso   1.000  H
  C261     1.0000 0.22799  0.09745  0.75577  Biso   1.000  C
  C262     1.0000 0.22792  0.09745  0.75577  Biso   1.000  C
  C263     1.0000 0.22799  0.09738  0.75577  Biso   1.000  C
  C264     1.0000 0.22792  0.09738  0.75577  Biso   1.000  C
  C265     1.0000 0.24797  0.76250  0.93628  Biso   1.000  C
  H237     1.0000 0.12028  0.00069  0.02058  Biso   1.000  H
  H238     1.0000 0.08784  0.90939  0.99359  Biso   1.000  H
  N177     1.0000 0.18438  0.95614  0.92487  Biso   1.000  N
  C266     1.0000 0.33819  0.91761  0.68916  Biso   1.000  C
  C267     1.0000 0.33812  0.91761  0.68916  Biso   1.000  C
  C268     1.0000 0.33819  0.91755  0.68916  Biso   1.000  C
  C269     1.0000 0.33812  0.91755  0.68916  Biso   1.000  C
  N178     1.0000 0.21911  0.02535  0.80993  Biso   1.000  N
  N179     1.0000 0.21904  0.02535  0.80993  Biso   1.000  N
  N180     1.0000 0.21911  0.02529  0.80993  Biso   1.000  N
  N181     1.0000 0.21904  0.02529  0.80993  Biso   1.000  N
  H239     1.0000 0.19964  0.14557  0.78077  Biso   1.000  H
  H240     1.0000 0.19110  0.08709  0.70019  Biso   1.000  H
  H241     1.0000 0.19103  0.08709  0.70019  Biso   1.000  H
  H242     1.0000 0.18274  0.74318  0.93910  Biso   1.000  H
  H243     1.0000 0.28490  0.71513  0.91968  Biso   1.000  H
  N182     1.0000 0.24536  0.82625  0.87038  Biso   1.000  N
  H244     1.0000 0.28483  0.71513  0.91968  Biso   1.000  H
  H245     1.0000 0.28490  0.71507  0.91968  Biso   1.000  H
  H246     1.0000 0.28483  0.71507  0.91968  Biso   1.000  H
  C270     1.0000 0.17568  0.89289  0.85788  Biso   1.000  C
  C271     1.0000 0.17568  0.89283  0.85788  Biso   1.000  C
  C272     1.0000 0.20366  0.03445  0.89397  Biso   1.000  C
  N183     1.0000 0.28811  0.89722  0.76051  Biso   1.000  N
  N184     1.0000 0.28804  0.89722  0.76051  Biso   1.000  N
  H247     1.0000 0.37385  0.86873  0.67461  Biso   1.000  H
  H248     1.0000 0.29119  0.93079  0.64012  Biso   1.000  H
  H249     1.0000 0.29111  0.93079  0.64012  Biso   1.000  H
  H250     1.0000 0.37385  0.86867  0.67461  Biso   1.000  H
  C273     1.0000 0.20335  0.94108  0.77974  Biso   1.000  C
  C274     1.0000 0.20328  0.94108  0.77974  Biso   1.000  C
  C275     1.0000 0.30959  0.82820  0.81179  Biso   1.000  C
  C276     1.0000 0.30952  0.82820  0.81179  Biso   1.000  C
  H251     1.0000 0.10994  0.87080  0.84692  Biso   1.000  H
  O82      1.0000 0.20537  0.09889  0.93410  Biso   1.000  O
  H252     1.0000 0.15166  0.93857  0.73141  Biso   1.000  H
  O83      1.0000 0.37369  0.77750  0.80519  Biso   1.000  O
  O84      1.0000 0.37362  0.77750  0.80519  Biso   1.000  O
  C277     1.0000 0.72791  0.40259  0.25577  Biso   1.000  C
  N185     1.0000 0.71903  0.47468  0.30994  Biso   1.000  N
  H253     1.0000 0.69956  0.35440  0.28077  Biso   1.000  H
  H254     1.0000 0.69102  0.41288  0.20019  Biso   1.000  H
  N186     1.0000 0.82547  0.38219  0.24353  Biso   1.000  N
  H255     1.0000 0.69963  0.35440  0.28077  Biso   1.000  H
  N187     1.0000 0.82554  0.38219  0.24353  Biso   1.000  N
  C278     1.0000 0.70358  0.46552  0.39398  Biso   1.000  C
  C279     1.0000 0.70365  0.46552  0.39398  Biso   1.000  C
  C280     1.0000 0.70327  0.55889  0.27975  Biso   1.000  C
  C281     1.0000 0.87850  0.42549  0.18449  Biso   1.000  C
  C282     1.0000 0.87724  0.32064  0.28795  Biso   1.000  C
  O85      1.0000 0.70529  0.40114  0.43411  Biso   1.000  O
  N188     1.0000 0.68430  0.54383  0.42488  Biso   1.000  N
  N189     1.0000 0.68437  0.54383  0.42488  Biso   1.000  N
  O86      1.0000 0.70536  0.40114  0.43411  Biso   1.000  O
  C283     1.0000 0.67560  0.60714  0.35789  Biso   1.000  C
  H256     1.0000 0.65158  0.56140  0.23141  Biso   1.000  H
  N190     1.0000 0.78803  0.60275  0.26052  Biso   1.000  N
  H257     1.0000 0.65165  0.56140  0.23141  Biso   1.000  H
  C284     1.0000 0.97641  0.37993  0.19468  Biso   1.000  C
  H258     1.0000 0.84612  0.42078  0.12558  Biso   1.000  H
  N191     1.0000 0.90474  0.51170  0.20526  Biso   1.000  N
  N192     1.0000 0.90481  0.51170  0.20526  Biso   1.000  N
  N193     1.0000 0.96742  0.32083  0.26378  Biso   1.000  N
  O87      1.0000 0.84761  0.27157  0.33795  Biso   1.000  O
  O88      1.0000 0.84768  0.27157  0.33795  Biso   1.000  O
  C285     1.0000 0.64308  0.55349  0.50366  Biso   1.000  C
  C286     1.0000 0.64316  0.55349  0.50366  Biso   1.000  C
  H259     1.0000 0.60993  0.62916  0.34693  Biso   1.000  H
  N194     1.0000 0.74527  0.67372  0.37039  Biso   1.000  N
  N195     1.0000 0.74535  0.67372  0.37039  Biso   1.000  N
  C287     1.0000 0.83811  0.58242  0.18917  Biso   1.000  C
  C288     1.0000 0.80951  0.67177  0.31180  Biso   1.000  C
  H260     1.0000 0.98740  0.35107  0.14180  Biso   1.000  H
  N196     1.0000 0.04537  0.44670  0.21603  Biso   1.000  N
  N197     1.0000 0.04545  0.44670  0.21603  Biso   1.000  N
  C289     1.0000 0.00258  0.52306  0.21545  Biso   1.000  C
  C290     1.0000 0.00265  0.52306  0.21545  Biso   1.000  C
  C291     1.0000 0.03789  0.25595  0.29154  Biso   1.000  C
  C292     1.0000 0.03796  0.25595  0.29154  Biso   1.000  C
  H261     1.0000 0.58776  0.59058  0.49360  Biso   1.000  H
  H262     1.0000 0.62027  0.49928  0.52058  Biso   1.000  H
  N198     1.0000 0.70922  0.58656  0.57219  Biso   1.000  N
  H263     1.0000 0.58783  0.59058  0.49360  Biso   1.000  H
  H264     1.0000 0.62034  0.49928  0.52058  Biso   1.000  H
  N199     1.0000 0.70929  0.58656  0.57219  Biso   1.000  N
  C293     1.0000 0.74789  0.73747  0.43629  Biso   1.000  C
  C294     1.0000 0.74796  0.73747  0.43629  Biso   1.000  C
  H265     1.0000 0.87377  0.63130  0.17462  Biso   1.000  H
  H266     1.0000 0.79110  0.56918  0.14013  Biso   1.000  H
  H267     1.0000 0.87384  0.63130  0.17462  Biso   1.000  H
  O89      1.0000 0.87361  0.72247  0.30520  Biso   1.000  O
  C295     1.0000 0.14784  0.43553  0.22173  Biso   1.000  C
  O90      1.0000 0.04326  0.59127  0.22257  Biso   1.000  O
  H268     1.0000 0.06494  0.23518  0.24193  Biso   1.000  H
  H269     1.0000 0.00513  0.20951  0.31520  Biso   1.000  H
  N200     1.0000 0.11561  0.28374  0.35475  Biso   1.000  N
  C296     1.0000 0.73059  0.67497  0.58308  Biso   1.000  C
  C297     1.0000 0.75212  0.53881  0.63911  Biso   1.000  C
  C298     1.0000 0.73067  0.67497  0.58308  Biso   1.000  C
  H270     1.0000 0.68273  0.75679  0.43911  Biso   1.000  H
  H271     1.0000 0.78482  0.78490  0.41968  Biso   1.000  H
  N201     1.0000 0.78958  0.70979  0.52180  Biso   1.000  N
  H272     1.0000 0.17659  0.48792  0.20680  Biso   1.000  H
  H273     1.0000 0.16118  0.39380  0.18000  Biso   1.000  H
  N202     1.0000 0.19308  0.40936  0.30609  Biso   1.000  N
  H274     1.0000 0.17666  0.48792  0.20680  Biso   1.000  H
  H275     1.0000 0.16125  0.39380  0.18000  Biso   1.000  H
  C299     1.0000 0.20194  0.32239  0.33161  Biso   1.000  C
  C300     1.0000 0.12561  0.25971  0.43802  Biso   1.000  C
  H276     1.0000 0.67212  0.70816  0.58571  Biso   1.000  H
  C301     1.0000 0.79811  0.67754  0.66840  Biso   1.000  C
  O91      1.0000 0.74099  0.46389  0.64751  Biso   1.000  O
  N203     1.0000 0.80697  0.59064  0.69392  Biso   1.000  N
  C302     1.0000 0.87444  0.74029  0.56199  Biso   1.000  C
  C303     1.0000 0.24793  0.46119  0.36090  Biso   1.000  C
  C304     1.0000 0.26938  0.32497  0.41693  Biso   1.000  C
  H277     1.0000 0.22968  0.28882  0.28872  Biso   1.000  H
  C305     1.0000 0.26946  0.32497  0.41693  Biso   1.000  C
  H278     1.0000 0.22975  0.28882  0.28872  Biso   1.000  H
  N204     1.0000 0.21047  0.29021  0.47821  Biso   1.000  N
  O92      1.0000 0.06886  0.21660  0.47199  Biso   1.000  O
  H279     1.0000 0.77030  0.71118  0.71129  Biso   1.000  H
  N205     1.0000 0.88444  0.71626  0.64526  Biso   1.000  N
  H280     1.0000 0.77037  0.71118  0.71129  Biso   1.000  H
  C306     1.0000 0.85221  0.56447  0.77828  Biso   1.000  C
  O93      1.0000 0.93119  0.78340  0.52802  Biso   1.000  O
  N206     1.0000 0.29076  0.41344  0.42783  Biso   1.000  N
  O94      1.0000 0.25906  0.53611  0.35250  Biso   1.000  O
  H281     1.0000 0.32793  0.29177  0.41430  Biso   1.000  H
  C307     1.0000 0.25209  0.26253  0.56372  Biso   1.000  C
  C308     1.0000 0.25216  0.26253  0.56372  Biso   1.000  C
  C309     1.0000 0.96208  0.74405  0.70841  Biso   1.000  C
  C310     1.0000 0.96215  0.74405  0.70841  Biso   1.000  C
  H282     1.0000 0.82339  0.51208  0.79321  Biso   1.000  H
  H283     1.0000 0.83880  0.60620  0.82001  Biso   1.000  H
  N207     1.0000 0.95461  0.55330  0.78398  Biso   1.000  N
  H284     1.0000 0.82346  0.51208  0.79321  Biso   1.000  H
  H285     1.0000 0.83887  0.60620  0.82001  Biso   1.000  H
  N208     1.0000 0.95468  0.55330  0.78398  Biso   1.000  N
  C311     1.0000 0.35689  0.44651  0.49635  Biso   1.000  C
  C312     1.0000 0.35697  0.44651  0.49635  Biso   1.000  C
  H286     1.0000 0.31732  0.24321  0.56090  Biso   1.000  H
  H287     1.0000 0.21523  0.21510  0.58033  Biso   1.000  H
  N209     1.0000 0.25470  0.32628  0.62962  Biso   1.000  N
  N210     1.0000 0.25478  0.32628  0.62962  Biso   1.000  N
  H288     1.0000 0.93511  0.76476  0.75809  Biso   1.000  H
  H289     1.0000 0.99492  0.79049  0.68482  Biso   1.000  H
  N211     1.0000 0.03263  0.67917  0.73623  Biso   1.000  N
  C313     1.0000 0.99740  0.47694  0.78456  Biso   1.000  C
  C314     1.0000 0.99747  0.47694  0.78456  Biso   1.000  C
  C315     1.0000 0.02364  0.62000  0.80533  Biso   1.000  C
  H290     1.0000 0.41222  0.40936  0.50642  Biso   1.000  H
  H291     1.0000 0.37971  0.50072  0.47943  Biso   1.000  H
  N212     1.0000 0.31568  0.45617  0.57513  Biso   1.000  N
  H292     1.0000 0.37978  0.50072  0.47943  Biso   1.000  H
  N213     1.0000 0.31575  0.45617  0.57513  Biso   1.000  N
  C316     1.0000 0.32445  0.39286  0.64212  Biso   1.000  C
  C317     1.0000 0.19054  0.32817  0.68821  Biso   1.000  C
  C318     1.0000 0.12281  0.67936  0.71206  Biso   1.000  C
  O95      1.0000 0.95679  0.40867  0.77744  Biso   1.000  O
  N214     1.0000 0.09524  0.48823  0.79475  Biso   1.000  N
  N215     1.0000 0.09531  0.48823  0.79475  Biso   1.000  N
  H293     1.0000 0.01265  0.64887  0.85821  Biso   1.000  H
  C319     1.0000 0.12155  0.57451  0.81552  Biso   1.000  C
  C320     1.0000 0.29640  0.53442  0.60603  Biso   1.000  C
  C321     1.0000 0.29647  0.53442  0.60603  Biso   1.000  C
  C322     1.0000 0.29678  0.44111  0.72026  Biso   1.000  C
  H294     1.0000 0.39012  0.37077  0.65308  Biso   1.000  H
  N216     1.0000 0.21202  0.39725  0.73950  Biso   1.000  N
  O96      1.0000 0.12644  0.27747  0.69482  Biso   1.000  O
  N217     1.0000 0.17451  0.61781  0.75648  Biso   1.000  N
  O97      1.0000 0.15237  0.72843  0.66206  Biso   1.000  O
  N218     1.0000 0.17458  0.61781  0.75648  Biso   1.000  N
  O98      1.0000 0.15244  0.72843  0.66206  Biso   1.000  O
  C323     1.0000 0.16194  0.41758  0.81084  Biso   1.000  C
  H295     1.0000 0.15393  0.57922  0.87443  Biso   1.000  H
  N219     1.0000 0.28102  0.52532  0.69007  Biso   1.000  N
  O99      1.0000 0.29469  0.59886  0.56590  Biso   1.000  O
  O100     1.0000 0.29476  0.59886  0.56590  Biso   1.000  O
  H296     1.0000 0.34840  0.43860  0.76860  Biso   1.000  H
  H297     1.0000 0.34848  0.43860  0.76860  Biso   1.000  H
  C324     1.0000 0.27214  0.59741  0.74424  Biso   1.000  C
  H298     1.0000 0.12621  0.36870  0.82539  Biso   1.000  H
  H299     1.0000 0.20895  0.43082  0.85988  Biso   1.000  H
  H300     1.0000 0.12628  0.36870  0.82539  Biso   1.000  H
  H301     1.0000 0.30041  0.64560  0.71917  Biso   1.000  H
  H302     1.0000 0.30903  0.58706  0.79982  Biso   1.000  H
  H303     1.0000 0.30048  0.64560  0.71917  Biso   1.000  H
  C325     1.0000 0.72791  0.40259  0.25577  Biso   1.000  C
  H304     1.0000 0.69102  0.41288  0.20019  Biso   1.000  H
  N220     1.0000 0.71903  0.47468  0.30994  Biso   1.000  N
  H305     1.0000 0.69956  0.35440  0.28077  Biso   1.000  H
  N221     1.0000 0.82547  0.38219  0.24353  Biso   1.000  N
  H306     1.0000 0.69963  0.35440  0.28077  Biso   1.000  H
  N222     1.0000 0.82554  0.38219  0.24353  Biso   1.000  N
  C326     1.0000 0.70327  0.55889  0.27975  Biso   1.000  C
  C327     1.0000 0.70358  0.46552  0.39398  Biso   1.000  C
  C328     1.0000 0.70365  0.46552  0.39398  Biso   1.000  C
  C329     1.0000 0.87850  0.42549  0.18449  Biso   1.000  C
  C330     1.0000 0.87724  0.32064  0.28795  Biso   1.000  C
  C331     1.0000 0.67560  0.60714  0.35789  Biso   1.000  C
  N223     1.0000 0.78803  0.60275  0.26052  Biso   1.000  N
  H307     1.0000 0.65158  0.56140  0.23141  Biso   1.000  H
  H308     1.0000 0.65165  0.56140  0.23141  Biso   1.000  H
  N224     1.0000 0.68430  0.54383  0.42488  Biso   1.000  N
  O101     1.0000 0.70529  0.40114  0.43411  Biso   1.000  O
  N225     1.0000 0.68437  0.54383  0.42488  Biso   1.000  N
  O102     1.0000 0.70536  0.40114  0.43411  Biso   1.000  O
  C332     1.0000 0.97641  0.37993  0.19468  Biso   1.000  C
  H309     1.0000 0.84612  0.42078  0.12558  Biso   1.000  H
  N226     1.0000 0.90474  0.51170  0.20526  Biso   1.000  N
  N227     1.0000 0.90481  0.51170  0.20526  Biso   1.000  N
  N228     1.0000 0.96742  0.32083  0.26378  Biso   1.000  N
  O103     1.0000 0.84761  0.27157  0.33795  Biso   1.000  O
  O104     1.0000 0.84768  0.27157  0.33795  Biso   1.000  O
  H310     1.0000 0.60993  0.62916  0.34693  Biso   1.000  H
  N229     1.0000 0.74527  0.67372  0.37039  Biso   1.000  N
  N230     1.0000 0.74535  0.67372  0.37039  Biso   1.000  N
  C333     1.0000 0.83811  0.58242  0.18917  Biso   1.000  C
  C334     1.0000 0.80951  0.67177  0.31180  Biso   1.000  C
  C335     1.0000 0.64308  0.55349  0.50366  Biso   1.000  C
  C336     1.0000 0.64316  0.55349  0.50366  Biso   1.000  C
  H311     1.0000 0.98740  0.35107  0.14180  Biso   1.000  H
  N231     1.0000 0.04537  0.44670  0.21603  Biso   1.000  N
  N232     1.0000 0.04545  0.44670  0.21603  Biso   1.000  N
  C337     1.0000 0.00258  0.52306  0.21545  Biso   1.000  C
  C338     1.0000 0.00265  0.52306  0.21545  Biso   1.000  C
  C339     1.0000 0.03789  0.25595  0.29154  Biso   1.000  C
  C340     1.0000 0.03796  0.25595  0.29154  Biso   1.000  C
  C341     1.0000 0.74789  0.73747  0.43629  Biso   1.000  C
  C342     1.0000 0.74796  0.73747  0.43629  Biso   1.000  C
  H312     1.0000 0.79110  0.56918  0.14013  Biso   1.000  H
  H313     1.0000 0.87377  0.63130  0.17462  Biso   1.000  H
  H314     1.0000 0.87384  0.63130  0.17462  Biso   1.000  H
  O105     1.0000 0.87361  0.72247  0.30520  Biso   1.000  O
  H315     1.0000 0.58776  0.59058  0.49360  Biso   1.000  H
  H316     1.0000 0.62027  0.49928  0.52058  Biso   1.000  H
  N233     1.0000 0.70922  0.58656  0.57219  Biso   1.000  N
  H317     1.0000 0.58783  0.59058  0.49360  Biso   1.000  H
  H318     1.0000 0.62034  0.49928  0.52058  Biso   1.000  H
  N234     1.0000 0.70929  0.58656  0.57219  Biso   1.000  N
  C343     1.0000 0.14784  0.43553  0.22173  Biso   1.000  C
  O106     1.0000 0.04326  0.59127  0.22257  Biso   1.000  O
  H319     1.0000 0.06494  0.23518  0.24193  Biso   1.000  H
  H320     1.0000 0.00513  0.20951  0.31520  Biso   1.000  H
  N235     1.0000 0.11561  0.28374  0.35475  Biso   1.000  N
  H321     1.0000 0.68273  0.75679  0.43911  Biso   1.000  H
  H322     1.0000 0.78482  0.78490  0.41968  Biso   1.000  H
  N236     1.0000 0.78958  0.70979  0.52180  Biso   1.000  N
  C344     1.0000 0.75212  0.53881  0.63911  Biso   1.000  C
  C345     1.0000 0.73059  0.67497  0.58308  Biso   1.000  C
  C346     1.0000 0.73067  0.67497  0.58308  Biso   1.000  C
  H323     1.0000 0.17659  0.48792  0.20680  Biso   1.000  H
  H324     1.0000 0.16118  0.39380  0.18000  Biso   1.000  H
  N237     1.0000 0.19308  0.40936  0.30609  Biso   1.000  N
  H325     1.0000 0.17666  0.48792  0.20680  Biso   1.000  H
  H326     1.0000 0.16125  0.39380  0.18000  Biso   1.000  H
  C347     1.0000 0.20194  0.32239  0.33161  Biso   1.000  C
  C348     1.0000 0.12561  0.25971  0.43802  Biso   1.000  C
  C349     1.0000 0.87444  0.74029  0.56199  Biso   1.000  C
  O107     1.0000 0.74099  0.46389  0.64751  Biso   1.000  O
  N238     1.0000 0.80697  0.59064  0.69392  Biso   1.000  N
  H327     1.0000 0.67212  0.70816  0.58571  Biso   1.000  H
  C350     1.0000 0.79811  0.67754  0.66840  Biso   1.000  C
  C351     1.0000 0.24793  0.46119  0.36090  Biso   1.000  C
  C352     1.0000 0.26938  0.32497  0.41693  Biso   1.000  C
  H328     1.0000 0.22968  0.28882  0.28872  Biso   1.000  H
  C353     1.0000 0.26946  0.32497  0.41693  Biso   1.000  C
  H329     1.0000 0.22975  0.28882  0.28872  Biso   1.000  H
  N239     1.0000 0.21047  0.29021  0.47821  Biso   1.000  N
  O108     1.0000 0.06886  0.21660  0.47199  Biso   1.000  O
  O109     1.0000 0.93119  0.78340  0.52802  Biso   1.000  O
  N240     1.0000 0.88444  0.71626  0.64526  Biso   1.000  N
  C354     1.0000 0.85221  0.56447  0.77828  Biso   1.000  C
  H330     1.0000 0.77030  0.71118  0.71129  Biso   1.000  H
  H331     1.0000 0.77037  0.71118  0.71129  Biso   1.000  H
  N241     1.0000 0.29076  0.41344  0.42783  Biso   1.000  N
  O110     1.0000 0.25906  0.53611  0.35250  Biso   1.000  O
  H332     1.0000 0.32793  0.29177  0.41430  Biso   1.000  H
  C355     1.0000 0.25209  0.26253  0.56372  Biso   1.000  C
  C356     1.0000 0.25216  0.26253  0.56372  Biso   1.000  C
  C357     1.0000 0.96208  0.74405  0.70841  Biso   1.000  C
  C358     1.0000 0.96215  0.74405  0.70841  Biso   1.000  C
  H333     1.0000 0.82339  0.51208  0.79321  Biso   1.000  H
  H334     1.0000 0.83880  0.60620  0.82001  Biso   1.000  H
  N242     1.0000 0.95461  0.55330  0.78398  Biso   1.000  N
  H335     1.0000 0.82346  0.51208  0.79321  Biso   1.000  H
  H336     1.0000 0.83887  0.60620  0.82001  Biso   1.000  H
  N243     1.0000 0.95468  0.55330  0.78398  Biso   1.000  N
  C359     1.0000 0.35689  0.44651  0.49635  Biso   1.000  C
  C360     1.0000 0.35697  0.44651  0.49635  Biso   1.000  C
  H337     1.0000 0.31732  0.24321  0.56090  Biso   1.000  H
  H338     1.0000 0.21523  0.21510  0.58033  Biso   1.000  H
  N244     1.0000 0.25470  0.32628  0.62962  Biso   1.000  N
  N245     1.0000 0.25478  0.32628  0.62962  Biso   1.000  N
  H339     1.0000 0.93511  0.76476  0.75809  Biso   1.000  H
  H340     1.0000 0.99492  0.79049  0.68482  Biso   1.000  H
  N246     1.0000 0.03263  0.67917  0.73623  Biso   1.000  N
  C361     1.0000 0.99740  0.47694  0.78456  Biso   1.000  C
  C362     1.0000 0.99747  0.47694  0.78456  Biso   1.000  C
  C363     1.0000 0.02364  0.62000  0.80533  Biso   1.000  C
  H341     1.0000 0.41222  0.40936  0.50642  Biso   1.000  H
  H342     1.0000 0.37971  0.50072  0.47943  Biso   1.000  H
  N247     1.0000 0.31568  0.45617  0.57513  Biso   1.000  N
  H343     1.0000 0.37978  0.50072  0.47943  Biso   1.000  H
  N248     1.0000 0.31575  0.45617  0.57513  Biso   1.000  N
  C364     1.0000 0.32445  0.39286  0.64212  Biso   1.000  C
  C365     1.0000 0.19054  0.32817  0.68821  Biso   1.000  C
  C366     1.0000 0.12281  0.67936  0.71206  Biso   1.000  C
  O111     1.0000 0.95679  0.40867  0.77744  Biso   1.000  O
  N249     1.0000 0.09524  0.48823  0.79475  Biso   1.000  N
  N250     1.0000 0.09531  0.48823  0.79475  Biso   1.000  N
  H344     1.0000 0.01265  0.64887  0.85821  Biso   1.000  H
  C367     1.0000 0.12155  0.57451  0.81552  Biso   1.000  C
  C368     1.0000 0.29640  0.53442  0.60603  Biso   1.000  C
  C369     1.0000 0.29647  0.53442  0.60603  Biso   1.000  C
  C370     1.0000 0.29678  0.44111  0.72026  Biso   1.000  C
  H345     1.0000 0.39012  0.37077  0.65308  Biso   1.000  H
  N251     1.0000 0.21202  0.39725  0.73950  Biso   1.000  N
  O112     1.0000 0.12644  0.27747  0.69482  Biso   1.000  O
  N252     1.0000 0.17451  0.61781  0.75648  Biso   1.000  N
  O113     1.0000 0.15237  0.72843  0.66206  Biso   1.000  O
  N253     1.0000 0.17458  0.61781  0.75648  Biso   1.000  N
  O114     1.0000 0.15244  0.72843  0.66206  Biso   1.000  O
  C371     1.0000 0.16194  0.41758  0.81084  Biso   1.000  C
  H346     1.0000 0.15393  0.57922  0.87443  Biso   1.000  H
  N254     1.0000 0.28102  0.52532  0.69007  Biso   1.000  N
  O115     1.0000 0.29469  0.59886  0.56590  Biso   1.000  O
  O116     1.0000 0.29476  0.59886  0.56590  Biso   1.000  O
  H347     1.0000 0.34840  0.43860  0.76860  Biso   1.000  H
  H348     1.0000 0.34848  0.43860  0.76860  Biso   1.000  H
  C372     1.0000 0.27214  0.59741  0.74424  Biso   1.000  C
  H349     1.0000 0.12621  0.36870  0.82539  Biso   1.000  H
  H350     1.0000 0.20895  0.43082  0.85988  Biso   1.000  H
  H351     1.0000 0.12628  0.36870  0.82539  Biso   1.000  H
  H352     1.0000 0.30041  0.64560  0.71917  Biso   1.000  H
  H353     1.0000 0.30903  0.58706  0.79982  Biso   1.000  H
  H354     1.0000 0.30048  0.64560  0.71917  Biso   1.000  H
