data_image0
_cell_length_a       14.83
_cell_length_b       19.032
_cell_length_c       12.588
_cell_angle_alpha    90
_cell_angle_beta     94.62
_cell_angle_gamma    90

_symmetry_space_group_name_H-M    "P 1"
_symmetry_int_tables_number       1

loop_
  _symmetry_equiv_pos_as_xyz
  'x, y, z'

loop_
  _atom_site_label
  _atom_site_occupancy
  _atom_site_fract_x
  _atom_site_fract_y
  _atom_site_fract_z
  _atom_site_thermal_displace_type
  _atom_site_B_iso_or_equiv
  _atom_site_type_symbol
  C1       1.0000 0.81928  0.82388  0.55033  Biso   1.000  C
  N1       1.0000 0.89083  0.78252  0.52666  Biso   1.000  N
  N2       1.0000 0.82231  0.83265  0.65776  Biso   1.000  N
  O1       1.0000 0.76079  0.84610  0.48577  Biso   1.000  O
  O2       1.0000 0.76079  0.84605  0.48577  Biso   1.000  O
  O3       1.0000 0.76086  0.84610  0.48577  Biso   1.000  O
  O4       1.0000 0.76086  0.84605  0.48577  Biso   1.000  O
  C2       1.0000 0.89609  0.75200  0.42217  Biso   1.000  C
  C3       1.0000 0.89616  0.75200  0.42217  Biso   1.000  C
  C4       1.0000 0.93979  0.75673  0.61943  Biso   1.000  C
  C5       1.0000 0.81922  0.82388  0.55033  Biso   1.000  C
  C6       1.0000 0.81922  0.82382  0.55033  Biso   1.000  C
  C7       1.0000 0.93986  0.75673  0.61943  Biso   1.000  C
  C8       1.0000 0.81928  0.82382  0.55033  Biso   1.000  C
  C9       1.0000 0.89344  0.79151  0.71275  Biso   1.000  C
  C10      1.0000 0.75566  0.87169  0.70757  Biso   1.000  C
  C11      1.0000 0.75566  0.87164  0.70757  Biso   1.000  C
  C12      1.0000 0.75573  0.87169  0.70757  Biso   1.000  C
  C13      1.0000 0.75573  0.87164  0.70757  Biso   1.000  C
  H1       1.0000 0.83908  0.75983  0.38033  Biso   1.000  H
  H2       1.0000 0.90449  0.70171  0.42966  Biso   1.000  H
  N3       1.0000 0.96829  0.78047  0.36558  Biso   1.000  N
  H3       1.0000 0.83908  0.75977  0.38033  Biso   1.000  H
  H4       1.0000 0.90449  0.70166  0.42966  Biso   1.000  H
  N4       1.0000 0.96829  0.78042  0.36558  Biso   1.000  N
  H5       1.0000 0.83915  0.75983  0.38033  Biso   1.000  H
  H6       1.0000 0.90456  0.70171  0.42966  Biso   1.000  H
  H7       1.0000 0.83915  0.75977  0.38033  Biso   1.000  H
  H8       1.0000 0.90456  0.70166  0.42966  Biso   1.000  H
  H9       1.0000 0.93633  0.70539  0.62309  Biso   1.000  H
  N5       1.0000 0.03171  0.78047  0.63441  Biso   1.000  N
  N6       1.0000 0.03171  0.78042  0.63441  Biso   1.000  N
  N7       1.0000 0.03178  0.78047  0.63441  Biso   1.000  N
  N8       1.0000 0.03178  0.78042  0.63441  Biso   1.000  N
  C14      1.0000 0.85360  0.73760  0.78401  Biso   1.000  C
  N9       1.0000 0.96659  0.83365  0.76297  Biso   1.000  N
  N10      1.0000 0.96659  0.83360  0.76297  Biso   1.000  N
  C15      1.0000 0.85367  0.73760  0.78401  Biso   1.000  C
  N11      1.0000 0.96666  0.83365  0.76297  Biso   1.000  N
  N12      1.0000 0.96666  0.83360  0.76297  Biso   1.000  N
  H10      1.0000 0.70219  0.87589  0.65832  Biso   1.000  H
  H11      1.0000 0.73885  0.84589  0.76942  Biso   1.000  H
  N13      1.0000 0.78561  0.94189  0.74121  Biso   1.000  N
  N14      1.0000 0.78561  0.94183  0.74121  Biso   1.000  N
  H12      1.0000 0.70226  0.87589  0.65832  Biso   1.000  H
  C16      1.0000 0.95338  0.82424  0.27871  Biso   1.000  C
  C17      1.0000 0.95338  0.82419  0.27871  Biso   1.000  C
  C18      1.0000 0.95345  0.82424  0.27871  Biso   1.000  C
  C19      1.0000 0.95345  0.82419  0.27871  Biso   1.000  C
  C20      1.0000 0.06021  0.75673  0.38057  Biso   1.000  C
  C21      1.0000 0.06027  0.75673  0.38057  Biso   1.000  C
  C22      1.0000 0.10390  0.75200  0.57782  Biso   1.000  C
  C23      1.0000 0.10397  0.75200  0.57782  Biso   1.000  C
  C24      1.0000 0.04662  0.82424  0.72128  Biso   1.000  C
  C25      1.0000 0.04662  0.82419  0.72128  Biso   1.000  C
  H13      1.0000 0.90149  0.71038  0.81971  Biso   1.000  H
  H14      1.0000 0.82033  0.76109  0.83589  Biso   1.000  H
  H15      1.0000 0.81382  0.70712  0.74161  Biso   1.000  H
  H16      1.0000 0.81382  0.70707  0.74161  Biso   1.000  H
  H17      1.0000 0.90156  0.71038  0.81971  Biso   1.000  H
  C26      1.0000 0.96136  0.87179  0.86291  Biso   1.000  C
  C27      1.0000 0.96136  0.87174  0.86291  Biso   1.000  C
  C28      1.0000 0.83148  0.95980  0.84211  Biso   1.000  C
  C29      1.0000 0.83148  0.95975  0.84211  Biso   1.000  C
  C30      1.0000 0.75573  0.00000  0.68398  Biso   1.000  C
  O5       1.0000 0.88066  0.84663  0.24579  Biso   1.000  O
  O6       1.0000 0.88066  0.84657  0.24579  Biso   1.000  O
  O7       1.0000 0.88073  0.84663  0.24579  Biso   1.000  O
  O8       1.0000 0.88073  0.84657  0.24579  Biso   1.000  O
  N15      1.0000 0.03340  0.83365  0.23703  Biso   1.000  N
  N16      1.0000 0.03340  0.83360  0.23703  Biso   1.000  N
  N17      1.0000 0.03347  0.83365  0.23703  Biso   1.000  N
  N18      1.0000 0.03347  0.83360  0.23703  Biso   1.000  N
  H18      1.0000 0.06373  0.70539  0.37690  Biso   1.000  H
  C31      1.0000 0.10662  0.79151  0.28716  Biso   1.000  C
  N19      1.0000 0.10923  0.78252  0.47326  Biso   1.000  N
  H19      1.0000 0.16091  0.75983  0.61967  Biso   1.000  H
  H20      1.0000 0.09550  0.70171  0.57033  Biso   1.000  H
  H21      1.0000 0.16091  0.75977  0.61967  Biso   1.000  H
  H22      1.0000 0.09550  0.70166  0.57033  Biso   1.000  H
  H23      1.0000 0.16098  0.75983  0.61967  Biso   1.000  H
  H24      1.0000 0.09557  0.70171  0.57033  Biso   1.000  H
  H25      1.0000 0.16098  0.75977  0.61967  Biso   1.000  H
  H26      1.0000 0.09557  0.70166  0.57033  Biso   1.000  H
  O9       1.0000 0.11933  0.84663  0.75420  Biso   1.000  O
  O10      1.0000 0.11933  0.84657  0.75420  Biso   1.000  O
  H27      1.0000 0.92315  0.84552  0.90770  Biso   1.000  H
  N20      1.0000 0.92655  0.94210  0.85095  Biso   1.000  N
  H28      1.0000 0.92315  0.84547  0.90770  Biso   1.000  H
  N21      1.0000 0.92662  0.94210  0.85095  Biso   1.000  N
  H29      1.0000 0.02131  0.87390  0.89949  Biso   1.000  H
  H30      1.0000 0.02138  0.87390  0.89949  Biso   1.000  H
  C32      1.0000 0.78330  0.92618  0.93440  Biso   1.000  C
  C33      1.0000 0.78337  0.92618  0.93440  Biso   1.000  C
  C34      1.0000 0.83148  0.04020  0.84211  Biso   1.000  C
  N22      1.0000 0.78561  0.05811  0.74121  Biso   1.000  N
  O11      1.0000 0.70964  0.00000  0.60253  Biso   1.000  O
  N23      1.0000 0.78561  0.05817  0.74121  Biso   1.000  N
  C35      1.0000 0.03870  0.87179  0.13708  Biso   1.000  C
  C36      1.0000 0.03870  0.87174  0.13708  Biso   1.000  C
  C37      1.0000 0.14639  0.73760  0.21599  Biso   1.000  C
  N24      1.0000 0.17775  0.83265  0.34223  Biso   1.000  N
  C38      1.0000 0.14646  0.73760  0.21599  Biso   1.000  C
  C39      1.0000 0.18078  0.82388  0.44967  Biso   1.000  C
  C40      1.0000 0.18078  0.82382  0.44967  Biso   1.000  C
  C41      1.0000 0.18084  0.82388  0.44967  Biso   1.000  C
  C42      1.0000 0.18084  0.82382  0.44967  Biso   1.000  C
  C43      1.0000 0.98033  0.00000  0.85940  Biso   1.000  C
  H31      1.0000 0.72031  0.93852  0.92731  Biso   1.000  H
  H32      1.0000 0.78939  0.87600  0.93169  Biso   1.000  H
  H33      1.0000 0.72031  0.93847  0.92731  Biso   1.000  H
  H34      1.0000 0.72038  0.93852  0.92731  Biso   1.000  H
  H35      1.0000 0.78946  0.87600  0.93169  Biso   1.000  H
  H36      1.0000 0.72038  0.93847  0.92731  Biso   1.000  H
  H37      1.0000 0.81033  0.94331  0.00127  Biso   1.000  H
  H38      1.0000 0.81033  0.94325  0.00127  Biso   1.000  H
  H39      1.0000 0.81026  0.94331  0.00127  Biso   1.000  H
  H40      1.0000 0.81026  0.94325  0.00127  Biso   1.000  H
  N25      1.0000 0.92655  0.05790  0.85095  Biso   1.000  N
  N26      1.0000 0.92655  0.05785  0.85095  Biso   1.000  N
  N27      1.0000 0.92662  0.05790  0.85095  Biso   1.000  N
  N28      1.0000 0.92662  0.05785  0.85095  Biso   1.000  N
  C44      1.0000 0.78330  0.07382  0.93440  Biso   1.000  C
  C45      1.0000 0.78330  0.07377  0.93440  Biso   1.000  C
  C46      1.0000 0.78337  0.07382  0.93440  Biso   1.000  C
  C47      1.0000 0.78337  0.07377  0.93440  Biso   1.000  C
  C48      1.0000 0.75566  0.12831  0.70757  Biso   1.000  C
  C49      1.0000 0.75573  0.12831  0.70757  Biso   1.000  C
  H41      1.0000 0.97869  0.87390  0.10050  Biso   1.000  H
  H42      1.0000 0.97875  0.87390  0.10050  Biso   1.000  H
  H43      1.0000 0.07691  0.84552  0.09229  Biso   1.000  H
  N29      1.0000 0.07344  0.94210  0.14904  Biso   1.000  N
  H44      1.0000 0.07691  0.84547  0.09229  Biso   1.000  H
  N30      1.0000 0.07351  0.94210  0.14904  Biso   1.000  N
  H45      1.0000 0.09850  0.71038  0.18028  Biso   1.000  H
  H46      1.0000 0.17973  0.76109  0.16410  Biso   1.000  H
  H47      1.0000 0.18624  0.70712  0.25839  Biso   1.000  H
  H48      1.0000 0.18624  0.70707  0.25839  Biso   1.000  H
  C50      1.0000 0.24434  0.87169  0.29242  Biso   1.000  C
  C51      1.0000 0.24434  0.87164  0.29242  Biso   1.000  C
  C52      1.0000 0.24440  0.87169  0.29242  Biso   1.000  C
  C53      1.0000 0.24440  0.87164  0.29242  Biso   1.000  C
  O12      1.0000 0.23920  0.84610  0.51422  Biso   1.000  O
  O13      1.0000 0.23920  0.84605  0.51422  Biso   1.000  O
  O14      1.0000 0.23927  0.84610  0.51422  Biso   1.000  O
  O15      1.0000 0.23927  0.84605  0.51422  Biso   1.000  O
  O16      1.0000 0.06194  0.00000  0.87630  Biso   1.000  O
  C54      1.0000 0.96136  0.12821  0.86291  Biso   1.000  C
  H49      1.0000 0.72031  0.06148  0.92731  Biso   1.000  H
  H50      1.0000 0.78939  0.12400  0.93169  Biso   1.000  H
  H51      1.0000 0.72031  0.06153  0.92731  Biso   1.000  H
  H52      1.0000 0.78939  0.12395  0.93169  Biso   1.000  H
  H53      1.0000 0.72038  0.06148  0.92731  Biso   1.000  H
  H54      1.0000 0.78946  0.12400  0.93169  Biso   1.000  H
  H55      1.0000 0.72038  0.06153  0.92731  Biso   1.000  H
  H56      1.0000 0.78946  0.12395  0.93169  Biso   1.000  H
  H57      1.0000 0.81033  0.05669  0.00127  Biso   1.000  H
  H58      1.0000 0.81033  0.05675  0.00127  Biso   1.000  H
  H59      1.0000 0.81026  0.05669  0.00127  Biso   1.000  H
  H60      1.0000 0.81026  0.05675  0.00127  Biso   1.000  H
  H61      1.0000 0.70219  0.12411  0.65832  Biso   1.000  H
  H62      1.0000 0.73885  0.15411  0.76942  Biso   1.000  H
  N31      1.0000 0.82231  0.16735  0.65776  Biso   1.000  N
  H63      1.0000 0.70219  0.12405  0.65832  Biso   1.000  H
  H64      1.0000 0.73885  0.15406  0.76942  Biso   1.000  H
  H65      1.0000 0.70226  0.12411  0.65832  Biso   1.000  H
  H66      1.0000 0.70226  0.12405  0.65832  Biso   1.000  H
  C55      1.0000 0.16858  0.95980  0.15789  Biso   1.000  C
  C56      1.0000 0.16858  0.95975  0.15789  Biso   1.000  C
  C57      1.0000 0.01973  0.00000  0.14059  Biso   1.000  C
  H67      1.0000 0.29780  0.87589  0.34167  Biso   1.000  H
  H68      1.0000 0.26121  0.84589  0.23057  Biso   1.000  H
  N32      1.0000 0.21446  0.94189  0.25878  Biso   1.000  N
  N33      1.0000 0.21446  0.94183  0.25878  Biso   1.000  N
  H69      1.0000 0.29787  0.87589  0.34167  Biso   1.000  H
  H70      1.0000 0.92315  0.15448  0.90770  Biso   1.000  H
  N34      1.0000 0.96659  0.16635  0.76297  Biso   1.000  N
  H71      1.0000 0.92315  0.15453  0.90770  Biso   1.000  H
  N35      1.0000 0.96666  0.16635  0.76297  Biso   1.000  N
  H72      1.0000 0.02131  0.12610  0.89949  Biso   1.000  H
  H73      1.0000 0.02131  0.12605  0.89949  Biso   1.000  H
  H74      1.0000 0.02138  0.12610  0.89949  Biso   1.000  H
  H75      1.0000 0.02138  0.12605  0.89949  Biso   1.000  H
  C58      1.0000 0.89344  0.20849  0.71275  Biso   1.000  C
  C59      1.0000 0.81922  0.17612  0.55033  Biso   1.000  C
  C60      1.0000 0.89344  0.20844  0.71275  Biso   1.000  C
  C61      1.0000 0.81922  0.17618  0.55033  Biso   1.000  C
  C62      1.0000 0.81928  0.17612  0.55033  Biso   1.000  C
  C63      1.0000 0.81928  0.17618  0.55033  Biso   1.000  C
  C64      1.0000 0.21669  0.92618  0.06559  Biso   1.000  C
  C65      1.0000 0.21676  0.92618  0.06559  Biso   1.000  C
  C66      1.0000 0.16858  0.04020  0.15789  Biso   1.000  C
  O17      1.0000 0.93813  0.00000  0.12369  Biso   1.000  O
  N36      1.0000 0.07344  0.05790  0.14904  Biso   1.000  N
  N37      1.0000 0.07344  0.05785  0.14904  Biso   1.000  N
  N38      1.0000 0.07351  0.05790  0.14904  Biso   1.000  N
  N39      1.0000 0.07351  0.05785  0.14904  Biso   1.000  N
  C67      1.0000 0.24433  0.00000  0.31601  Biso   1.000  C
  C68      1.0000 0.04662  0.17576  0.72128  Biso   1.000  C
  C69      1.0000 0.93979  0.24327  0.61943  Biso   1.000  C
  C70      1.0000 0.85360  0.26240  0.78401  Biso   1.000  C
  C71      1.0000 0.85360  0.26235  0.78401  Biso   1.000  C
  C72      1.0000 0.93986  0.24327  0.61943  Biso   1.000  C
  C73      1.0000 0.85367  0.26240  0.78401  Biso   1.000  C
  C74      1.0000 0.85367  0.26235  0.78401  Biso   1.000  C
  N40      1.0000 0.89083  0.21748  0.52666  Biso   1.000  N
  O18      1.0000 0.76079  0.15390  0.48577  Biso   1.000  O
  O19      1.0000 0.76086  0.15390  0.48577  Biso   1.000  O
  H76      1.0000 0.18980  0.94331  0.99872  Biso   1.000  H
  H77      1.0000 0.18980  0.94325  0.99872  Biso   1.000  H
  H78      1.0000 0.18973  0.94331  0.99872  Biso   1.000  H
  H79      1.0000 0.18973  0.94325  0.99872  Biso   1.000  H
  H80      1.0000 0.27968  0.93852  0.07269  Biso   1.000  H
  H81      1.0000 0.21060  0.87600  0.06830  Biso   1.000  H
  H82      1.0000 0.27968  0.93847  0.07269  Biso   1.000  H
  H83      1.0000 0.27975  0.93852  0.07269  Biso   1.000  H
  H84      1.0000 0.27975  0.93847  0.07269  Biso   1.000  H
  N41      1.0000 0.21446  0.05811  0.25878  Biso   1.000  N
  C75      1.0000 0.21669  0.07382  0.06559  Biso   1.000  C
  N42      1.0000 0.21446  0.05817  0.25878  Biso   1.000  N
  C76      1.0000 0.21669  0.07377  0.06559  Biso   1.000  C
  C77      1.0000 0.21676  0.07382  0.06559  Biso   1.000  C
  C78      1.0000 0.21676  0.07377  0.06559  Biso   1.000  C
  C79      1.0000 0.03870  0.12821  0.13708  Biso   1.000  C
  O20      1.0000 0.29042  0.00000  0.39746  Biso   1.000  O
  N43      1.0000 0.03171  0.21953  0.63441  Biso   1.000  N
  O21      1.0000 0.11933  0.15337  0.75420  Biso   1.000  O
  N44      1.0000 0.03171  0.21958  0.63441  Biso   1.000  N
  O22      1.0000 0.11933  0.15343  0.75420  Biso   1.000  O
  N45      1.0000 0.03178  0.21953  0.63441  Biso   1.000  N
  N46      1.0000 0.03178  0.21958  0.63441  Biso   1.000  N
  H85      1.0000 0.93633  0.29461  0.62309  Biso   1.000  H
  H86      1.0000 0.93633  0.29456  0.62309  Biso   1.000  H
  H87      1.0000 0.90149  0.28962  0.81971  Biso   1.000  H
  H88      1.0000 0.82033  0.23891  0.83589  Biso   1.000  H
  H89      1.0000 0.81382  0.29288  0.74161  Biso   1.000  H
  H90      1.0000 0.90149  0.28956  0.81971  Biso   1.000  H
  H91      1.0000 0.82033  0.23886  0.83589  Biso   1.000  H
  H92      1.0000 0.90156  0.28962  0.81971  Biso   1.000  H
  H93      1.0000 0.90156  0.28956  0.81971  Biso   1.000  H
  C80      1.0000 0.89609  0.24800  0.42217  Biso   1.000  C
  C81      1.0000 0.89616  0.24800  0.42217  Biso   1.000  C
  C82      1.0000 0.24434  0.12831  0.29242  Biso   1.000  C
  C83      1.0000 0.24440  0.12831  0.29242  Biso   1.000  C
  H94      1.0000 0.18980  0.05669  0.99872  Biso   1.000  H
  H95      1.0000 0.18980  0.05675  0.99872  Biso   1.000  H
  H96      1.0000 0.18973  0.05669  0.99872  Biso   1.000  H
  H97      1.0000 0.18973  0.05675  0.99872  Biso   1.000  H
  H98      1.0000 0.27968  0.06148  0.07269  Biso   1.000  H
  H99      1.0000 0.21060  0.12400  0.06830  Biso   1.000  H
  H100     1.0000 0.27968  0.06153  0.07269  Biso   1.000  H
  H101     1.0000 0.21060  0.12395  0.06830  Biso   1.000  H
  H102     1.0000 0.27975  0.06148  0.07269  Biso   1.000  H
  H103     1.0000 0.27975  0.06153  0.07269  Biso   1.000  H
  H104     1.0000 0.97869  0.12610  0.10050  Biso   1.000  H
  H105     1.0000 0.97869  0.12605  0.10050  Biso   1.000  H
  H106     1.0000 0.97875  0.12610  0.10050  Biso   1.000  H
  H107     1.0000 0.97875  0.12605  0.10050  Biso   1.000  H
  H108     1.0000 0.07691  0.15448  0.09229  Biso   1.000  H
  N47      1.0000 0.03340  0.16635  0.23703  Biso   1.000  N
  H109     1.0000 0.07691  0.15453  0.09229  Biso   1.000  H
  N48      1.0000 0.03347  0.16635  0.23703  Biso   1.000  N
  C84      1.0000 0.10390  0.24800  0.57782  Biso   1.000  C
  C85      1.0000 0.10397  0.24800  0.57782  Biso   1.000  C
  N49      1.0000 0.96829  0.21953  0.36558  Biso   1.000  N
  N50      1.0000 0.96829  0.21958  0.36558  Biso   1.000  N
  H110     1.0000 0.83908  0.24017  0.38033  Biso   1.000  H
  H111     1.0000 0.90449  0.29829  0.42966  Biso   1.000  H
  H112     1.0000 0.83915  0.24017  0.38033  Biso   1.000  H
  H113     1.0000 0.90456  0.29829  0.42966  Biso   1.000  H
  H114     1.0000 0.29780  0.12411  0.34167  Biso   1.000  H
  H115     1.0000 0.26121  0.15411  0.23057  Biso   1.000  H
  N51      1.0000 0.17775  0.16735  0.34223  Biso   1.000  N
  H116     1.0000 0.29780  0.12405  0.34167  Biso   1.000  H
  H117     1.0000 0.26121  0.15406  0.23057  Biso   1.000  H
  H118     1.0000 0.29787  0.12411  0.34167  Biso   1.000  H
  H119     1.0000 0.29787  0.12405  0.34167  Biso   1.000  H
  C86      1.0000 0.95338  0.17576  0.27871  Biso   1.000  C
  C87      1.0000 0.95345  0.17576  0.27871  Biso   1.000  C
  C88      1.0000 0.10662  0.20849  0.28716  Biso   1.000  C
  C89      1.0000 0.10662  0.20844  0.28716  Biso   1.000  C
  N52      1.0000 0.10923  0.21748  0.47326  Biso   1.000  N
  H120     1.0000 0.16091  0.24017  0.61967  Biso   1.000  H
  H121     1.0000 0.09550  0.29829  0.57033  Biso   1.000  H
  H122     1.0000 0.16098  0.24017  0.61967  Biso   1.000  H
  H123     1.0000 0.09557  0.29829  0.57033  Biso   1.000  H
  C90      1.0000 0.06021  0.24327  0.38057  Biso   1.000  C
  C91      1.0000 0.06027  0.24327  0.38057  Biso   1.000  C
  C92      1.0000 0.18078  0.17612  0.44967  Biso   1.000  C
  C93      1.0000 0.18078  0.17618  0.44967  Biso   1.000  C
  C94      1.0000 0.18084  0.17612  0.44967  Biso   1.000  C
  C95      1.0000 0.18084  0.17618  0.44967  Biso   1.000  C
  O23      1.0000 0.88066  0.15337  0.24579  Biso   1.000  O
  O24      1.0000 0.88066  0.15343  0.24579  Biso   1.000  O
  O25      1.0000 0.88073  0.15337  0.24579  Biso   1.000  O
  O26      1.0000 0.88073  0.15343  0.24579  Biso   1.000  O
  C96      1.0000 0.14639  0.26240  0.21599  Biso   1.000  C
  C97      1.0000 0.14639  0.26235  0.21599  Biso   1.000  C
  C98      1.0000 0.14646  0.26240  0.21599  Biso   1.000  C
  C99      1.0000 0.14646  0.26235  0.21599  Biso   1.000  C
  H124     1.0000 0.06373  0.29461  0.37690  Biso   1.000  H
  H125     1.0000 0.06373  0.29456  0.37690  Biso   1.000  H
  O27      1.0000 0.23920  0.15390  0.51422  Biso   1.000  O
  O28      1.0000 0.23927  0.15390  0.51422  Biso   1.000  O
  H126     1.0000 0.09850  0.28962  0.18028  Biso   1.000  H
  H127     1.0000 0.17973  0.23891  0.16410  Biso   1.000  H
  H128     1.0000 0.18624  0.29288  0.25839  Biso   1.000  H
  H129     1.0000 0.09850  0.28956  0.18028  Biso   1.000  H
  H130     1.0000 0.17973  0.23886  0.16410  Biso   1.000  H
  C100     1.0000 0.81928  0.82388  0.55033  Biso   1.000  C
  N53      1.0000 0.89083  0.78252  0.52666  Biso   1.000  N
  N54      1.0000 0.82231  0.83265  0.65776  Biso   1.000  N
  O29      1.0000 0.76079  0.84610  0.48577  Biso   1.000  O
  O30      1.0000 0.76079  0.84605  0.48577  Biso   1.000  O
  O31      1.0000 0.76086  0.84610  0.48577  Biso   1.000  O
  O32      1.0000 0.76086  0.84605  0.48577  Biso   1.000  O
  C101     1.0000 0.89609  0.75200  0.42217  Biso   1.000  C
  C102     1.0000 0.93979  0.75673  0.61943  Biso   1.000  C
  C103     1.0000 0.89616  0.75200  0.42217  Biso   1.000  C
  C104     1.0000 0.93986  0.75673  0.61943  Biso   1.000  C
  C105     1.0000 0.81922  0.82388  0.55033  Biso   1.000  C
  C106     1.0000 0.81922  0.82382  0.55033  Biso   1.000  C
  C107     1.0000 0.81928  0.82382  0.55033  Biso   1.000  C
  C108     1.0000 0.89344  0.79151  0.71275  Biso   1.000  C
  C109     1.0000 0.75566  0.87169  0.70757  Biso   1.000  C
  C110     1.0000 0.75566  0.87164  0.70757  Biso   1.000  C
  C111     1.0000 0.75573  0.87169  0.70757  Biso   1.000  C
  C112     1.0000 0.75573  0.87164  0.70757  Biso   1.000  C
  N55      1.0000 0.96829  0.78047  0.36558  Biso   1.000  N
  N56      1.0000 0.96829  0.78042  0.36558  Biso   1.000  N
  H131     1.0000 0.83908  0.75983  0.38033  Biso   1.000  H
  H132     1.0000 0.90449  0.70171  0.42966  Biso   1.000  H
  H133     1.0000 0.83908  0.75977  0.38033  Biso   1.000  H
  H134     1.0000 0.90449  0.70166  0.42966  Biso   1.000  H
  H135     1.0000 0.83915  0.75983  0.38033  Biso   1.000  H
  H136     1.0000 0.90456  0.70171  0.42966  Biso   1.000  H
  H137     1.0000 0.83915  0.75977  0.38033  Biso   1.000  H
  H138     1.0000 0.90456  0.70166  0.42966  Biso   1.000  H
  H139     1.0000 0.93633  0.70539  0.62309  Biso   1.000  H
  N57      1.0000 0.03171  0.78047  0.63441  Biso   1.000  N
  N58      1.0000 0.03171  0.78042  0.63441  Biso   1.000  N
  N59      1.0000 0.03178  0.78047  0.63441  Biso   1.000  N
  N60      1.0000 0.03178  0.78042  0.63441  Biso   1.000  N
  C113     1.0000 0.85360  0.73760  0.78401  Biso   1.000  C
  C114     1.0000 0.85367  0.73760  0.78401  Biso   1.000  C
  N61      1.0000 0.96659  0.83365  0.76297  Biso   1.000  N
  N62      1.0000 0.96659  0.83360  0.76297  Biso   1.000  N
  N63      1.0000 0.96666  0.83365  0.76297  Biso   1.000  N
  N64      1.0000 0.96666  0.83360  0.76297  Biso   1.000  N
  H140     1.0000 0.70219  0.87589  0.65832  Biso   1.000  H
  H141     1.0000 0.73885  0.84589  0.76942  Biso   1.000  H
  N65      1.0000 0.78561  0.94189  0.74121  Biso   1.000  N
  H142     1.0000 0.70226  0.87589  0.65832  Biso   1.000  H
  N66      1.0000 0.78561  0.94183  0.74121  Biso   1.000  N
  C115     1.0000 0.95338  0.82424  0.27871  Biso   1.000  C
  C116     1.0000 0.95338  0.82419  0.27871  Biso   1.000  C
  C117     1.0000 0.95345  0.82424  0.27871  Biso   1.000  C
  C118     1.0000 0.95345  0.82419  0.27871  Biso   1.000  C
  C119     1.0000 0.06021  0.75673  0.38057  Biso   1.000  C
  C120     1.0000 0.06027  0.75673  0.38057  Biso   1.000  C
  C121     1.0000 0.04662  0.82424  0.72128  Biso   1.000  C
  C122     1.0000 0.10390  0.75200  0.57782  Biso   1.000  C
  C123     1.0000 0.04662  0.82419  0.72128  Biso   1.000  C
  C124     1.0000 0.10397  0.75200  0.57782  Biso   1.000  C
  H143     1.0000 0.90149  0.71038  0.81971  Biso   1.000  H
  H144     1.0000 0.82033  0.76109  0.83589  Biso   1.000  H
  H145     1.0000 0.81382  0.70712  0.74161  Biso   1.000  H
  H146     1.0000 0.90156  0.71038  0.81971  Biso   1.000  H
  H147     1.0000 0.81382  0.70707  0.74161  Biso   1.000  H
  C125     1.0000 0.96136  0.87179  0.86291  Biso   1.000  C
  C126     1.0000 0.96136  0.87174  0.86291  Biso   1.000  C
  C127     1.0000 0.83148  0.95980  0.84211  Biso   1.000  C
  C128     1.0000 0.83148  0.95975  0.84211  Biso   1.000  C
  C129     1.0000 0.75573  0.00000  0.68398  Biso   1.000  C
  O33      1.0000 0.88066  0.84663  0.24579  Biso   1.000  O
  O34      1.0000 0.88066  0.84657  0.24579  Biso   1.000  O
  O35      1.0000 0.88073  0.84663  0.24579  Biso   1.000  O
  O36      1.0000 0.88073  0.84657  0.24579  Biso   1.000  O
  N67      1.0000 0.03340  0.83365  0.23703  Biso   1.000  N
  N68      1.0000 0.03340  0.83360  0.23703  Biso   1.000  N
  N69      1.0000 0.03347  0.83365  0.23703  Biso   1.000  N
  N70      1.0000 0.03347  0.83360  0.23703  Biso   1.000  N
  H148     1.0000 0.06373  0.70539  0.37690  Biso   1.000  H
  C130     1.0000 0.10662  0.79151  0.28716  Biso   1.000  C
  N71      1.0000 0.10923  0.78252  0.47326  Biso   1.000  N
  O37      1.0000 0.11933  0.84663  0.75420  Biso   1.000  O
  O38      1.0000 0.11933  0.84657  0.75420  Biso   1.000  O
  H149     1.0000 0.16091  0.75983  0.61967  Biso   1.000  H
  H150     1.0000 0.09550  0.70171  0.57033  Biso   1.000  H
  H151     1.0000 0.16091  0.75977  0.61967  Biso   1.000  H
  H152     1.0000 0.09550  0.70166  0.57033  Biso   1.000  H
  H153     1.0000 0.16098  0.75983  0.61967  Biso   1.000  H
  H154     1.0000 0.09557  0.70171  0.57033  Biso   1.000  H
  H155     1.0000 0.16098  0.75977  0.61967  Biso   1.000  H
  H156     1.0000 0.09557  0.70166  0.57033  Biso   1.000  H
  N72      1.0000 0.92655  0.94210  0.85095  Biso   1.000  N
  H157     1.0000 0.92315  0.84552  0.90770  Biso   1.000  H
  H158     1.0000 0.92315  0.84547  0.90770  Biso   1.000  H
  N73      1.0000 0.92662  0.94210  0.85095  Biso   1.000  N
  H159     1.0000 0.02131  0.87390  0.89949  Biso   1.000  H
  H160     1.0000 0.02138  0.87390  0.89949  Biso   1.000  H
  C131     1.0000 0.78330  0.92618  0.93440  Biso   1.000  C
  C132     1.0000 0.78337  0.92618  0.93440  Biso   1.000  C
  C133     1.0000 0.83148  0.04020  0.84211  Biso   1.000  C
  N74      1.0000 0.78561  0.05811  0.74121  Biso   1.000  N
  O39      1.0000 0.70964  0.00000  0.60253  Biso   1.000  O
  N75      1.0000 0.78561  0.05817  0.74121  Biso   1.000  N
  C134     1.0000 0.03870  0.87179  0.13708  Biso   1.000  C
  C135     1.0000 0.03870  0.87174  0.13708  Biso   1.000  C
  C136     1.0000 0.14639  0.73760  0.21599  Biso   1.000  C
  N76      1.0000 0.17775  0.83265  0.34223  Biso   1.000  N
  C137     1.0000 0.14646  0.73760  0.21599  Biso   1.000  C
  C138     1.0000 0.18078  0.82388  0.44967  Biso   1.000  C
  C139     1.0000 0.18078  0.82382  0.44967  Biso   1.000  C
  C140     1.0000 0.18084  0.82388  0.44967  Biso   1.000  C
  C141     1.0000 0.18084  0.82382  0.44967  Biso   1.000  C
  C142     1.0000 0.98033  0.00000  0.85940  Biso   1.000  C
  H161     1.0000 0.78939  0.87600  0.93169  Biso   1.000  H
  H162     1.0000 0.78946  0.87600  0.93169  Biso   1.000  H
  H163     1.0000 0.72031  0.93852  0.92731  Biso   1.000  H
  H164     1.0000 0.72031  0.93847  0.92731  Biso   1.000  H
  H165     1.0000 0.72038  0.93852  0.92731  Biso   1.000  H
  H166     1.0000 0.72038  0.93847  0.92731  Biso   1.000  H
  H167     1.0000 0.81033  0.94331  0.00127  Biso   1.000  H
  H168     1.0000 0.81033  0.94325  0.00127  Biso   1.000  H
  H169     1.0000 0.81026  0.94331  0.00127  Biso   1.000  H
  H170     1.0000 0.81026  0.94325  0.00127  Biso   1.000  H
  N77      1.0000 0.92655  0.05790  0.85095  Biso   1.000  N
  N78      1.0000 0.92655  0.05785  0.85095  Biso   1.000  N
  N79      1.0000 0.92662  0.05790  0.85095  Biso   1.000  N
  N80      1.0000 0.92662  0.05785  0.85095  Biso   1.000  N
  C143     1.0000 0.78330  0.07382  0.93440  Biso   1.000  C
  C144     1.0000 0.78330  0.07377  0.93440  Biso   1.000  C
  C145     1.0000 0.78337  0.07382  0.93440  Biso   1.000  C
  C146     1.0000 0.78337  0.07377  0.93440  Biso   1.000  C
  C147     1.0000 0.75566  0.12831  0.70757  Biso   1.000  C
  C148     1.0000 0.75573  0.12831  0.70757  Biso   1.000  C
  H171     1.0000 0.97869  0.87390  0.10050  Biso   1.000  H
  H172     1.0000 0.97875  0.87390  0.10050  Biso   1.000  H
  H173     1.0000 0.07691  0.84552  0.09229  Biso   1.000  H
  N81      1.0000 0.07344  0.94210  0.14904  Biso   1.000  N
  H174     1.0000 0.07691  0.84547  0.09229  Biso   1.000  H
  N82      1.0000 0.07351  0.94210  0.14904  Biso   1.000  N
  H175     1.0000 0.09850  0.71038  0.18028  Biso   1.000  H
  H176     1.0000 0.17973  0.76109  0.16410  Biso   1.000  H
  H177     1.0000 0.18624  0.70712  0.25839  Biso   1.000  H
  H178     1.0000 0.18624  0.70707  0.25839  Biso   1.000  H
  C149     1.0000 0.24434  0.87169  0.29242  Biso   1.000  C
  C150     1.0000 0.24434  0.87164  0.29242  Biso   1.000  C
  C151     1.0000 0.24440  0.87169  0.29242  Biso   1.000  C
  C152     1.0000 0.24440  0.87164  0.29242  Biso   1.000  C
  O40      1.0000 0.23920  0.84610  0.51422  Biso   1.000  O
  O41      1.0000 0.23920  0.84605  0.51422  Biso   1.000  O
  O42      1.0000 0.23927  0.84610  0.51422  Biso   1.000  O
  O43      1.0000 0.23927  0.84605  0.51422  Biso   1.000  O
  O44      1.0000 0.06194  0.00000  0.87630  Biso   1.000  O
  C153     1.0000 0.96136  0.12821  0.86291  Biso   1.000  C
  H179     1.0000 0.72031  0.06148  0.92731  Biso   1.000  H
  H180     1.0000 0.78939  0.12400  0.93169  Biso   1.000  H
  H181     1.0000 0.72031  0.06153  0.92731  Biso   1.000  H
  H182     1.0000 0.78939  0.12395  0.93169  Biso   1.000  H
  H183     1.0000 0.72038  0.06148  0.92731  Biso   1.000  H
  H184     1.0000 0.78946  0.12400  0.93169  Biso   1.000  H
  H185     1.0000 0.72038  0.06153  0.92731  Biso   1.000  H
  H186     1.0000 0.78946  0.12395  0.93169  Biso   1.000  H
  H187     1.0000 0.81033  0.05669  0.00127  Biso   1.000  H
  H188     1.0000 0.81033  0.05675  0.00127  Biso   1.000  H
  H189     1.0000 0.81026  0.05669  0.00127  Biso   1.000  H
  H190     1.0000 0.81026  0.05675  0.00127  Biso   1.000  H
  H191     1.0000 0.70219  0.12411  0.65832  Biso   1.000  H
  H192     1.0000 0.73885  0.15411  0.76942  Biso   1.000  H
  N83      1.0000 0.82231  0.16735  0.65776  Biso   1.000  N
  H193     1.0000 0.70219  0.12405  0.65832  Biso   1.000  H
  H194     1.0000 0.73885  0.15406  0.76942  Biso   1.000  H
  H195     1.0000 0.70226  0.12411  0.65832  Biso   1.000  H
  H196     1.0000 0.70226  0.12405  0.65832  Biso   1.000  H
  C154     1.0000 0.16858  0.95980  0.15789  Biso   1.000  C
  C155     1.0000 0.16858  0.95975  0.15789  Biso   1.000  C
  C156     1.0000 0.01973  0.00000  0.14059  Biso   1.000  C
  H197     1.0000 0.29780  0.87589  0.34167  Biso   1.000  H
  H198     1.0000 0.26121  0.84589  0.23057  Biso   1.000  H
  N84      1.0000 0.21446  0.94189  0.25878  Biso   1.000  N
  N85      1.0000 0.21446  0.94183  0.25878  Biso   1.000  N
  H199     1.0000 0.29787  0.87589  0.34167  Biso   1.000  H
  H200     1.0000 0.92315  0.15448  0.90770  Biso   1.000  H
  N86      1.0000 0.96659  0.16635  0.76297  Biso   1.000  N
  H201     1.0000 0.92315  0.15453  0.90770  Biso   1.000  H
  N87      1.0000 0.96666  0.16635  0.76297  Biso   1.000  N
  H202     1.0000 0.02131  0.12610  0.89949  Biso   1.000  H
  H203     1.0000 0.02131  0.12605  0.89949  Biso   1.000  H
  H204     1.0000 0.02138  0.12610  0.89949  Biso   1.000  H
  H205     1.0000 0.02138  0.12605  0.89949  Biso   1.000  H
  C157     1.0000 0.89344  0.20849  0.71275  Biso   1.000  C
  C158     1.0000 0.81922  0.17612  0.55033  Biso   1.000  C
  C159     1.0000 0.89344  0.20844  0.71275  Biso   1.000  C
  C160     1.0000 0.81922  0.17618  0.55033  Biso   1.000  C
  C161     1.0000 0.81928  0.17612  0.55033  Biso   1.000  C
  C162     1.0000 0.81928  0.17618  0.55033  Biso   1.000  C
  C163     1.0000 0.21669  0.92618  0.06559  Biso   1.000  C
  C164     1.0000 0.21676  0.92618  0.06559  Biso   1.000  C
  C165     1.0000 0.16858  0.04020  0.15789  Biso   1.000  C
  O45      1.0000 0.93813  0.00000  0.12369  Biso   1.000  O
  N88      1.0000 0.07344  0.05790  0.14904  Biso   1.000  N
  N89      1.0000 0.07344  0.05785  0.14904  Biso   1.000  N
  N90      1.0000 0.07351  0.05790  0.14904  Biso   1.000  N
  N91      1.0000 0.07351  0.05785  0.14904  Biso   1.000  N
  C166     1.0000 0.24433  0.00000  0.31601  Biso   1.000  C
  C167     1.0000 0.04662  0.17576  0.72128  Biso   1.000  C
  C168     1.0000 0.93979  0.24327  0.61943  Biso   1.000  C
  C169     1.0000 0.85360  0.26240  0.78401  Biso   1.000  C
  C170     1.0000 0.85360  0.26235  0.78401  Biso   1.000  C
  C171     1.0000 0.93986  0.24327  0.61943  Biso   1.000  C
  C172     1.0000 0.85367  0.26240  0.78401  Biso   1.000  C
  C173     1.0000 0.85367  0.26235  0.78401  Biso   1.000  C
  N92      1.0000 0.89083  0.21748  0.52666  Biso   1.000  N
  O46      1.0000 0.76079  0.15390  0.48577  Biso   1.000  O
  O47      1.0000 0.76086  0.15390  0.48577  Biso   1.000  O
  H206     1.0000 0.18980  0.94331  0.99872  Biso   1.000  H
  H207     1.0000 0.18980  0.94325  0.99872  Biso   1.000  H
  H208     1.0000 0.18973  0.94331  0.99872  Biso   1.000  H
  H209     1.0000 0.18973  0.94325  0.99872  Biso   1.000  H
  H210     1.0000 0.27968  0.93852  0.07269  Biso   1.000  H
  H211     1.0000 0.21060  0.87600  0.06830  Biso   1.000  H
  H212     1.0000 0.27968  0.93847  0.07269  Biso   1.000  H
  H213     1.0000 0.27975  0.93852  0.07269  Biso   1.000  H
  H214     1.0000 0.27975  0.93847  0.07269  Biso   1.000  H
  N93      1.0000 0.21446  0.05811  0.25878  Biso   1.000  N
  C174     1.0000 0.21669  0.07382  0.06559  Biso   1.000  C
  N94      1.0000 0.21446  0.05817  0.25878  Biso   1.000  N
  C175     1.0000 0.21669  0.07377  0.06559  Biso   1.000  C
  C176     1.0000 0.21676  0.07382  0.06559  Biso   1.000  C
  C177     1.0000 0.21676  0.07377  0.06559  Biso   1.000  C
  C178     1.0000 0.03870  0.12821  0.13708  Biso   1.000  C
  O48      1.0000 0.29042  0.00000  0.39746  Biso   1.000  O
  N95      1.0000 0.03171  0.21953  0.63441  Biso   1.000  N
  O49      1.0000 0.11933  0.15337  0.75420  Biso   1.000  O
  N96      1.0000 0.03171  0.21958  0.63441  Biso   1.000  N
  O50      1.0000 0.11933  0.15343  0.75420  Biso   1.000  O
  N97      1.0000 0.03178  0.21953  0.63441  Biso   1.000  N
  N98      1.0000 0.03178  0.21958  0.63441  Biso   1.000  N
  H215     1.0000 0.93633  0.29461  0.62309  Biso   1.000  H
  H216     1.0000 0.93633  0.29456  0.62309  Biso   1.000  H
  H217     1.0000 0.90149  0.28962  0.81971  Biso   1.000  H
  H218     1.0000 0.82033  0.23891  0.83589  Biso   1.000  H
  H219     1.0000 0.81382  0.29288  0.74161  Biso   1.000  H
  H220     1.0000 0.90149  0.28956  0.81971  Biso   1.000  H
  H221     1.0000 0.82033  0.23886  0.83589  Biso   1.000  H
  H222     1.0000 0.90156  0.28962  0.81971  Biso   1.000  H
  H223     1.0000 0.90156  0.28956  0.81971  Biso   1.000  H
  C179     1.0000 0.89609  0.24800  0.42217  Biso   1.000  C
  C180     1.0000 0.89616  0.24800  0.42217  Biso   1.000  C
  C181     1.0000 0.24434  0.12831  0.29242  Biso   1.000  C
  C182     1.0000 0.24440  0.12831  0.29242  Biso   1.000  C
  H224     1.0000 0.18980  0.05669  0.99872  Biso   1.000  H
  H225     1.0000 0.18980  0.05675  0.99872  Biso   1.000  H
  H226     1.0000 0.18973  0.05669  0.99872  Biso   1.000  H
  H227     1.0000 0.18973  0.05675  0.99872  Biso   1.000  H
  H228     1.0000 0.27968  0.06148  0.07269  Biso   1.000  H
  H229     1.0000 0.21060  0.12400  0.06830  Biso   1.000  H
  H230     1.0000 0.27968  0.06153  0.07269  Biso   1.000  H
  H231     1.0000 0.21060  0.12395  0.06830  Biso   1.000  H
  H232     1.0000 0.27975  0.06148  0.07269  Biso   1.000  H
  H233     1.0000 0.27975  0.06153  0.07269  Biso   1.000  H
  H234     1.0000 0.97869  0.12610  0.10050  Biso   1.000  H
  H235     1.0000 0.97869  0.12605  0.10050  Biso   1.000  H
  H236     1.0000 0.97875  0.12610  0.10050  Biso   1.000  H
  H237     1.0000 0.97875  0.12605  0.10050  Biso   1.000  H
  H238     1.0000 0.07691  0.15448  0.09229  Biso   1.000  H
  N99      1.0000 0.03340  0.16635  0.23703  Biso   1.000  N
  H239     1.0000 0.07691  0.15453  0.09229  Biso   1.000  H
  N100     1.0000 0.03347  0.16635  0.23703  Biso   1.000  N
  C183     1.0000 0.10390  0.24800  0.57782  Biso   1.000  C
  C184     1.0000 0.10397  0.24800  0.57782  Biso   1.000  C
  N101     1.0000 0.96829  0.21953  0.36558  Biso   1.000  N
  N102     1.0000 0.96829  0.21958  0.36558  Biso   1.000  N
  H240     1.0000 0.83908  0.24017  0.38033  Biso   1.000  H
  H241     1.0000 0.90449  0.29829  0.42966  Biso   1.000  H
  H242     1.0000 0.83915  0.24017  0.38033  Biso   1.000  H
  H243     1.0000 0.90456  0.29829  0.42966  Biso   1.000  H
  H244     1.0000 0.29780  0.12411  0.34167  Biso   1.000  H
  H245     1.0000 0.26121  0.15411  0.23057  Biso   1.000  H
  N103     1.0000 0.17775  0.16735  0.34223  Biso   1.000  N
  H246     1.0000 0.29780  0.12405  0.34167  Biso   1.000  H
  H247     1.0000 0.26121  0.15406  0.23057  Biso   1.000  H
  H248     1.0000 0.29787  0.12411  0.34167  Biso   1.000  H
  H249     1.0000 0.29787  0.12405  0.34167  Biso   1.000  H
  C185     1.0000 0.95338  0.17576  0.27871  Biso   1.000  C
  C186     1.0000 0.95345  0.17576  0.27871  Biso   1.000  C
  C187     1.0000 0.10662  0.20849  0.28716  Biso   1.000  C
  C188     1.0000 0.10662  0.20844  0.28716  Biso   1.000  C
  N104     1.0000 0.10923  0.21748  0.47326  Biso   1.000  N
  H250     1.0000 0.16091  0.24017  0.61967  Biso   1.000  H
  H251     1.0000 0.09550  0.29829  0.57033  Biso   1.000  H
  H252     1.0000 0.16098  0.24017  0.61967  Biso   1.000  H
  H253     1.0000 0.09557  0.29829  0.57033  Biso   1.000  H
  C189     1.0000 0.06021  0.24327  0.38057  Biso   1.000  C
  C190     1.0000 0.06027  0.24327  0.38057  Biso   1.000  C
  C191     1.0000 0.18078  0.17612  0.44967  Biso   1.000  C
  C192     1.0000 0.18078  0.17618  0.44967  Biso   1.000  C
  C193     1.0000 0.18084  0.17612  0.44967  Biso   1.000  C
  C194     1.0000 0.18084  0.17618  0.44967  Biso   1.000  C
  O51      1.0000 0.88066  0.15337  0.24579  Biso   1.000  O
  O52      1.0000 0.88066  0.15343  0.24579  Biso   1.000  O
  O53      1.0000 0.88073  0.15337  0.24579  Biso   1.000  O
  O54      1.0000 0.88073  0.15343  0.24579  Biso   1.000  O
  C195     1.0000 0.14639  0.26240  0.21599  Biso   1.000  C
  C196     1.0000 0.14639  0.26235  0.21599  Biso   1.000  C
  C197     1.0000 0.14646  0.26240  0.21599  Biso   1.000  C
  C198     1.0000 0.14646  0.26235  0.21599  Biso   1.000  C
  H254     1.0000 0.06373  0.29461  0.37690  Biso   1.000  H
  H255     1.0000 0.06373  0.29456  0.37690  Biso   1.000  H
  O55      1.0000 0.23920  0.15390  0.51422  Biso   1.000  O
  O56      1.0000 0.23927  0.15390  0.51422  Biso   1.000  O
  H256     1.0000 0.09850  0.28962  0.18028  Biso   1.000  H
  H257     1.0000 0.17973  0.23891  0.16410  Biso   1.000  H
  H258     1.0000 0.18624  0.29288  0.25839  Biso   1.000  H
  H259     1.0000 0.09850  0.28956  0.18028  Biso   1.000  H
  H260     1.0000 0.17973  0.23886  0.16410  Biso   1.000  H
  C199     1.0000 0.81928  0.82388  0.55033  Biso   1.000  C
  N105     1.0000 0.89083  0.78252  0.52666  Biso   1.000  N
  N106     1.0000 0.82231  0.83265  0.65776  Biso   1.000  N
  O57      1.0000 0.76079  0.84610  0.48577  Biso   1.000  O
  O58      1.0000 0.76079  0.84605  0.48577  Biso   1.000  O
  O59      1.0000 0.76086  0.84610  0.48577  Biso   1.000  O
  O60      1.0000 0.76086  0.84605  0.48577  Biso   1.000  O
  C200     1.0000 0.89609  0.75200  0.42217  Biso   1.000  C
  C201     1.0000 0.93979  0.75673  0.61943  Biso   1.000  C
  C202     1.0000 0.81922  0.82388  0.55033  Biso   1.000  C
  C203     1.0000 0.81922  0.82382  0.55033  Biso   1.000  C
  C204     1.0000 0.89616  0.75200  0.42217  Biso   1.000  C
  C205     1.0000 0.93986  0.75673  0.61943  Biso   1.000  C
  C206     1.0000 0.81928  0.82382  0.55033  Biso   1.000  C
  C207     1.0000 0.89344  0.79151  0.71275  Biso   1.000  C
  C208     1.0000 0.75566  0.87169  0.70757  Biso   1.000  C
  C209     1.0000 0.75566  0.87164  0.70757  Biso   1.000  C
  C210     1.0000 0.75573  0.87169  0.70757  Biso   1.000  C
  C211     1.0000 0.75573  0.87164  0.70757  Biso   1.000  C
  H261     1.0000 0.83908  0.75983  0.38033  Biso   1.000  H
  H262     1.0000 0.90449  0.70171  0.42966  Biso   1.000  H
  N107     1.0000 0.96829  0.78047  0.36558  Biso   1.000  N
  H263     1.0000 0.83908  0.75977  0.38033  Biso   1.000  H
  H264     1.0000 0.90449  0.70166  0.42966  Biso   1.000  H
  N108     1.0000 0.96829  0.78042  0.36558  Biso   1.000  N
  H265     1.0000 0.83915  0.75983  0.38033  Biso   1.000  H
  H266     1.0000 0.90456  0.70171  0.42966  Biso   1.000  H
  H267     1.0000 0.83915  0.75977  0.38033  Biso   1.000  H
  H268     1.0000 0.90456  0.70166  0.42966  Biso   1.000  H
  H269     1.0000 0.93633  0.70539  0.62309  Biso   1.000  H
  N109     1.0000 0.03171  0.78047  0.63441  Biso   1.000  N
  N110     1.0000 0.03171  0.78042  0.63441  Biso   1.000  N
  N111     1.0000 0.03178  0.78047  0.63441  Biso   1.000  N
  N112     1.0000 0.03178  0.78042  0.63441  Biso   1.000  N
  C212     1.0000 0.85360  0.73760  0.78401  Biso   1.000  C
  N113     1.0000 0.96659  0.83365  0.76297  Biso   1.000  N
  N114     1.0000 0.96659  0.83360  0.76297  Biso   1.000  N
  C213     1.0000 0.85367  0.73760  0.78401  Biso   1.000  C
  N115     1.0000 0.96666  0.83365  0.76297  Biso   1.000  N
  N116     1.0000 0.96666  0.83360  0.76297  Biso   1.000  N
  H270     1.0000 0.73885  0.84589  0.76942  Biso   1.000  H
  H271     1.0000 0.70219  0.87589  0.65832  Biso   1.000  H
  N117     1.0000 0.78561  0.94189  0.74121  Biso   1.000  N
  N118     1.0000 0.78561  0.94183  0.74121  Biso   1.000  N
  H272     1.0000 0.70226  0.87589  0.65832  Biso   1.000  H
  C214     1.0000 0.95338  0.82424  0.27871  Biso   1.000  C
  C215     1.0000 0.95338  0.82419  0.27871  Biso   1.000  C
  C216     1.0000 0.95345  0.82424  0.27871  Biso   1.000  C
  C217     1.0000 0.95345  0.82419  0.27871  Biso   1.000  C
  C218     1.0000 0.06021  0.75673  0.38057  Biso   1.000  C
  C219     1.0000 0.06027  0.75673  0.38057  Biso   1.000  C
  C220     1.0000 0.04662  0.82424  0.72128  Biso   1.000  C
  C221     1.0000 0.10390  0.75200  0.57782  Biso   1.000  C
  C222     1.0000 0.04662  0.82419  0.72128  Biso   1.000  C
  C223     1.0000 0.10397  0.75200  0.57782  Biso   1.000  C
  H273     1.0000 0.82033  0.76109  0.83589  Biso   1.000  H
  H274     1.0000 0.90149  0.71038  0.81971  Biso   1.000  H
  H275     1.0000 0.81382  0.70712  0.74161  Biso   1.000  H
  H276     1.0000 0.81382  0.70707  0.74161  Biso   1.000  H
  H277     1.0000 0.90156  0.71038  0.81971  Biso   1.000  H
  C224     1.0000 0.96136  0.87179  0.86291  Biso   1.000  C
  C225     1.0000 0.96136  0.87174  0.86291  Biso   1.000  C
  C226     1.0000 0.83148  0.95980  0.84211  Biso   1.000  C
  C227     1.0000 0.83148  0.95975  0.84211  Biso   1.000  C
  C228     1.0000 0.75573  0.00000  0.68398  Biso   1.000  C
  O61      1.0000 0.88066  0.84663  0.24579  Biso   1.000  O
  O62      1.0000 0.88066  0.84657  0.24579  Biso   1.000  O
  O63      1.0000 0.88073  0.84663  0.24579  Biso   1.000  O
  O64      1.0000 0.88073  0.84657  0.24579  Biso   1.000  O
  N119     1.0000 0.03340  0.83365  0.23703  Biso   1.000  N
  N120     1.0000 0.03340  0.83360  0.23703  Biso   1.000  N
  N121     1.0000 0.03347  0.83365  0.23703  Biso   1.000  N
  N122     1.0000 0.03347  0.83360  0.23703  Biso   1.000  N
  H278     1.0000 0.06373  0.70539  0.37690  Biso   1.000  H
  C229     1.0000 0.10662  0.79151  0.28716  Biso   1.000  C
  N123     1.0000 0.10923  0.78252  0.47326  Biso   1.000  N
  O65      1.0000 0.11933  0.84663  0.75420  Biso   1.000  O
  O66      1.0000 0.11933  0.84657  0.75420  Biso   1.000  O
  H279     1.0000 0.16091  0.75983  0.61967  Biso   1.000  H
  H280     1.0000 0.09550  0.70171  0.57033  Biso   1.000  H
  H281     1.0000 0.16091  0.75977  0.61967  Biso   1.000  H
  H282     1.0000 0.09550  0.70166  0.57033  Biso   1.000  H
  H283     1.0000 0.16098  0.75983  0.61967  Biso   1.000  H
  H284     1.0000 0.09557  0.70171  0.57033  Biso   1.000  H
  H285     1.0000 0.16098  0.75977  0.61967  Biso   1.000  H
  H286     1.0000 0.09557  0.70166  0.57033  Biso   1.000  H
  H287     1.0000 0.92315  0.84552  0.90770  Biso   1.000  H
  N124     1.0000 0.92655  0.94210  0.85095  Biso   1.000  N
  H288     1.0000 0.92315  0.84547  0.90770  Biso   1.000  H
  N125     1.0000 0.92662  0.94210  0.85095  Biso   1.000  N
  H289     1.0000 0.02131  0.87390  0.89949  Biso   1.000  H
  H290     1.0000 0.02138  0.87390  0.89949  Biso   1.000  H
  C230     1.0000 0.78330  0.92618  0.93440  Biso   1.000  C
  C231     1.0000 0.78337  0.92618  0.93440  Biso   1.000  C
  C232     1.0000 0.83148  0.04020  0.84211  Biso   1.000  C
  N126     1.0000 0.78561  0.05811  0.74121  Biso   1.000  N
  O67      1.0000 0.70964  0.00000  0.60253  Biso   1.000  O
  N127     1.0000 0.78561  0.05817  0.74121  Biso   1.000  N
  C233     1.0000 0.03870  0.87179  0.13708  Biso   1.000  C
  C234     1.0000 0.03870  0.87174  0.13708  Biso   1.000  C
  C235     1.0000 0.14639  0.73760  0.21599  Biso   1.000  C
  N128     1.0000 0.17775  0.83265  0.34223  Biso   1.000  N
  C236     1.0000 0.14646  0.73760  0.21599  Biso   1.000  C
  C237     1.0000 0.18078  0.82388  0.44967  Biso   1.000  C
  C238     1.0000 0.18078  0.82382  0.44967  Biso   1.000  C
  C239     1.0000 0.18084  0.82388  0.44967  Biso   1.000  C
  C240     1.0000 0.18084  0.82382  0.44967  Biso   1.000  C
  C241     1.0000 0.98033  0.00000  0.85940  Biso   1.000  C
  H291     1.0000 0.72031  0.93852  0.92731  Biso   1.000  H
  H292     1.0000 0.78939  0.87600  0.93169  Biso   1.000  H
  H293     1.0000 0.72031  0.93847  0.92731  Biso   1.000  H
  H294     1.0000 0.72038  0.93852  0.92731  Biso   1.000  H
  H295     1.0000 0.78946  0.87600  0.93169  Biso   1.000  H
  H296     1.0000 0.72038  0.93847  0.92731  Biso   1.000  H
  H297     1.0000 0.81033  0.94331  0.00127  Biso   1.000  H
  H298     1.0000 0.81033  0.94325  0.00127  Biso   1.000  H
  H299     1.0000 0.81026  0.94331  0.00127  Biso   1.000  H
  H300     1.0000 0.81026  0.94325  0.00127  Biso   1.000  H
  N129     1.0000 0.92655  0.05790  0.85095  Biso   1.000  N
  N130     1.0000 0.92655  0.05785  0.85095  Biso   1.000  N
  N131     1.0000 0.92662  0.05790  0.85095  Biso   1.000  N
  N132     1.0000 0.92662  0.05785  0.85095  Biso   1.000  N
  C242     1.0000 0.78330  0.07382  0.93440  Biso   1.000  C
  C243     1.0000 0.78330  0.07377  0.93440  Biso   1.000  C
  C244     1.0000 0.78337  0.07382  0.93440  Biso   1.000  C
  C245     1.0000 0.78337  0.07377  0.93440  Biso   1.000  C
  C246     1.0000 0.75566  0.12831  0.70757  Biso   1.000  C
  C247     1.0000 0.75573  0.12831  0.70757  Biso   1.000  C
  H301     1.0000 0.97869  0.87390  0.10050  Biso   1.000  H
  H302     1.0000 0.97875  0.87390  0.10050  Biso   1.000  H
  H303     1.0000 0.07691  0.84552  0.09229  Biso   1.000  H
  N133     1.0000 0.07344  0.94210  0.14904  Biso   1.000  N
  H304     1.0000 0.07691  0.84547  0.09229  Biso   1.000  H
  N134     1.0000 0.07351  0.94210  0.14904  Biso   1.000  N
  H305     1.0000 0.09850  0.71038  0.18028  Biso   1.000  H
  H306     1.0000 0.17973  0.76109  0.16410  Biso   1.000  H
  H307     1.0000 0.18624  0.70712  0.25839  Biso   1.000  H
  H308     1.0000 0.18624  0.70707  0.25839  Biso   1.000  H
  C248     1.0000 0.24434  0.87169  0.29242  Biso   1.000  C
  C249     1.0000 0.24434  0.87164  0.29242  Biso   1.000  C
  C250     1.0000 0.24440  0.87169  0.29242  Biso   1.000  C
  C251     1.0000 0.24440  0.87164  0.29242  Biso   1.000  C
  O68      1.0000 0.23920  0.84610  0.51422  Biso   1.000  O
  O69      1.0000 0.23920  0.84605  0.51422  Biso   1.000  O
  O70      1.0000 0.23927  0.84610  0.51422  Biso   1.000  O
  O71      1.0000 0.23927  0.84605  0.51422  Biso   1.000  O
  O72      1.0000 0.06194  0.00000  0.87630  Biso   1.000  O
  C252     1.0000 0.96136  0.12821  0.86291  Biso   1.000  C
  H309     1.0000 0.72031  0.06148  0.92731  Biso   1.000  H
  H310     1.0000 0.78939  0.12400  0.93169  Biso   1.000  H
  H311     1.0000 0.72031  0.06153  0.92731  Biso   1.000  H
  H312     1.0000 0.78939  0.12395  0.93169  Biso   1.000  H
  H313     1.0000 0.72038  0.06148  0.92731  Biso   1.000  H
  H314     1.0000 0.78946  0.12400  0.93169  Biso   1.000  H
  H315     1.0000 0.72038  0.06153  0.92731  Biso   1.000  H
  H316     1.0000 0.78946  0.12395  0.93169  Biso   1.000  H
  H317     1.0000 0.81033  0.05669  0.00127  Biso   1.000  H
  H318     1.0000 0.81033  0.05675  0.00127  Biso   1.000  H
  H319     1.0000 0.81026  0.05669  0.00127  Biso   1.000  H
  H320     1.0000 0.81026  0.05675  0.00127  Biso   1.000  H
  H321     1.0000 0.70219  0.12411  0.65832  Biso   1.000  H
  H322     1.0000 0.73885  0.15411  0.76942  Biso   1.000  H
  N135     1.0000 0.82231  0.16735  0.65776  Biso   1.000  N
  H323     1.0000 0.70219  0.12405  0.65832  Biso   1.000  H
  H324     1.0000 0.73885  0.15406  0.76942  Biso   1.000  H
  H325     1.0000 0.70226  0.12411  0.65832  Biso   1.000  H
  H326     1.0000 0.70226  0.12405  0.65832  Biso   1.000  H
  C253     1.0000 0.16858  0.95980  0.15789  Biso   1.000  C
  C254     1.0000 0.16858  0.95975  0.15789  Biso   1.000  C
  C255     1.0000 0.01973  0.00000  0.14059  Biso   1.000  C
  H327     1.0000 0.29780  0.87589  0.34167  Biso   1.000  H
  H328     1.0000 0.26121  0.84589  0.23057  Biso   1.000  H
  N136     1.0000 0.21446  0.94189  0.25878  Biso   1.000  N
  N137     1.0000 0.21446  0.94183  0.25878  Biso   1.000  N
  H329     1.0000 0.29787  0.87589  0.34167  Biso   1.000  H
  H330     1.0000 0.92315  0.15448  0.90770  Biso   1.000  H
  N138     1.0000 0.96659  0.16635  0.76297  Biso   1.000  N
  H331     1.0000 0.92315  0.15453  0.90770  Biso   1.000  H
  N139     1.0000 0.96666  0.16635  0.76297  Biso   1.000  N
  H332     1.0000 0.02131  0.12610  0.89949  Biso   1.000  H
  H333     1.0000 0.02131  0.12605  0.89949  Biso   1.000  H
  H334     1.0000 0.02138  0.12610  0.89949  Biso   1.000  H
  H335     1.0000 0.02138  0.12605  0.89949  Biso   1.000  H
  C256     1.0000 0.89344  0.20849  0.71275  Biso   1.000  C
  C257     1.0000 0.81922  0.17612  0.55033  Biso   1.000  C
  C258     1.0000 0.89344  0.20844  0.71275  Biso   1.000  C
  C259     1.0000 0.81922  0.17618  0.55033  Biso   1.000  C
  C260     1.0000 0.81928  0.17612  0.55033  Biso   1.000  C
  C261     1.0000 0.81928  0.17618  0.55033  Biso   1.000  C
  C262     1.0000 0.21669  0.92618  0.06559  Biso   1.000  C
  C263     1.0000 0.21676  0.92618  0.06559  Biso   1.000  C
  C264     1.0000 0.16858  0.04020  0.15789  Biso   1.000  C
  O73      1.0000 0.93813  0.00000  0.12369  Biso   1.000  O
  N140     1.0000 0.07344  0.05790  0.14904  Biso   1.000  N
  N141     1.0000 0.07344  0.05785  0.14904  Biso   1.000  N
  N142     1.0000 0.07351  0.05790  0.14904  Biso   1.000  N
  N143     1.0000 0.07351  0.05785  0.14904  Biso   1.000  N
  C265     1.0000 0.24433  0.00000  0.31601  Biso   1.000  C
  C266     1.0000 0.04662  0.17576  0.72128  Biso   1.000  C
  C267     1.0000 0.93979  0.24327  0.61943  Biso   1.000  C
  C268     1.0000 0.85360  0.26240  0.78401  Biso   1.000  C
  C269     1.0000 0.85360  0.26235  0.78401  Biso   1.000  C
  C270     1.0000 0.93986  0.24327  0.61943  Biso   1.000  C
  C271     1.0000 0.85367  0.26240  0.78401  Biso   1.000  C
  C272     1.0000 0.85367  0.26235  0.78401  Biso   1.000  C
  N144     1.0000 0.89083  0.21748  0.52666  Biso   1.000  N
  O74      1.0000 0.76079  0.15390  0.48577  Biso   1.000  O
  O75      1.0000 0.76086  0.15390  0.48577  Biso   1.000  O
  H336     1.0000 0.18980  0.94331  0.99872  Biso   1.000  H
  H337     1.0000 0.18980  0.94325  0.99872  Biso   1.000  H
  H338     1.0000 0.18973  0.94331  0.99872  Biso   1.000  H
  H339     1.0000 0.18973  0.94325  0.99872  Biso   1.000  H
  H340     1.0000 0.27968  0.93852  0.07269  Biso   1.000  H
  H341     1.0000 0.21060  0.87600  0.06830  Biso   1.000  H
  H342     1.0000 0.27968  0.93847  0.07269  Biso   1.000  H
  H343     1.0000 0.27975  0.93852  0.07269  Biso   1.000  H
  H344     1.0000 0.27975  0.93847  0.07269  Biso   1.000  H
  N145     1.0000 0.21446  0.05811  0.25878  Biso   1.000  N
  C273     1.0000 0.21669  0.07382  0.06559  Biso   1.000  C
  N146     1.0000 0.21446  0.05817  0.25878  Biso   1.000  N
  C274     1.0000 0.21669  0.07377  0.06559  Biso   1.000  C
  C275     1.0000 0.21676  0.07382  0.06559  Biso   1.000  C
  C276     1.0000 0.21676  0.07377  0.06559  Biso   1.000  C
  C277     1.0000 0.03870  0.12821  0.13708  Biso   1.000  C
  O76      1.0000 0.29042  0.00000  0.39746  Biso   1.000  O
  N147     1.0000 0.03171  0.21953  0.63441  Biso   1.000  N
  O77      1.0000 0.11933  0.15337  0.75420  Biso   1.000  O
  N148     1.0000 0.03171  0.21958  0.63441  Biso   1.000  N
  O78      1.0000 0.11933  0.15343  0.75420  Biso   1.000  O
  N149     1.0000 0.03178  0.21953  0.63441  Biso   1.000  N
  N150     1.0000 0.03178  0.21958  0.63441  Biso   1.000  N
  H345     1.0000 0.93633  0.29461  0.62309  Biso   1.000  H
  H346     1.0000 0.93633  0.29456  0.62309  Biso   1.000  H
  H347     1.0000 0.90149  0.28962  0.81971  Biso   1.000  H
  H348     1.0000 0.82033  0.23891  0.83589  Biso   1.000  H
  H349     1.0000 0.81382  0.29288  0.74161  Biso   1.000  H
  H350     1.0000 0.90149  0.28956  0.81971  Biso   1.000  H
  H351     1.0000 0.82033  0.23886  0.83589  Biso   1.000  H
  H352     1.0000 0.90156  0.28962  0.81971  Biso   1.000  H
  H353     1.0000 0.90156  0.28956  0.81971  Biso   1.000  H
  C278     1.0000 0.89609  0.24800  0.42217  Biso   1.000  C
  C279     1.0000 0.89616  0.24800  0.42217  Biso   1.000  C
  C280     1.0000 0.24434  0.12831  0.29242  Biso   1.000  C
  C281     1.0000 0.24440  0.12831  0.29242  Biso   1.000  C
  H354     1.0000 0.18980  0.05669  0.99872  Biso   1.000  H
  H355     1.0000 0.18980  0.05675  0.99872  Biso   1.000  H
  H356     1.0000 0.18973  0.05669  0.99872  Biso   1.000  H
  H357     1.0000 0.18973  0.05675  0.99872  Biso   1.000  H
  H358     1.0000 0.27968  0.06148  0.07269  Biso   1.000  H
  H359     1.0000 0.21060  0.12400  0.06830  Biso   1.000  H
  H360     1.0000 0.27968  0.06153  0.07269  Biso   1.000  H
  H361     1.0000 0.21060  0.12395  0.06830  Biso   1.000  H
  H362     1.0000 0.27975  0.06148  0.07269  Biso   1.000  H
  H363     1.0000 0.27975  0.06153  0.07269  Biso   1.000  H
  H364     1.0000 0.97869  0.12610  0.10050  Biso   1.000  H
  H365     1.0000 0.97869  0.12605  0.10050  Biso   1.000  H
  H366     1.0000 0.97875  0.12610  0.10050  Biso   1.000  H
  H367     1.0000 0.97875  0.12605  0.10050  Biso   1.000  H
  H368     1.0000 0.07691  0.15448  0.09229  Biso   1.000  H
  N151     1.0000 0.03340  0.16635  0.23703  Biso   1.000  N
  H369     1.0000 0.07691  0.15453  0.09229  Biso   1.000  H
  N152     1.0000 0.03347  0.16635  0.23703  Biso   1.000  N
  C282     1.0000 0.10390  0.24800  0.57782  Biso   1.000  C
  C283     1.0000 0.10397  0.24800  0.57782  Biso   1.000  C
  N153     1.0000 0.96829  0.21953  0.36558  Biso   1.000  N
  N154     1.0000 0.96829  0.21958  0.36558  Biso   1.000  N
  H370     1.0000 0.83908  0.24017  0.38033  Biso   1.000  H
  H371     1.0000 0.90449  0.29829  0.42966  Biso   1.000  H
  H372     1.0000 0.83915  0.24017  0.38033  Biso   1.000  H
  H373     1.0000 0.90456  0.29829  0.42966  Biso   1.000  H
  H374     1.0000 0.29780  0.12411  0.34167  Biso   1.000  H
  H375     1.0000 0.26121  0.15411  0.23057  Biso   1.000  H
  N155     1.0000 0.17775  0.16735  0.34223  Biso   1.000  N
  H376     1.0000 0.29780  0.12405  0.34167  Biso   1.000  H
  H377     1.0000 0.26121  0.15406  0.23057  Biso   1.000  H
  H378     1.0000 0.29787  0.12411  0.34167  Biso   1.000  H
  H379     1.0000 0.29787  0.12405  0.34167  Biso   1.000  H
  C284     1.0000 0.95338  0.17576  0.27871  Biso   1.000  C
  C285     1.0000 0.95345  0.17576  0.27871  Biso   1.000  C
  C286     1.0000 0.10662  0.20849  0.28716  Biso   1.000  C
  C287     1.0000 0.10662  0.20844  0.28716  Biso   1.000  C
  N156     1.0000 0.10923  0.21748  0.47326  Biso   1.000  N
  H380     1.0000 0.16091  0.24017  0.61967  Biso   1.000  H
  H381     1.0000 0.09550  0.29829  0.57033  Biso   1.000  H
  H382     1.0000 0.16098  0.24017  0.61967  Biso   1.000  H
  H383     1.0000 0.09557  0.29829  0.57033  Biso   1.000  H
  C288     1.0000 0.06021  0.24327  0.38057  Biso   1.000  C
  C289     1.0000 0.06027  0.24327  0.38057  Biso   1.000  C
  C290     1.0000 0.18078  0.17612  0.44967  Biso   1.000  C
  C291     1.0000 0.18078  0.17618  0.44967  Biso   1.000  C
  C292     1.0000 0.18084  0.17612  0.44967  Biso   1.000  C
  C293     1.0000 0.18084  0.17618  0.44967  Biso   1.000  C
  O79      1.0000 0.88066  0.15337  0.24579  Biso   1.000  O
  O80      1.0000 0.88066  0.15343  0.24579  Biso   1.000  O
  O81      1.0000 0.88073  0.15337  0.24579  Biso   1.000  O
  O82      1.0000 0.88073  0.15343  0.24579  Biso   1.000  O
  C294     1.0000 0.14639  0.26240  0.21599  Biso   1.000  C
  C295     1.0000 0.14639  0.26235  0.21599  Biso   1.000  C
  C296     1.0000 0.14646  0.26240  0.21599  Biso   1.000  C
  C297     1.0000 0.14646  0.26235  0.21599  Biso   1.000  C
  H384     1.0000 0.06373  0.29461  0.37690  Biso   1.000  H
  H385     1.0000 0.06373  0.29456  0.37690  Biso   1.000  H
  O83      1.0000 0.23920  0.15390  0.51422  Biso   1.000  O
  O84      1.0000 0.23927  0.15390  0.51422  Biso   1.000  O
  H386     1.0000 0.09850  0.28962  0.18028  Biso   1.000  H
  H387     1.0000 0.17973  0.23891  0.16410  Biso   1.000  H
  H388     1.0000 0.18624  0.29288  0.25839  Biso   1.000  H
  H389     1.0000 0.09850  0.28956  0.18028  Biso   1.000  H
  H390     1.0000 0.17973  0.23886  0.16410  Biso   1.000  H
  C298     1.0000 0.81928  0.82388  0.55033  Biso   1.000  C
  N157     1.0000 0.89083  0.78252  0.52666  Biso   1.000  N
  N158     1.0000 0.82231  0.83265  0.65776  Biso   1.000  N
  O85      1.0000 0.76079  0.84610  0.48577  Biso   1.000  O
  O86      1.0000 0.76079  0.84605  0.48577  Biso   1.000  O
  O87      1.0000 0.76086  0.84610  0.48577  Biso   1.000  O
  O88      1.0000 0.76086  0.84605  0.48577  Biso   1.000  O
  C299     1.0000 0.89609  0.75200  0.42217  Biso   1.000  C
  C300     1.0000 0.93979  0.75673  0.61943  Biso   1.000  C
  C301     1.0000 0.81922  0.82388  0.55033  Biso   1.000  C
  C302     1.0000 0.81922  0.82382  0.55033  Biso   1.000  C
  C303     1.0000 0.89616  0.75200  0.42217  Biso   1.000  C
  C304     1.0000 0.93986  0.75673  0.61943  Biso   1.000  C
  C305     1.0000 0.81928  0.82382  0.55033  Biso   1.000  C
  C306     1.0000 0.89344  0.79151  0.71275  Biso   1.000  C
  C307     1.0000 0.75566  0.87169  0.70757  Biso   1.000  C
  C308     1.0000 0.75566  0.87164  0.70757  Biso   1.000  C
  C309     1.0000 0.75573  0.87169  0.70757  Biso   1.000  C
  C310     1.0000 0.75573  0.87164  0.70757  Biso   1.000  C
  H391     1.0000 0.83908  0.75983  0.38033  Biso   1.000  H
  H392     1.0000 0.90449  0.70171  0.42966  Biso   1.000  H
  N159     1.0000 0.96829  0.78047  0.36558  Biso   1.000  N
  H393     1.0000 0.83908  0.75977  0.38033  Biso   1.000  H
  H394     1.0000 0.90449  0.70166  0.42966  Biso   1.000  H
  N160     1.0000 0.96829  0.78042  0.36558  Biso   1.000  N
  H395     1.0000 0.83915  0.75983  0.38033  Biso   1.000  H
  H396     1.0000 0.90456  0.70171  0.42966  Biso   1.000  H
  H397     1.0000 0.83915  0.75977  0.38033  Biso   1.000  H
  H398     1.0000 0.90456  0.70166  0.42966  Biso   1.000  H
  H399     1.0000 0.93633  0.70539  0.62309  Biso   1.000  H
  N161     1.0000 0.03171  0.78047  0.63441  Biso   1.000  N
  N162     1.0000 0.03171  0.78042  0.63441  Biso   1.000  N
  N163     1.0000 0.03178  0.78047  0.63441  Biso   1.000  N
  N164     1.0000 0.03178  0.78042  0.63441  Biso   1.000  N
  C311     1.0000 0.85360  0.73760  0.78401  Biso   1.000  C
  N165     1.0000 0.96659  0.83365  0.76297  Biso   1.000  N
  N166     1.0000 0.96659  0.83360  0.76297  Biso   1.000  N
  C312     1.0000 0.85367  0.73760  0.78401  Biso   1.000  C
  N167     1.0000 0.96666  0.83365  0.76297  Biso   1.000  N
  N168     1.0000 0.96666  0.83360  0.76297  Biso   1.000  N
  H400     1.0000 0.73885  0.84589  0.76942  Biso   1.000  H
  H401     1.0000 0.70219  0.87589  0.65832  Biso   1.000  H
  N169     1.0000 0.78561  0.94189  0.74121  Biso   1.000  N
  N170     1.0000 0.78561  0.94183  0.74121  Biso   1.000  N
  H402     1.0000 0.70226  0.87589  0.65832  Biso   1.000  H
  C313     1.0000 0.95338  0.82424  0.27871  Biso   1.000  C
  C314     1.0000 0.95338  0.82419  0.27871  Biso   1.000  C
  C315     1.0000 0.95345  0.82424  0.27871  Biso   1.000  C
  C316     1.0000 0.95345  0.82419  0.27871  Biso   1.000  C
  C317     1.0000 0.06021  0.75673  0.38057  Biso   1.000  C
  C318     1.0000 0.06027  0.75673  0.38057  Biso   1.000  C
  C319     1.0000 0.04662  0.82424  0.72128  Biso   1.000  C
  C320     1.0000 0.10390  0.75200  0.57782  Biso   1.000  C
  C321     1.0000 0.04662  0.82419  0.72128  Biso   1.000  C
  C322     1.0000 0.10397  0.75200  0.57782  Biso   1.000  C
  H403     1.0000 0.82033  0.76109  0.83589  Biso   1.000  H
  H404     1.0000 0.90149  0.71038  0.81971  Biso   1.000  H
  H405     1.0000 0.81382  0.70712  0.74161  Biso   1.000  H
  H406     1.0000 0.81382  0.70707  0.74161  Biso   1.000  H
  H407     1.0000 0.90156  0.71038  0.81971  Biso   1.000  H
  C323     1.0000 0.96136  0.87179  0.86291  Biso   1.000  C
  C324     1.0000 0.96136  0.87174  0.86291  Biso   1.000  C
  C325     1.0000 0.83148  0.95980  0.84211  Biso   1.000  C
  C326     1.0000 0.83148  0.95975  0.84211  Biso   1.000  C
  C327     1.0000 0.75573  0.00000  0.68398  Biso   1.000  C
  O89      1.0000 0.88066  0.84663  0.24579  Biso   1.000  O
  O90      1.0000 0.88066  0.84657  0.24579  Biso   1.000  O
  O91      1.0000 0.88073  0.84663  0.24579  Biso   1.000  O
  O92      1.0000 0.88073  0.84657  0.24579  Biso   1.000  O
  N171     1.0000 0.03340  0.83365  0.23703  Biso   1.000  N
  N172     1.0000 0.03340  0.83360  0.23703  Biso   1.000  N
  N173     1.0000 0.03347  0.83365  0.23703  Biso   1.000  N
  N174     1.0000 0.03347  0.83360  0.23703  Biso   1.000  N
  H408     1.0000 0.06373  0.70539  0.37690  Biso   1.000  H
  C328     1.0000 0.10662  0.79151  0.28716  Biso   1.000  C
  N175     1.0000 0.10923  0.78252  0.47326  Biso   1.000  N
  O93      1.0000 0.11933  0.84663  0.75420  Biso   1.000  O
  O94      1.0000 0.11933  0.84657  0.75420  Biso   1.000  O
  H409     1.0000 0.16091  0.75983  0.61967  Biso   1.000  H
  H410     1.0000 0.09550  0.70171  0.57033  Biso   1.000  H
  H411     1.0000 0.16091  0.75977  0.61967  Biso   1.000  H
  H412     1.0000 0.09550  0.70166  0.57033  Biso   1.000  H
  H413     1.0000 0.16098  0.75983  0.61967  Biso   1.000  H
  H414     1.0000 0.09557  0.70171  0.57033  Biso   1.000  H
  H415     1.0000 0.16098  0.75977  0.61967  Biso   1.000  H
  H416     1.0000 0.09557  0.70166  0.57033  Biso   1.000  H
  H417     1.0000 0.92315  0.84552  0.90770  Biso   1.000  H
  N176     1.0000 0.92655  0.94210  0.85095  Biso   1.000  N
  H418     1.0000 0.92315  0.84547  0.90770  Biso   1.000  H
  N177     1.0000 0.92662  0.94210  0.85095  Biso   1.000  N
  H419     1.0000 0.02131  0.87390  0.89949  Biso   1.000  H
  H420     1.0000 0.02138  0.87390  0.89949  Biso   1.000  H
  C329     1.0000 0.78330  0.92618  0.93440  Biso   1.000  C
  C330     1.0000 0.78337  0.92618  0.93440  Biso   1.000  C
  C331     1.0000 0.83148  0.04020  0.84211  Biso   1.000  C
  N178     1.0000 0.78561  0.05811  0.74121  Biso   1.000  N
  O95      1.0000 0.70964  0.00000  0.60253  Biso   1.000  O
  N179     1.0000 0.78561  0.05817  0.74121  Biso   1.000  N
  C332     1.0000 0.03870  0.87179  0.13708  Biso   1.000  C
  C333     1.0000 0.03870  0.87174  0.13708  Biso   1.000  C
  C334     1.0000 0.14639  0.73760  0.21599  Biso   1.000  C
  N180     1.0000 0.17775  0.83265  0.34223  Biso   1.000  N
  C335     1.0000 0.14646  0.73760  0.21599  Biso   1.000  C
  C336     1.0000 0.18078  0.82388  0.44967  Biso   1.000  C
  C337     1.0000 0.18078  0.82382  0.44967  Biso   1.000  C
  C338     1.0000 0.18084  0.82388  0.44967  Biso   1.000  C
  C339     1.0000 0.18084  0.82382  0.44967  Biso   1.000  C
  C340     1.0000 0.98033  0.00000  0.85940  Biso   1.000  C
  H421     1.0000 0.72031  0.93852  0.92731  Biso   1.000  H
  H422     1.0000 0.78939  0.87600  0.93169  Biso   1.000  H
  H423     1.0000 0.72031  0.93847  0.92731  Biso   1.000  H
  H424     1.0000 0.72038  0.93852  0.92731  Biso   1.000  H
  H425     1.0000 0.78946  0.87600  0.93169  Biso   1.000  H
  H426     1.0000 0.72038  0.93847  0.92731  Biso   1.000  H
  H427     1.0000 0.81033  0.94331  0.00127  Biso   1.000  H
  H428     1.0000 0.81033  0.94325  0.00127  Biso   1.000  H
  H429     1.0000 0.81026  0.94331  0.00127  Biso   1.000  H
  H430     1.0000 0.81026  0.94325  0.00127  Biso   1.000  H
  N181     1.0000 0.92655  0.05790  0.85095  Biso   1.000  N
  N182     1.0000 0.92655  0.05785  0.85095  Biso   1.000  N
  N183     1.0000 0.92662  0.05790  0.85095  Biso   1.000  N
  N184     1.0000 0.92662  0.05785  0.85095  Biso   1.000  N
  C341     1.0000 0.78330  0.07382  0.93440  Biso   1.000  C
  C342     1.0000 0.78330  0.07377  0.93440  Biso   1.000  C
  C343     1.0000 0.78337  0.07382  0.93440  Biso   1.000  C
  C344     1.0000 0.78337  0.07377  0.93440  Biso   1.000  C
  C345     1.0000 0.75566  0.12831  0.70757  Biso   1.000  C
  C346     1.0000 0.75573  0.12831  0.70757  Biso   1.000  C
  H431     1.0000 0.97869  0.87390  0.10050  Biso   1.000  H
  H432     1.0000 0.97875  0.87390  0.10050  Biso   1.000  H
  H433     1.0000 0.07691  0.84552  0.09229  Biso   1.000  H
  N185     1.0000 0.07344  0.94210  0.14904  Biso   1.000  N
  H434     1.0000 0.07691  0.84547  0.09229  Biso   1.000  H
  N186     1.0000 0.07351  0.94210  0.14904  Biso   1.000  N
  H435     1.0000 0.09850  0.71038  0.18028  Biso   1.000  H
  H436     1.0000 0.17973  0.76109  0.16410  Biso   1.000  H
  H437     1.0000 0.18624  0.70712  0.25839  Biso   1.000  H
  H438     1.0000 0.18624  0.70707  0.25839  Biso   1.000  H
  C347     1.0000 0.24434  0.87169  0.29242  Biso   1.000  C
  C348     1.0000 0.24434  0.87164  0.29242  Biso   1.000  C
  C349     1.0000 0.24440  0.87169  0.29242  Biso   1.000  C
  C350     1.0000 0.24440  0.87164  0.29242  Biso   1.000  C
  O96      1.0000 0.23920  0.84610  0.51422  Biso   1.000  O
  O97      1.0000 0.23920  0.84605  0.51422  Biso   1.000  O
  O98      1.0000 0.23927  0.84610  0.51422  Biso   1.000  O
  O99      1.0000 0.23927  0.84605  0.51422  Biso   1.000  O
  O100     1.0000 0.06194  0.00000  0.87630  Biso   1.000  O
  C351     1.0000 0.96136  0.12821  0.86291  Biso   1.000  C
  H439     1.0000 0.72031  0.06148  0.92731  Biso   1.000  H
  H440     1.0000 0.78939  0.12400  0.93169  Biso   1.000  H
  H441     1.0000 0.72031  0.06153  0.92731  Biso   1.000  H
  H442     1.0000 0.78939  0.12395  0.93169  Biso   1.000  H
  H443     1.0000 0.72038  0.06148  0.92731  Biso   1.000  H
  H444     1.0000 0.78946  0.12400  0.93169  Biso   1.000  H
  H445     1.0000 0.72038  0.06153  0.92731  Biso   1.000  H
  H446     1.0000 0.78946  0.12395  0.93169  Biso   1.000  H
  H447     1.0000 0.81033  0.05669  0.00127  Biso   1.000  H
  H448     1.0000 0.81033  0.05675  0.00127  Biso   1.000  H
  H449     1.0000 0.81026  0.05669  0.00127  Biso   1.000  H
  H450     1.0000 0.81026  0.05675  0.00127  Biso   1.000  H
  H451     1.0000 0.70219  0.12411  0.65832  Biso   1.000  H
  H452     1.0000 0.73885  0.15411  0.76942  Biso   1.000  H
  N187     1.0000 0.82231  0.16735  0.65776  Biso   1.000  N
  H453     1.0000 0.70219  0.12405  0.65832  Biso   1.000  H
  H454     1.0000 0.73885  0.15406  0.76942  Biso   1.000  H
  H455     1.0000 0.70226  0.12411  0.65832  Biso   1.000  H
  H456     1.0000 0.70226  0.12405  0.65832  Biso   1.000  H
  C352     1.0000 0.16858  0.95980  0.15789  Biso   1.000  C
  C353     1.0000 0.16858  0.95975  0.15789  Biso   1.000  C
  C354     1.0000 0.01973  0.00000  0.14059  Biso   1.000  C
  H457     1.0000 0.29780  0.87589  0.34167  Biso   1.000  H
  H458     1.0000 0.26121  0.84589  0.23057  Biso   1.000  H
  N188     1.0000 0.21446  0.94189  0.25878  Biso   1.000  N
  N189     1.0000 0.21446  0.94183  0.25878  Biso   1.000  N
  H459     1.0000 0.29787  0.87589  0.34167  Biso   1.000  H
  H460     1.0000 0.92315  0.15448  0.90770  Biso   1.000  H
  N190     1.0000 0.96659  0.16635  0.76297  Biso   1.000  N
  H461     1.0000 0.92315  0.15453  0.90770  Biso   1.000  H
  N191     1.0000 0.96666  0.16635  0.76297  Biso   1.000  N
  H462     1.0000 0.02131  0.12610  0.89949  Biso   1.000  H
  H463     1.0000 0.02131  0.12605  0.89949  Biso   1.000  H
  H464     1.0000 0.02138  0.12610  0.89949  Biso   1.000  H
  H465     1.0000 0.02138  0.12605  0.89949  Biso   1.000  H
  C355     1.0000 0.89344  0.20849  0.71275  Biso   1.000  C
  C356     1.0000 0.81922  0.17612  0.55033  Biso   1.000  C
  C357     1.0000 0.89344  0.20844  0.71275  Biso   1.000  C
  C358     1.0000 0.81922  0.17618  0.55033  Biso   1.000  C
  C359     1.0000 0.81928  0.17612  0.55033  Biso   1.000  C
  C360     1.0000 0.81928  0.17618  0.55033  Biso   1.000  C
  C361     1.0000 0.21669  0.92618  0.06559  Biso   1.000  C
  C362     1.0000 0.21676  0.92618  0.06559  Biso   1.000  C
  C363     1.0000 0.16858  0.04020  0.15789  Biso   1.000  C
  O101     1.0000 0.93813  0.00000  0.12369  Biso   1.000  O
  N192     1.0000 0.07344  0.05790  0.14904  Biso   1.000  N
  N193     1.0000 0.07344  0.05785  0.14904  Biso   1.000  N
  N194     1.0000 0.07351  0.05790  0.14904  Biso   1.000  N
  N195     1.0000 0.07351  0.05785  0.14904  Biso   1.000  N
  C364     1.0000 0.24433  0.00000  0.31601  Biso   1.000  C
  C365     1.0000 0.04662  0.17576  0.72128  Biso   1.000  C
  C366     1.0000 0.93979  0.24327  0.61943  Biso   1.000  C
  C367     1.0000 0.85360  0.26240  0.78401  Biso   1.000  C
  C368     1.0000 0.85360  0.26235  0.78401  Biso   1.000  C
  C369     1.0000 0.93986  0.24327  0.61943  Biso   1.000  C
  C370     1.0000 0.85367  0.26240  0.78401  Biso   1.000  C
  C371     1.0000 0.85367  0.26235  0.78401  Biso   1.000  C
  N196     1.0000 0.89083  0.21748  0.52666  Biso   1.000  N
  O102     1.0000 0.76079  0.15390  0.48577  Biso   1.000  O
  O103     1.0000 0.76086  0.15390  0.48577  Biso   1.000  O
  H466     1.0000 0.18980  0.94331  0.99872  Biso   1.000  H
  H467     1.0000 0.18980  0.94325  0.99872  Biso   1.000  H
  H468     1.0000 0.18973  0.94331  0.99872  Biso   1.000  H
  H469     1.0000 0.18973  0.94325  0.99872  Biso   1.000  H
  H470     1.0000 0.27968  0.93852  0.07269  Biso   1.000  H
  H471     1.0000 0.21060  0.87600  0.06830  Biso   1.000  H
  H472     1.0000 0.27968  0.93847  0.07269  Biso   1.000  H
  H473     1.0000 0.27975  0.93852  0.07269  Biso   1.000  H
  H474     1.0000 0.27975  0.93847  0.07269  Biso   1.000  H
  N197     1.0000 0.21446  0.05811  0.25878  Biso   1.000  N
  C372     1.0000 0.21669  0.07382  0.06559  Biso   1.000  C
  N198     1.0000 0.21446  0.05817  0.25878  Biso   1.000  N
  C373     1.0000 0.21669  0.07377  0.06559  Biso   1.000  C
  C374     1.0000 0.21676  0.07382  0.06559  Biso   1.000  C
  C375     1.0000 0.21676  0.07377  0.06559  Biso   1.000  C
  C376     1.0000 0.03870  0.12821  0.13708  Biso   1.000  C
  O104     1.0000 0.29042  0.00000  0.39746  Biso   1.000  O
  N199     1.0000 0.03171  0.21953  0.63441  Biso   1.000  N
  O105     1.0000 0.11933  0.15337  0.75420  Biso   1.000  O
  N200     1.0000 0.03171  0.21958  0.63441  Biso   1.000  N
  O106     1.0000 0.11933  0.15343  0.75420  Biso   1.000  O
  N201     1.0000 0.03178  0.21953  0.63441  Biso   1.000  N
  N202     1.0000 0.03178  0.21958  0.63441  Biso   1.000  N
  H475     1.0000 0.93633  0.29461  0.62309  Biso   1.000  H
  H476     1.0000 0.93633  0.29456  0.62309  Biso   1.000  H
  H477     1.0000 0.90149  0.28962  0.81971  Biso   1.000  H
  H478     1.0000 0.82033  0.23891  0.83589  Biso   1.000  H
  H479     1.0000 0.81382  0.29288  0.74161  Biso   1.000  H
  H480     1.0000 0.90149  0.28956  0.81971  Biso   1.000  H
  H481     1.0000 0.82033  0.23886  0.83589  Biso   1.000  H
  H482     1.0000 0.90156  0.28962  0.81971  Biso   1.000  H
  H483     1.0000 0.90156  0.28956  0.81971  Biso   1.000  H
  C377     1.0000 0.89609  0.24800  0.42217  Biso   1.000  C
  C378     1.0000 0.89616  0.24800  0.42217  Biso   1.000  C
  C379     1.0000 0.24434  0.12831  0.29242  Biso   1.000  C
  C380     1.0000 0.24440  0.12831  0.29242  Biso   1.000  C
  H484     1.0000 0.18980  0.05669  0.99872  Biso   1.000  H
  H485     1.0000 0.18980  0.05675  0.99872  Biso   1.000  H
  H486     1.0000 0.18973  0.05669  0.99872  Biso   1.000  H
  H487     1.0000 0.18973  0.05675  0.99872  Biso   1.000  H
  H488     1.0000 0.27968  0.06148  0.07269  Biso   1.000  H
  H489     1.0000 0.21060  0.12400  0.06830  Biso   1.000  H
  H490     1.0000 0.27968  0.06153  0.07269  Biso   1.000  H
  H491     1.0000 0.21060  0.12395  0.06830  Biso   1.000  H
  H492     1.0000 0.27975  0.06148  0.07269  Biso   1.000  H
  H493     1.0000 0.27975  0.06153  0.07269  Biso   1.000  H
  H494     1.0000 0.97869  0.12610  0.10050  Biso   1.000  H
  H495     1.0000 0.97869  0.12605  0.10050  Biso   1.000  H
  H496     1.0000 0.97875  0.12610  0.10050  Biso   1.000  H
  H497     1.0000 0.97875  0.12605  0.10050  Biso   1.000  H
  H498     1.0000 0.07691  0.15448  0.09229  Biso   1.000  H
  N203     1.0000 0.03340  0.16635  0.23703  Biso   1.000  N
  H499     1.0000 0.07691  0.15453  0.09229  Biso   1.000  H
  N204     1.0000 0.03347  0.16635  0.23703  Biso   1.000  N
  C381     1.0000 0.10390  0.24800  0.57782  Biso   1.000  C
  C382     1.0000 0.10397  0.24800  0.57782  Biso   1.000  C
  N205     1.0000 0.96829  0.21953  0.36558  Biso   1.000  N
  N206     1.0000 0.96829  0.21958  0.36558  Biso   1.000  N
  H500     1.0000 0.83908  0.24017  0.38033  Biso   1.000  H
  H501     1.0000 0.90449  0.29829  0.42966  Biso   1.000  H
  H502     1.0000 0.83915  0.24017  0.38033  Biso   1.000  H
  H503     1.0000 0.90456  0.29829  0.42966  Biso   1.000  H
  H504     1.0000 0.29780  0.12411  0.34167  Biso   1.000  H
  H505     1.0000 0.26121  0.15411  0.23057  Biso   1.000  H
  N207     1.0000 0.17775  0.16735  0.34223  Biso   1.000  N
  H506     1.0000 0.29780  0.12405  0.34167  Biso   1.000  H
  H507     1.0000 0.26121  0.15406  0.23057  Biso   1.000  H
  H508     1.0000 0.29787  0.12411  0.34167  Biso   1.000  H
  H509     1.0000 0.29787  0.12405  0.34167  Biso   1.000  H
  C383     1.0000 0.95338  0.17576  0.27871  Biso   1.000  C
  C384     1.0000 0.95345  0.17576  0.27871  Biso   1.000  C
  C385     1.0000 0.10662  0.20849  0.28716  Biso   1.000  C
  C386     1.0000 0.10662  0.20844  0.28716  Biso   1.000  C
  N208     1.0000 0.10923  0.21748  0.47326  Biso   1.000  N
  H510     1.0000 0.16091  0.24017  0.61967  Biso   1.000  H
  H511     1.0000 0.09550  0.29829  0.57033  Biso   1.000  H
  H512     1.0000 0.16098  0.24017  0.61967  Biso   1.000  H
  H513     1.0000 0.09557  0.29829  0.57033  Biso   1.000  H
  C387     1.0000 0.06021  0.24327  0.38057  Biso   1.000  C
  C388     1.0000 0.06027  0.24327  0.38057  Biso   1.000  C
  C389     1.0000 0.18078  0.17612  0.44967  Biso   1.000  C
  C390     1.0000 0.18078  0.17618  0.44967  Biso   1.000  C
  C391     1.0000 0.18084  0.17612  0.44967  Biso   1.000  C
  C392     1.0000 0.18084  0.17618  0.44967  Biso   1.000  C
  O107     1.0000 0.88066  0.15337  0.24579  Biso   1.000  O
  O108     1.0000 0.88066  0.15343  0.24579  Biso   1.000  O
  O109     1.0000 0.88073  0.15337  0.24579  Biso   1.000  O
  O110     1.0000 0.88073  0.15343  0.24579  Biso   1.000  O
  C393     1.0000 0.14639  0.26240  0.21599  Biso   1.000  C
  C394     1.0000 0.14639  0.26235  0.21599  Biso   1.000  C
  C395     1.0000 0.14646  0.26240  0.21599  Biso   1.000  C
  C396     1.0000 0.14646  0.26235  0.21599  Biso   1.000  C
  H514     1.0000 0.06373  0.29461  0.37690  Biso   1.000  H
  H515     1.0000 0.06373  0.29456  0.37690  Biso   1.000  H
  O111     1.0000 0.23920  0.15390  0.51422  Biso   1.000  O
  O112     1.0000 0.23927  0.15390  0.51422  Biso   1.000  O
  H516     1.0000 0.09850  0.28962  0.18028  Biso   1.000  H
  H517     1.0000 0.17973  0.23891  0.16410  Biso   1.000  H
  H518     1.0000 0.18624  0.29288  0.25839  Biso   1.000  H
  H519     1.0000 0.09850  0.28956  0.18028  Biso   1.000  H
  H520     1.0000 0.17973  0.23886  0.16410  Biso   1.000  H
  O113     1.0000 0.73920  0.65390  0.51422  Biso   1.000  O
  C397     1.0000 0.68078  0.67612  0.44967  Biso   1.000  C
  N209     1.0000 0.67775  0.66730  0.34223  Biso   1.000  N
  N210     1.0000 0.60923  0.71742  0.47326  Biso   1.000  N
  C398     1.0000 0.74434  0.62831  0.29242  Biso   1.000  C
  C399     1.0000 0.60662  0.70844  0.28716  Biso   1.000  C
  C400     1.0000 0.56027  0.74322  0.38057  Biso   1.000  C
  C401     1.0000 0.60390  0.74800  0.57782  Biso   1.000  C
  N211     1.0000 0.71446  0.55811  0.25878  Biso   1.000  N
  H521     1.0000 0.79780  0.62411  0.34167  Biso   1.000  H
  H522     1.0000 0.76121  0.65411  0.23057  Biso   1.000  H
  N212     1.0000 0.53340  0.66635  0.23703  Biso   1.000  N
  C402     1.0000 0.64639  0.76240  0.21599  Biso   1.000  C
  N213     1.0000 0.46829  0.71953  0.36558  Biso   1.000  N
  H523     1.0000 0.56373  0.79456  0.37690  Biso   1.000  H
  H524     1.0000 0.66091  0.74017  0.61967  Biso   1.000  H
  H525     1.0000 0.59557  0.79829  0.57033  Biso   1.000  H
  N214     1.0000 0.53178  0.71953  0.63441  Biso   1.000  N
  C403     1.0000 0.66858  0.54020  0.15789  Biso   1.000  C
  C404     1.0000 0.74433  0.50000  0.31601  Biso   1.000  C
  C405     1.0000 0.53870  0.62821  0.13708  Biso   1.000  C
  C406     1.0000 0.45345  0.67576  0.27871  Biso   1.000  C
  H526     1.0000 0.59850  0.78956  0.18028  Biso   1.000  H
  H527     1.0000 0.67973  0.73886  0.16410  Biso   1.000  H
  H528     1.0000 0.68624  0.79288  0.25839  Biso   1.000  H
  C407     1.0000 0.39609  0.74800  0.42217  Biso   1.000  C
  C408     1.0000 0.43979  0.74322  0.61943  Biso   1.000  C
  C409     1.0000 0.54662  0.67576  0.72128  Biso   1.000  C
  C410     1.0000 0.66858  0.45975  0.15789  Biso   1.000  C
  N215     1.0000 0.57351  0.55790  0.14904  Biso   1.000  N
  C411     1.0000 0.71669  0.57377  0.06559  Biso   1.000  C
  N216     1.0000 0.71446  0.44183  0.25878  Biso   1.000  N
  O114     1.0000 0.79042  0.50000  0.39746  Biso   1.000  O
  H529     1.0000 0.47869  0.62610  0.10050  Biso   1.000  H
  H530     1.0000 0.57691  0.65448  0.09229  Biso   1.000  H
  O115     1.0000 0.38073  0.65337  0.24579  Biso   1.000  O
  H531     1.0000 0.33915  0.74017  0.38033  Biso   1.000  H
  H532     1.0000 0.40449  0.79829  0.42966  Biso   1.000  H
  N217     1.0000 0.39083  0.71742  0.52666  Biso   1.000  N
  C412     1.0000 0.39344  0.70844  0.71275  Biso   1.000  C
  H533     1.0000 0.43633  0.79456  0.62309  Biso   1.000  H
  N218     1.0000 0.46659  0.66635  0.76297  Biso   1.000  N
  O116     1.0000 0.61933  0.65337  0.75420  Biso   1.000  O
  N219     1.0000 0.57351  0.44210  0.14904  Biso   1.000  N
  C413     1.0000 0.71669  0.42618  0.06559  Biso   1.000  C
  C414     1.0000 0.51973  0.50000  0.14059  Biso   1.000  C
  H534     1.0000 0.77975  0.56148  0.07269  Biso   1.000  H
  H535     1.0000 0.71060  0.62400  0.06830  Biso   1.000  H
  H536     1.0000 0.68980  0.55669  0.99872  Biso   1.000  H
  C415     1.0000 0.74434  0.37164  0.29242  Biso   1.000  C
  C416     1.0000 0.31922  0.67612  0.55033  Biso   1.000  C
  N220     1.0000 0.32231  0.66730  0.65776  Biso   1.000  N
  C417     1.0000 0.35360  0.76240  0.78401  Biso   1.000  C
  C418     1.0000 0.46136  0.62821  0.86291  Biso   1.000  C
  C419     1.0000 0.53870  0.37179  0.13708  Biso   1.000  C
  H537     1.0000 0.77975  0.43847  0.07269  Biso   1.000  H
  H538     1.0000 0.71060  0.37600  0.06830  Biso   1.000  H
  H539     1.0000 0.68980  0.44331  0.99872  Biso   1.000  H
  O117     1.0000 0.43813  0.50000  0.12369  Biso   1.000  O
  N221     1.0000 0.67775  0.33265  0.34223  Biso   1.000  N
  H540     1.0000 0.79780  0.37589  0.34167  Biso   1.000  H
  H541     1.0000 0.76121  0.34589  0.23057  Biso   1.000  H
  O118     1.0000 0.26086  0.65390  0.48577  Biso   1.000  O
  C420     1.0000 0.25573  0.62831  0.70757  Biso   1.000  C
  H542     1.0000 0.40156  0.78956  0.81971  Biso   1.000  H
  H543     1.0000 0.32033  0.73886  0.83589  Biso   1.000  H
  H544     1.0000 0.31382  0.79288  0.74161  Biso   1.000  H
  N222     1.0000 0.42655  0.55790  0.85095  Biso   1.000  N
  H545     1.0000 0.52131  0.62610  0.89949  Biso   1.000  H
  H546     1.0000 0.42315  0.65448  0.90770  Biso   1.000  H
  N223     1.0000 0.53340  0.33360  0.23703  Biso   1.000  N
  H547     1.0000 0.47869  0.37390  0.10050  Biso   1.000  H
  H548     1.0000 0.57691  0.34547  0.09229  Biso   1.000  H
  C421     1.0000 0.60662  0.29151  0.28716  Biso   1.000  C
  C422     1.0000 0.68078  0.32388  0.44967  Biso   1.000  C
  N224     1.0000 0.28561  0.55811  0.74121  Biso   1.000  N
  H549     1.0000 0.20226  0.62411  0.65832  Biso   1.000  H
  H550     1.0000 0.23885  0.65411  0.76942  Biso   1.000  H
  C423     1.0000 0.48033  0.50000  0.85940  Biso   1.000  C
  C424     1.0000 0.33148  0.54020  0.84211  Biso   1.000  C
  C425     1.0000 0.45345  0.32419  0.27871  Biso   1.000  C
  C426     1.0000 0.56027  0.25673  0.38057  Biso   1.000  C
  C427     1.0000 0.64639  0.23760  0.21599  Biso   1.000  C
  N225     1.0000 0.60923  0.28252  0.47326  Biso   1.000  N
  O119     1.0000 0.73920  0.34610  0.51422  Biso   1.000  O
  C428     1.0000 0.25573  0.50000  0.68398  Biso   1.000  C
  N226     1.0000 0.42655  0.44210  0.85095  Biso   1.000  N
  O120     1.0000 0.56194  0.50000  0.87630  Biso   1.000  O
  C429     1.0000 0.33148  0.45975  0.84211  Biso   1.000  C
  C430     1.0000 0.28330  0.57377  0.93440  Biso   1.000  C
  O121     1.0000 0.38073  0.34663  0.24579  Biso   1.000  O
  N227     1.0000 0.46829  0.28042  0.36558  Biso   1.000  N
  H551     1.0000 0.56373  0.20539  0.37690  Biso   1.000  H
  H552     1.0000 0.59850  0.21038  0.18028  Biso   1.000  H
  H553     1.0000 0.67973  0.26109  0.16410  Biso   1.000  H
  H554     1.0000 0.68624  0.20707  0.25839  Biso   1.000  H
  C431     1.0000 0.60390  0.25200  0.57782  Biso   1.000  C
  N228     1.0000 0.28561  0.44183  0.74121  Biso   1.000  N
  O122     1.0000 0.20964  0.50000  0.60253  Biso   1.000  O
  C432     1.0000 0.46136  0.37179  0.86291  Biso   1.000  C
  C433     1.0000 0.28330  0.42618  0.93440  Biso   1.000  C
  H555     1.0000 0.22031  0.56148  0.92731  Biso   1.000  H
  H556     1.0000 0.28946  0.62400  0.93169  Biso   1.000  H
  H557     1.0000 0.31026  0.55669  0.00127  Biso   1.000  H
  C434     1.0000 0.39609  0.25200  0.42217  Biso   1.000  C
  H558     1.0000 0.66091  0.25977  0.61967  Biso   1.000  H
  H559     1.0000 0.59557  0.20171  0.57033  Biso   1.000  H
  N229     1.0000 0.53178  0.28042  0.63441  Biso   1.000  N
  C435     1.0000 0.25573  0.37164  0.70757  Biso   1.000  C
  N230     1.0000 0.46659  0.33360  0.76297  Biso   1.000  N
  H560     1.0000 0.52131  0.37390  0.89949  Biso   1.000  H
  H561     1.0000 0.42315  0.34547  0.90770  Biso   1.000  H
  H562     1.0000 0.22031  0.43847  0.92731  Biso   1.000  H
  H563     1.0000 0.28946  0.37600  0.93169  Biso   1.000  H
  H564     1.0000 0.31026  0.44331  0.00127  Biso   1.000  H
  H565     1.0000 0.33915  0.25977  0.38033  Biso   1.000  H
  H566     1.0000 0.40449  0.20171  0.42966  Biso   1.000  H
  N231     1.0000 0.39083  0.28252  0.52666  Biso   1.000  N
  C436     1.0000 0.43979  0.25673  0.61943  Biso   1.000  C
  C437     1.0000 0.54662  0.32419  0.72128  Biso   1.000  C
  N232     1.0000 0.32231  0.33265  0.65776  Biso   1.000  N
  H567     1.0000 0.20226  0.37589  0.65832  Biso   1.000  H
  H568     1.0000 0.23885  0.34589  0.76942  Biso   1.000  H
  C438     1.0000 0.39344  0.29151  0.71275  Biso   1.000  C
  C439     1.0000 0.31922  0.32388  0.55033  Biso   1.000  C
  H569     1.0000 0.43633  0.20539  0.62309  Biso   1.000  H
  O123     1.0000 0.61933  0.34663  0.75420  Biso   1.000  O
  C440     1.0000 0.35360  0.23760  0.78401  Biso   1.000  C
  O124     1.0000 0.26086  0.34610  0.48577  Biso   1.000  O
  H570     1.0000 0.40156  0.21038  0.81971  Biso   1.000  H
  H571     1.0000 0.32033  0.26109  0.83589  Biso   1.000  H
  H572     1.0000 0.31382  0.20707  0.74161  Biso   1.000  H
