data_image0
_cell_length_a       12.751
_cell_length_b       15.13
_cell_length_c       19.335
_cell_angle_alpha    91.3
_cell_angle_beta     92.89
_cell_angle_gamma    92.91

_symmetry_space_group_name_H-M    "P 1"
_symmetry_int_tables_number       1

loop_
  _symmetry_equiv_pos_as_xyz
  'x, y, z'

loop_
  _atom_site_label
  _atom_site_occupancy
  _atom_site_fract_x
  _atom_site_fract_y
  _atom_site_fract_z
  _atom_site_thermal_displace_type
  _atom_site_B_iso_or_equiv
  _atom_site_type_symbol
  O1       1.0000 0.43996  0.22470  0.85593  Biso   1.000  O
  C1       1.0000 0.36931  0.16936  0.83904  Biso   1.000  C
  C2       1.0000 0.36938  0.16936  0.83904  Biso   1.000  C
  C3       1.0000 0.36938  0.16929  0.83904  Biso   1.000  C
  N1       1.0000 0.37503  0.10365  0.79024  Biso   1.000  N
  N2       1.0000 0.37502  0.10365  0.79019  Biso   1.000  N
  N3       1.0000 0.37511  0.10365  0.79024  Biso   1.000  N
  N4       1.0000 0.37510  0.10365  0.79019  Biso   1.000  N
  N5       1.0000 0.27135  0.16526  0.86375  Biso   1.000  N
  N6       1.0000 0.27134  0.16526  0.86370  Biso   1.000  N
  N7       1.0000 0.27134  0.16520  0.86375  Biso   1.000  N
  N8       1.0000 0.27142  0.16519  0.86370  Biso   1.000  N
  O2       1.0000 0.43997  0.22477  0.85593  Biso   1.000  O
  O3       1.0000 0.43996  0.22477  0.85587  Biso   1.000  O
  O4       1.0000 0.43996  0.22470  0.85587  Biso   1.000  O
  C4       1.0000 0.27545  0.05242  0.77755  Biso   1.000  C
  C5       1.0000 0.27545  0.05242  0.77750  Biso   1.000  C
  C6       1.0000 0.27552  0.05242  0.77750  Biso   1.000  C
  C7       1.0000 0.46680  0.09882  0.74911  Biso   1.000  C
  C8       1.0000 0.46688  0.09882  0.74911  Biso   1.000  C
  C9       1.0000 0.20237  0.09567  0.82982  Biso   1.000  C
  C10      1.0000 0.20237  0.09560  0.82982  Biso   1.000  C
  C11      1.0000 0.23846  0.23466  0.91022  Biso   1.000  C
  C12      1.0000 0.23845  0.23460  0.91022  Biso   1.000  C
  C13      1.0000 0.23853  0.23460  0.91022  Biso   1.000  C
  C14      1.0000 0.23203  0.05616  0.70311  Biso   1.000  C
  C15      1.0000 0.23210  0.05610  0.70311  Biso   1.000  C
  N9       1.0000 0.28024  0.96149  0.80205  Biso   1.000  N
  N10      1.0000 0.28015  0.96148  0.80200  Biso   1.000  N
  N11      1.0000 0.28023  0.96148  0.80200  Biso   1.000  N
  N12      1.0000 0.53509  0.02782  0.76791  Biso   1.000  N
  H1       1.0000 0.50785  0.15543  0.75414  Biso   1.000  H
  H2       1.0000 0.44344  0.09075  0.70021  Biso   1.000  H
  N13      1.0000 0.53517  0.02782  0.76791  Biso   1.000  N
  C16      1.0000 0.10525  0.13254  0.79325  Biso   1.000  C
  C17      1.0000 0.10525  0.13254  0.79319  Biso   1.000  C
  C18      1.0000 0.10533  0.13254  0.79319  Biso   1.000  C
  N14      1.0000 0.17614  0.02376  0.87572  Biso   1.000  N
  N15      1.0000 0.17621  0.02369  0.87572  Biso   1.000  N
  N16      1.0000 0.23674  0.21044  0.98175  Biso   1.000  N
  H3       1.0000 0.28613  0.28703  0.90674  Biso   1.000  H
  H4       1.0000 0.16782  0.25097  0.89462  Biso   1.000  H
  H5       1.0000 0.28612  0.28703  0.90669  Biso   1.000  H
  H6       1.0000 0.16790  0.25097  0.89462  Biso   1.000  H
  N17      1.0000 0.23682  0.21044  0.98175  Biso   1.000  N
  H7       1.0000 0.28621  0.28703  0.90674  Biso   1.000  H
  H8       1.0000 0.16790  0.25090  0.89462  Biso   1.000  H
  H9       1.0000 0.28620  0.28703  0.90669  Biso   1.000  H
  C19      1.0000 0.20497  0.14997  0.68353  Biso   1.000  C
  H10      1.0000 0.16871  0.01672  0.69695  Biso   1.000  H
  H11      1.0000 0.28421  0.03491  0.67203  Biso   1.000  H
  H12      1.0000 0.16879  0.01672  0.69689  Biso   1.000  H
  H13      1.0000 0.16879  0.01672  0.69695  Biso   1.000  H
  H14      1.0000 0.28429  0.03491  0.67203  Biso   1.000  H
  C20      1.0000 0.20496  0.14990  0.68353  Biso   1.000  C
  C21      1.0000 0.32671  0.89038  0.76434  Biso   1.000  C
  C22      1.0000 0.21756  0.94509  0.85582  Biso   1.000  C
  C23      1.0000 0.21748  0.94509  0.85582  Biso   1.000  C
  C24      1.0000 0.63330  0.04577  0.79713  Biso   1.000  C
  C25      1.0000 0.63338  0.04577  0.79713  Biso   1.000  C
  C26      1.0000 0.63338  0.04570  0.79713  Biso   1.000  C
  C27      1.0000 0.51934  0.93708  0.74113  Biso   1.000  C
  C28      1.0000 0.51927  0.93708  0.74113  Biso   1.000  C
  C29      1.0000 0.13767  0.19376  0.73616  Biso   1.000  C
  C30      1.0000 0.13767  0.19376  0.73611  Biso   1.000  C
  C31      1.0000 0.13767  0.19369  0.73616  Biso   1.000  C
  C32      1.0000 0.13767  0.19369  0.73611  Biso   1.000  C
  H15      1.0000 0.05915  0.08352  0.77356  Biso   1.000  H
  H16      1.0000 0.06595  0.16513  0.82692  Biso   1.000  H
  H17      1.0000 0.05915  0.08352  0.77351  Biso   1.000  H
  H18      1.0000 0.05923  0.08352  0.77351  Biso   1.000  H
  H19      1.0000 0.06603  0.16513  0.82692  Biso   1.000  H
  C33      1.0000 0.10107  0.02866  0.92912  Biso   1.000  C
  C34      1.0000 0.10107  0.02860  0.92912  Biso   1.000  C
  C35      1.0000 0.10115  0.02860  0.92912  Biso   1.000  C
  C36      1.0000 0.31119  0.24111  0.02967  Biso   1.000  C
  C37      1.0000 0.14875  0.16220  0.01258  Biso   1.000  C
  C38      1.0000 0.14883  0.16220  0.01258  Biso   1.000  C
  C39      1.0000 0.31118  0.24104  0.02967  Biso   1.000  C
  C40      1.0000 0.14882  0.16213  0.01258  Biso   1.000  C
  C41      1.0000 0.31111  0.24104  0.02967  Biso   1.000  C
  C42      1.0000 0.14874  0.16213  0.01258  Biso   1.000  C
  H20      1.0000 0.27021  0.18611  0.67964  Biso   1.000  H
  H21      1.0000 0.16716  0.14764  0.63805  Biso   1.000  H
  H22      1.0000 0.27021  0.18611  0.67959  Biso   1.000  H
  H23      1.0000 0.16715  0.14764  0.63800  Biso   1.000  H
  H24      1.0000 0.27029  0.18611  0.67964  Biso   1.000  H
  H25      1.0000 0.27029  0.18611  0.67959  Biso   1.000  H
  N18      1.0000 0.43962  0.88682  0.77703  Biso   1.000  N
  H26      1.0000 0.29307  0.83388  0.77703  Biso   1.000  H
  H27      1.0000 0.31174  0.89757  0.71461  Biso   1.000  H
  H28      1.0000 0.29299  0.83388  0.77703  Biso   1.000  H
  H29      1.0000 0.31166  0.89757  0.71461  Biso   1.000  H
  N19      1.0000 0.43961  0.88675  0.77703  Biso   1.000  N
  O5       1.0000 0.19778  0.87364  0.88105  Biso   1.000  O
  O6       1.0000 0.19769  0.87364  0.88100  Biso   1.000  O
  O7       1.0000 0.19769  0.87357  0.88105  Biso   1.000  O
  O8       1.0000 0.19777  0.87357  0.88100  Biso   1.000  O
  O9       1.0000 0.66960  0.11957  0.81573  Biso   1.000  O
  O10      1.0000 0.66968  0.11957  0.81573  Biso   1.000  O
  O11      1.0000 0.66967  0.11950  0.81573  Biso   1.000  O
  N20      1.0000 0.68554  0.96894  0.79926  Biso   1.000  N
  N21      1.0000 0.68546  0.96894  0.79920  Biso   1.000  N
  N22      1.0000 0.68546  0.96887  0.79926  Biso   1.000  N
  N23      1.0000 0.68553  0.96887  0.79920  Biso   1.000  N
  C43      1.0000 0.62426  0.89428  0.76636  Biso   1.000  C
  C44      1.0000 0.50300  0.93348  0.66255  Biso   1.000  C
  C45      1.0000 0.62417  0.89428  0.76631  Biso   1.000  C
  C46      1.0000 0.50300  0.93348  0.66250  Biso   1.000  C
  C47      1.0000 0.62418  0.89428  0.76636  Biso   1.000  C
  H30      1.0000 0.17706  0.24572  0.75693  Biso   1.000  H
  H31      1.0000 0.07423  0.21415  0.71192  Biso   1.000  H
  H32      1.0000 0.07430  0.21409  0.71192  Biso   1.000  H
  N24      1.0000 0.14166  0.06764  0.99434  Biso   1.000  N
  H33      1.0000 0.04253  0.06305  0.91182  Biso   1.000  H
  H34      1.0000 0.04261  0.06305  0.91182  Biso   1.000  H
  N25      1.0000 0.14174  0.06764  0.99434  Biso   1.000  N
  H35      1.0000 0.07259  0.96870  0.93726  Biso   1.000  H
  H36      1.0000 0.07251  0.96870  0.93720  Biso   1.000  H
  H37      1.0000 0.07252  0.96870  0.93726  Biso   1.000  H
  O12      1.0000 0.38780  0.29032  0.01848  Biso   1.000  O
  N26      1.0000 0.28531  0.21201  0.09359  Biso   1.000  N
  O13      1.0000 0.38780  0.29031  0.01843  Biso   1.000  O
  O14      1.0000 0.38780  0.29025  0.01848  Biso   1.000  O
  N27      1.0000 0.28530  0.21194  0.09359  Biso   1.000  N
  O15      1.0000 0.38771  0.29025  0.01843  Biso   1.000  O
  N28      1.0000 0.28522  0.21194  0.09359  Biso   1.000  N
  C48      1.0000 0.04586  0.20815  0.99895  Biso   1.000  C
  C49      1.0000 0.04585  0.20815  0.99890  Biso   1.000  C
  C50      1.0000 0.04593  0.20815  0.99895  Biso   1.000  C
  C51      1.0000 0.04593  0.20815  0.99890  Biso   1.000  C
  C52      1.0000 0.18392  0.16338  0.09209  Biso   1.000  C
  C53      1.0000 0.18384  0.16338  0.09209  Biso   1.000  C
  C54      1.0000 0.48178  0.82317  0.81853  Biso   1.000  C
  C55      1.0000 0.48170  0.82324  0.81853  Biso   1.000  C
  C56      1.0000 0.48170  0.82317  0.81853  Biso   1.000  C
  C57      1.0000 0.79386  0.96701  0.82562  Biso   1.000  C
  C58      1.0000 0.79378  0.96701  0.82562  Biso   1.000  C
  N29      1.0000 0.58823  0.82909  0.81531  Biso   1.000  N
  N30      1.0000 0.58815  0.82909  0.81531  Biso   1.000  N
  C59      1.0000 0.67884  0.85381  0.70596  Biso   1.000  C
  C60      1.0000 0.67876  0.85381  0.70591  Biso   1.000  C
  C61      1.0000 0.67876  0.85375  0.70596  Biso   1.000  C
  C62      1.0000 0.67884  0.85381  0.70591  Biso   1.000  C
  C63      1.0000 0.60040  0.96952  0.62893  Biso   1.000  C
  H38      1.0000 0.48680  0.87221  0.64665  Biso   1.000  H
  H39      1.0000 0.44327  0.96850  0.64861  Biso   1.000  H
  C64      1.0000 0.60032  0.96952  0.62893  Biso   1.000  C
  H40      1.0000 0.48680  0.87221  0.64659  Biso   1.000  H
  H41      1.0000 0.44319  0.96850  0.64861  Biso   1.000  H
  C65      1.0000 0.60040  0.96945  0.62893  Biso   1.000  C
  H42      1.0000 0.48680  0.87215  0.64665  Biso   1.000  H
  H43      1.0000 0.48679  0.87214  0.64659  Biso   1.000  H
  C66      1.0000 0.16481  0.01608  0.04951  Biso   1.000  C
  C67      1.0000 0.16480  0.01608  0.04946  Biso   1.000  C
  C68      1.0000 0.16473  0.01608  0.04946  Biso   1.000  C
  C69      1.0000 0.34856  0.23943  0.15571  Biso   1.000  C
  C70      1.0000 0.34856  0.23943  0.15565  Biso   1.000  C
  C71      1.0000 0.34864  0.23936  0.15571  Biso   1.000  C
  C72      1.0000 0.34856  0.23936  0.15565  Biso   1.000  C
  H44      1.0000 0.03138  0.21235  0.94886  Biso   1.000  H
  H45      1.0000 0.03137  0.21235  0.94881  Biso   1.000  H
  H46      1.0000 0.98769  0.17296  0.01781  Biso   1.000  H
  H47      1.0000 0.98761  0.17296  0.01776  Biso   1.000  H
  H48      1.0000 0.98761  0.17296  0.01781  Biso   1.000  H
  H49      1.0000 0.98769  0.17296  0.01776  Biso   1.000  H
  C73      1.0000 0.05281  0.30076  0.03236  Biso   1.000  C
  C74      1.0000 0.05273  0.30076  0.03236  Biso   1.000  C
  N31      1.0000 0.19197  0.06967  0.10618  Biso   1.000  N
  N32      1.0000 0.19205  0.06967  0.10618  Biso   1.000  N
  C75      1.0000 0.10445  0.20736  0.13618  Biso   1.000  C
  C76      1.0000 0.10453  0.20743  0.13618  Biso   1.000  C
  C77      1.0000 0.10453  0.20736  0.13618  Biso   1.000  C
  O16      1.0000 0.43035  0.76923  0.85106  Biso   1.000  O
  O17      1.0000 0.43027  0.76923  0.85101  Biso   1.000  O
  O18      1.0000 0.43035  0.76917  0.85106  Biso   1.000  O
  O19      1.0000 0.43034  0.76916  0.85101  Biso   1.000  O
  H50      1.0000 0.82506  0.02755  0.82702  Biso   1.000  H
  N33      1.0000 0.80801  0.93044  0.89385  Biso   1.000  N
  H51      1.0000 0.83265  0.93234  0.79304  Biso   1.000  H
  N34      1.0000 0.80801  0.93044  0.89379  Biso   1.000  N
  H52      1.0000 0.83257  0.93234  0.79304  Biso   1.000  H
  N35      1.0000 0.80801  0.93037  0.89385  Biso   1.000  N
  H53      1.0000 0.83257  0.93227  0.79304  Biso   1.000  H
  N36      1.0000 0.80800  0.93037  0.89379  Biso   1.000  N
  C78      1.0000 0.65142  0.76068  0.84432  Biso   1.000  C
  C79      1.0000 0.65134  0.76068  0.84432  Biso   1.000  C
  H54      1.0000 0.74604  0.83180  0.72316  Biso   1.000  H
  H55      1.0000 0.63525  0.80322  0.68643  Biso   1.000  H
  C80      1.0000 0.69914  0.91928  0.64903  Biso   1.000  C
  H56      1.0000 0.74596  0.83180  0.72311  Biso   1.000  H
  H57      1.0000 0.63517  0.80322  0.68643  Biso   1.000  H
  C81      1.0000 0.69906  0.91928  0.64903  Biso   1.000  C
  H58      1.0000 0.74596  0.83180  0.72316  Biso   1.000  H
  H59      1.0000 0.63516  0.80315  0.68643  Biso   1.000  H
  H60      1.0000 0.74604  0.83180  0.72311  Biso   1.000  H
  H61      1.0000 0.61313  0.03204  0.64255  Biso   1.000  H
  H62      1.0000 0.61312  0.03203  0.64250  Biso   1.000  H
  H63      1.0000 0.61320  0.03203  0.64250  Biso   1.000  H
  H64      1.0000 0.58802  0.96590  0.57853  Biso   1.000  H
  H65      1.0000 0.58794  0.96590  0.57853  Biso   1.000  H
  O20      1.0000 0.15724  0.93584  0.04858  Biso   1.000  O
  H66      1.0000 0.30187  0.25943  0.19088  Biso   1.000  H
  H67      1.0000 0.39539  0.28996  0.14467  Biso   1.000  H
  N37      1.0000 0.41175  0.17101  0.18471  Biso   1.000  N
  N38      1.0000 0.41183  0.17101  0.18466  Biso   1.000  N
  H68      1.0000 0.30195  0.25936  0.19088  Biso   1.000  H
  N39      1.0000 0.41183  0.17095  0.18471  Biso   1.000  N
  H69      1.0000 0.30187  0.25936  0.19088  Biso   1.000  H
  H70      1.0000 0.39531  0.28996  0.14467  Biso   1.000  H
  N40      1.0000 0.41175  0.17094  0.18466  Biso   1.000  N
  H71      1.0000 0.98487  0.32760  0.02527  Biso   1.000  H
  H72      1.0000 0.98479  0.32760  0.02527  Biso   1.000  H
  C82      1.0000 0.08231  0.29996  0.11007  Biso   1.000  C
  H73      1.0000 0.10558  0.33747  0.00947  Biso   1.000  H
  C83      1.0000 0.08223  0.29996  0.11007  Biso   1.000  C
  H74      1.0000 0.10550  0.33747  0.00947  Biso   1.000  H
  C84      1.0000 0.20620  0.03309  0.17441  Biso   1.000  C
  C85      1.0000 0.20620  0.03309  0.17435  Biso   1.000  C
  H75      1.0000 0.03867  0.17071  0.13447  Biso   1.000  H
  H76      1.0000 0.13188  0.21210  0.18451  Biso   1.000  H
  H77      1.0000 0.13188  0.21210  0.18446  Biso   1.000  H
  H78      1.0000 0.03874  0.17064  0.13447  Biso   1.000  H
  H79      1.0000 0.13196  0.21210  0.18451  Biso   1.000  H
  H80      1.0000 0.03866  0.17064  0.13447  Biso   1.000  H
  C86      1.0000 0.83525  0.98402  0.95052  Biso   1.000  C
  C87      1.0000 0.81615  0.83672  0.90794  Biso   1.000  C
  C88      1.0000 0.83518  0.98402  0.95052  Biso   1.000  C
  C89      1.0000 0.81607  0.83672  0.90794  Biso   1.000  C
  N41      1.0000 0.71476  0.78810  0.90643  Biso   1.000  N
  H81      1.0000 0.69811  0.74068  0.80915  Biso   1.000  H
  H82      1.0000 0.60467  0.71014  0.85536  Biso   1.000  H
  N42      1.0000 0.71468  0.78810  0.90643  Biso   1.000  N
  H83      1.0000 0.69811  0.74067  0.80910  Biso   1.000  H
  H84      1.0000 0.60459  0.71014  0.85531  Biso   1.000  H
  H85      1.0000 0.60459  0.71007  0.85536  Biso   1.000  H
  H86      1.0000 0.60459  0.71007  0.85531  Biso   1.000  H
  H87      1.0000 0.72170  0.88738  0.60816  Biso   1.000  H
  H88      1.0000 0.75624  0.96188  0.66483  Biso   1.000  H
  H89      1.0000 0.72161  0.88738  0.60811  Biso   1.000  H
  H90      1.0000 0.75616  0.96188  0.66483  Biso   1.000  H
  H91      1.0000 0.72169  0.88738  0.60811  Biso   1.000  H
  C90      1.0000 0.37581  0.10582  0.23367  Biso   1.000  C
  C91      1.0000 0.51829  0.17693  0.18150  Biso   1.000  C
  C92      1.0000 0.51828  0.17693  0.18145  Biso   1.000  C
  C93      1.0000 0.37580  0.10575  0.23367  Biso   1.000  C
  C94      1.0000 0.51828  0.17686  0.18150  Biso   1.000  C
  C95      1.0000 0.37572  0.10575  0.23367  Biso   1.000  C
  C96      1.0000 0.51828  0.17686  0.18145  Biso   1.000  C
  H92      1.0000 0.14490  0.33940  0.12007  Biso   1.000  H
  H93      1.0000 0.02481  0.32329  0.13561  Biso   1.000  H
  H94      1.0000 0.02481  0.32329  0.13555  Biso   1.000  H
  H95      1.0000 0.14482  0.33940  0.12007  Biso   1.000  H
  H96      1.0000 0.02473  0.32329  0.13555  Biso   1.000  H
  H97      1.0000 0.17492  0.97256  0.17301  Biso   1.000  H
  H98      1.0000 0.17492  0.97256  0.17296  Biso   1.000  H
  H99      1.0000 0.17500  0.97256  0.17296  Biso   1.000  H
  N43      1.0000 0.31452  0.03116  0.20077  Biso   1.000  N
  H100     1.0000 0.16741  0.06776  0.20699  Biso   1.000  H
  H101     1.0000 0.16742  0.06783  0.20699  Biso   1.000  H
  N44      1.0000 0.31445  0.03116  0.20077  Biso   1.000  N
  H102     1.0000 0.16733  0.06776  0.20699  Biso   1.000  H
  O21      1.0000 0.84275  0.06426  0.95145  Biso   1.000  O
  O22      1.0000 0.84274  0.06426  0.95140  Biso   1.000  O
  O23      1.0000 0.84274  0.06420  0.95145  Biso   1.000  O
  N45      1.0000 0.85825  0.93247  0.00569  Biso   1.000  N
  N46      1.0000 0.85833  0.93247  0.00569  Biso   1.000  N
  N47      1.0000 0.85832  0.93240  0.00569  Biso   1.000  N
  C97      1.0000 0.89553  0.79274  0.86385  Biso   1.000  C
  C98      1.0000 0.85124  0.83790  0.98745  Biso   1.000  C
  C99      1.0000 0.89545  0.79274  0.86380  Biso   1.000  C
  C100     1.0000 0.85115  0.83790  0.98740  Biso   1.000  C
  C101     1.0000 0.89553  0.79268  0.86385  Biso   1.000  C
  C102     1.0000 0.89552  0.79267  0.86380  Biso   1.000  C
  C103     1.0000 0.85123  0.83790  0.98740  Biso   1.000  C
  C104     1.0000 0.68887  0.75899  0.97036  Biso   1.000  C
  C105     1.0000 0.68879  0.75899  0.97031  Biso   1.000  C
  C106     1.0000 0.68880  0.75899  0.97036  Biso   1.000  C
  C107     1.0000 0.48072  0.06302  0.25890  Biso   1.000  C
  C108     1.0000 0.32122  0.14629  0.29407  Biso   1.000  C
  C109     1.0000 0.48071  0.06296  0.25890  Biso   1.000  C
  C110     1.0000 0.48064  0.06296  0.25890  Biso   1.000  C
  C111     1.0000 0.32114  0.14629  0.29407  Biso   1.000  C
  O24      1.0000 0.56963  0.23087  0.14897  Biso   1.000  O
  N48      1.0000 0.56037  0.11328  0.22300  Biso   1.000  N
  O25      1.0000 0.56971  0.23087  0.14897  Biso   1.000  O
  N49      1.0000 0.56045  0.11328  0.22300  Biso   1.000  N
  C112     1.0000 0.36660  0.95433  0.20290  Biso   1.000  C
  C113     1.0000 0.36660  0.95433  0.20285  Biso   1.000  C
  C114     1.0000 0.36668  0.95433  0.20290  Biso   1.000  C
  C115     1.0000 0.36668  0.95433  0.20285  Biso   1.000  C
  C116     1.0000 0.89891  0.97144  0.07091  Biso   1.000  C
  C117     1.0000 0.89891  0.97144  0.07085  Biso   1.000  C
  H103     1.0000 0.96132  0.82939  0.86556  Biso   1.000  H
  H104     1.0000 0.86810  0.78800  0.81552  Biso   1.000  H
  C118     1.0000 0.91775  0.70014  0.88996  Biso   1.000  C
  H105     1.0000 0.96123  0.82939  0.86551  Biso   1.000  H
  C119     1.0000 0.91767  0.70014  0.88991  Biso   1.000  C
  C120     1.0000 0.91767  0.70008  0.88996  Biso   1.000  C
  H106     1.0000 0.96131  0.82939  0.86551  Biso   1.000  H
  C121     1.0000 0.91774  0.70007  0.88991  Biso   1.000  C
  N50      1.0000 0.76316  0.78966  0.01827  Biso   1.000  N
  N51      1.0000 0.76324  0.78966  0.01822  Biso   1.000  N
  N52      1.0000 0.76324  0.78960  0.01827  Biso   1.000  N
  N53      1.0000 0.76323  0.78960  0.01822  Biso   1.000  N
  C122     1.0000 0.95405  0.79195  0.00108  Biso   1.000  C
  C123     1.0000 0.95413  0.79195  0.00108  Biso   1.000  C
  O26      1.0000 0.61226  0.70979  0.98155  Biso   1.000  O
  O27      1.0000 0.61218  0.70979  0.98155  Biso   1.000  O
  N54      1.0000 0.46481  0.97229  0.23211  Biso   1.000  N
  N55      1.0000 0.46481  0.97228  0.23206  Biso   1.000  N
  N56      1.0000 0.46489  0.97222  0.23211  Biso   1.000  N
  N57      1.0000 0.46488  0.97222  0.23206  Biso   1.000  N
  C124     1.0000 0.49698  0.06662  0.33748  Biso   1.000  C
  C125     1.0000 0.49706  0.06656  0.33748  Biso   1.000  C
  C126     1.0000 0.49698  0.06656  0.33748  Biso   1.000  C
  H107     1.0000 0.25402  0.16830  0.27687  Biso   1.000  H
  H108     1.0000 0.36482  0.19689  0.31360  Biso   1.000  H
  C127     1.0000 0.30093  0.08083  0.35100  Biso   1.000  C
  C128     1.0000 0.30092  0.08076  0.35100  Biso   1.000  C
  H109     1.0000 0.25394  0.16830  0.27687  Biso   1.000  H
  H110     1.0000 0.36474  0.19689  0.31360  Biso   1.000  H
  C129     1.0000 0.30084  0.08076  0.35100  Biso   1.000  C
  C130     1.0000 0.67327  0.10972  0.23569  Biso   1.000  C
  C131     1.0000 0.67335  0.10966  0.23569  Biso   1.000  C
  C132     1.0000 0.67327  0.10966  0.23569  Biso   1.000  C
  O28      1.0000 0.33031  0.88054  0.18430  Biso   1.000  O
  O29      1.0000 0.33030  0.88054  0.18425  Biso   1.000  O
  O30      1.0000 0.33039  0.88054  0.18430  Biso   1.000  O
  O31      1.0000 0.33038  0.88054  0.18425  Biso   1.000  O
  H111     1.0000 0.95737  0.93706  0.08821  Biso   1.000  H
  N58      1.0000 0.82377  0.97634  0.12431  Biso   1.000  N
  H112     1.0000 0.95737  0.93705  0.08816  Biso   1.000  H
  N59      1.0000 0.82376  0.97634  0.12426  Biso   1.000  N
  H113     1.0000 0.95745  0.93706  0.08821  Biso   1.000  H
  N60      1.0000 0.82385  0.97634  0.12431  Biso   1.000  N
  H114     1.0000 0.95745  0.93705  0.08816  Biso   1.000  H
  N61      1.0000 0.82384  0.97634  0.12426  Biso   1.000  N
  H115     1.0000 0.92747  0.03140  0.06277  Biso   1.000  H
  H116     1.0000 0.92746  0.03133  0.06277  Biso   1.000  H
  H117     1.0000 0.92739  0.03140  0.06277  Biso   1.000  H
  H118     1.0000 0.85517  0.66071  0.87996  Biso   1.000  H
  H119     1.0000 0.97525  0.67681  0.86442  Biso   1.000  H
  C133     1.0000 0.94725  0.69935  0.96766  Biso   1.000  C
  H120     1.0000 0.85508  0.66070  0.87991  Biso   1.000  H
  H121     1.0000 0.97517  0.67681  0.86442  Biso   1.000  H
  C134     1.0000 0.94717  0.69934  0.96761  Biso   1.000  C
  H122     1.0000 0.85509  0.66071  0.87996  Biso   1.000  H
  C135     1.0000 0.94717  0.69928  0.96766  Biso   1.000  C
  C136     1.0000 0.94724  0.69928  0.96761  Biso   1.000  C
  C137     1.0000 0.76153  0.76544  0.08981  Biso   1.000  C
  C138     1.0000 0.76152  0.76544  0.08976  Biso   1.000  C
  H123     1.0000 0.96861  0.78775  0.05117  Biso   1.000  H
  H124     1.0000 0.01237  0.82715  0.98222  Biso   1.000  H
  H125     1.0000 0.01237  0.82708  0.98222  Biso   1.000  H
  C139     1.0000 0.53311  0.90129  0.25092  Biso   1.000  C
  C140     1.0000 0.53310  0.90129  0.25087  Biso   1.000  C
  C141     1.0000 0.53318  0.90122  0.25092  Biso   1.000  C
  C142     1.0000 0.53318  0.90122  0.25087  Biso   1.000  C
  C143     1.0000 0.39958  0.03059  0.37110  Biso   1.000  C
  H126     1.0000 0.51318  0.12789  0.35338  Biso   1.000  H
  H127     1.0000 0.55680  0.03160  0.35141  Biso   1.000  H
  H128     1.0000 0.55679  0.03160  0.35136  Biso   1.000  H
  C144     1.0000 0.39966  0.03059  0.37110  Biso   1.000  C
  H129     1.0000 0.51326  0.12789  0.35338  Biso   1.000  H
  H130     1.0000 0.27829  0.11272  0.39187  Biso   1.000  H
  H131     1.0000 0.24382  0.03823  0.33520  Biso   1.000  H
  H132     1.0000 0.24382  0.03822  0.33515  Biso   1.000  H
  H133     1.0000 0.27836  0.11266  0.39187  Biso   1.000  H
  H134     1.0000 0.24382  0.03816  0.33520  Biso   1.000  H
  H135     1.0000 0.27828  0.11266  0.39187  Biso   1.000  H
  H136     1.0000 0.24374  0.03816  0.33515  Biso   1.000  H
  N62      1.0000 0.71975  0.03862  0.19798  Biso   1.000  N
  H137     1.0000 0.70700  0.16623  0.22300  Biso   1.000  H
  H138     1.0000 0.68825  0.10253  0.28542  Biso   1.000  H
  H139     1.0000 0.68832  0.10253  0.28537  Biso   1.000  H
  N63      1.0000 0.71982  0.03855  0.19798  Biso   1.000  N
  H140     1.0000 0.70699  0.16616  0.22300  Biso   1.000  H
  H141     1.0000 0.68832  0.10246  0.28542  Biso   1.000  H
  N64      1.0000 0.71974  0.03855  0.19798  Biso   1.000  N
  H142     1.0000 0.70691  0.16616  0.22300  Biso   1.000  H
  H143     1.0000 0.68824  0.10246  0.28537  Biso   1.000  H
  C145     1.0000 0.79761  0.90444  0.17021  Biso   1.000  C
  C146     1.0000 0.79761  0.90443  0.17016  Biso   1.000  C
  C147     1.0000 0.78250  0.05501  0.14421  Biso   1.000  C
  C148     1.0000 0.78250  0.05501  0.14415  Biso   1.000  C
  C149     1.0000 0.78250  0.05495  0.14421  Biso   1.000  C
  C150     1.0000 0.78242  0.05494  0.14415  Biso   1.000  C
  H144     1.0000 0.89448  0.66263  0.99056  Biso   1.000  H
  H145     1.0000 0.89440  0.66263  0.99051  Biso   1.000  H
  H146     1.0000 0.89440  0.66256  0.99056  Biso   1.000  H
  H147     1.0000 0.89439  0.66256  0.99051  Biso   1.000  H
  H148     1.0000 0.01511  0.67251  0.97476  Biso   1.000  H
  H149     1.0000 0.01519  0.67251  0.97471  Biso   1.000  H
  H150     1.0000 0.01519  0.67251  0.97476  Biso   1.000  H
  N65      1.0000 0.72864  0.83484  0.13628  Biso   1.000  N
  H151     1.0000 0.71378  0.71307  0.09328  Biso   1.000  H
  H152     1.0000 0.83208  0.74913  0.10541  Biso   1.000  H
  H153     1.0000 0.83208  0.74913  0.10535  Biso   1.000  H
  H154     1.0000 0.71385  0.71301  0.09328  Biso   1.000  H
  H155     1.0000 0.83216  0.74913  0.10541  Biso   1.000  H
  H156     1.0000 0.83216  0.74913  0.10535  Biso   1.000  H
  N66      1.0000 0.62488  0.89645  0.20979  Biso   1.000  N
  H157     1.0000 0.49214  0.84468  0.24589  Biso   1.000  H
  H158     1.0000 0.55654  0.90936  0.29982  Biso   1.000  H
  N67      1.0000 0.62496  0.89645  0.20979  Biso   1.000  N
  H159     1.0000 0.55654  0.90935  0.29977  Biso   1.000  H
  H160     1.0000 0.49213  0.84461  0.24589  Biso   1.000  H
  H161     1.0000 0.38686  0.96807  0.35748  Biso   1.000  H
  H162     1.0000 0.41197  0.03420  0.42150  Biso   1.000  H
  H163     1.0000 0.41204  0.03420  0.42145  Biso   1.000  H
  H164     1.0000 0.41205  0.03420  0.42150  Biso   1.000  H
  H165     1.0000 0.41196  0.03420  0.42145  Biso   1.000  H
  C151     1.0000 0.72453  0.94769  0.22248  Biso   1.000  C
  C152     1.0000 0.72453  0.94762  0.22248  Biso   1.000  C
  C153     1.0000 0.89473  0.86757  0.20678  Biso   1.000  C
  O32      1.0000 0.80229  0.12646  0.11898  Biso   1.000  O
  O33      1.0000 0.80221  0.12646  0.11898  Biso   1.000  O
  C154     1.0000 0.63060  0.83074  0.16099  Biso   1.000  C
  C155     1.0000 0.63068  0.83074  0.16099  Biso   1.000  C
  C156     1.0000 0.76788  0.94394  0.29692  Biso   1.000  C
  C157     1.0000 0.76795  0.94394  0.29687  Biso   1.000  C
  C158     1.0000 0.76796  0.94394  0.29692  Biso   1.000  C
  C159     1.0000 0.86231  0.80634  0.26387  Biso   1.000  C
  H166     1.0000 0.94083  0.91658  0.22647  Biso   1.000  H
  H167     1.0000 0.93403  0.83498  0.17311  Biso   1.000  H
  H168     1.0000 0.93403  0.83497  0.17306  Biso   1.000  H
  H169     1.0000 0.94083  0.91651  0.22647  Biso   1.000  H
  H170     1.0000 0.93403  0.83491  0.17311  Biso   1.000  H
  C160     1.0000 0.86239  0.80634  0.26387  Biso   1.000  C
  H171     1.0000 0.93402  0.83491  0.17306  Biso   1.000  H
  O34      1.0000 0.56002  0.77534  0.14410  Biso   1.000  O
  O35      1.0000 0.56009  0.77534  0.14410  Biso   1.000  O
  H172     1.0000 0.83119  0.98338  0.30308  Biso   1.000  H
  H173     1.0000 0.71570  0.96520  0.32800  Biso   1.000  H
  C161     1.0000 0.79502  0.85014  0.31650  Biso   1.000  C
  H174     1.0000 0.71569  0.96519  0.32795  Biso   1.000  H
  C162     1.0000 0.79501  0.85013  0.31645  Biso   1.000  C
  H175     1.0000 0.83127  0.98332  0.30308  Biso   1.000  H
  H176     1.0000 0.71577  0.96513  0.32800  Biso   1.000  H
  H177     1.0000 0.71577  0.96513  0.32795  Biso   1.000  H
  C163     1.0000 0.79509  0.85013  0.31645  Biso   1.000  C
  H178     1.0000 0.82293  0.75438  0.24310  Biso   1.000  H
  H179     1.0000 0.92568  0.78595  0.28811  Biso   1.000  H
  H180     1.0000 0.92575  0.78595  0.28806  Biso   1.000  H
  H181     1.0000 0.82292  0.75432  0.24310  Biso   1.000  H
  H182     1.0000 0.92575  0.78595  0.28811  Biso   1.000  H
  H183     1.0000 0.72969  0.81400  0.32038  Biso   1.000  H
  H184     1.0000 0.83283  0.85247  0.36198  Biso   1.000  H
  H185     1.0000 0.72977  0.81393  0.32038  Biso   1.000  H
  O36      1.0000 0.43996  0.22470  0.85593  Biso   1.000  O
  C164     1.0000 0.36938  0.16929  0.83904  Biso   1.000  C
  C165     1.0000 0.36931  0.16936  0.83904  Biso   1.000  C
  C166     1.0000 0.36938  0.16936  0.83904  Biso   1.000  C
  N68      1.0000 0.37503  0.10365  0.79024  Biso   1.000  N
  N69      1.0000 0.37502  0.10365  0.79019  Biso   1.000  N
  N70      1.0000 0.37511  0.10365  0.79024  Biso   1.000  N
  N71      1.0000 0.37510  0.10365  0.79019  Biso   1.000  N
  N72      1.0000 0.27135  0.16526  0.86375  Biso   1.000  N
  N73      1.0000 0.27134  0.16526  0.86370  Biso   1.000  N
  N74      1.0000 0.27134  0.16520  0.86375  Biso   1.000  N
  N75      1.0000 0.27142  0.16519  0.86370  Biso   1.000  N
  O37      1.0000 0.43997  0.22477  0.85593  Biso   1.000  O
  O38      1.0000 0.43996  0.22477  0.85587  Biso   1.000  O
  O39      1.0000 0.43996  0.22470  0.85587  Biso   1.000  O
  C167     1.0000 0.27545  0.05242  0.77755  Biso   1.000  C
  C168     1.0000 0.27545  0.05242  0.77750  Biso   1.000  C
  C169     1.0000 0.27552  0.05242  0.77750  Biso   1.000  C
  C170     1.0000 0.46680  0.09882  0.74911  Biso   1.000  C
  C171     1.0000 0.46688  0.09882  0.74911  Biso   1.000  C
  C172     1.0000 0.20237  0.09567  0.82982  Biso   1.000  C
  C173     1.0000 0.20237  0.09560  0.82982  Biso   1.000  C
  C174     1.0000 0.23846  0.23466  0.91022  Biso   1.000  C
  C175     1.0000 0.23845  0.23460  0.91022  Biso   1.000  C
  C176     1.0000 0.23853  0.23460  0.91022  Biso   1.000  C
  C177     1.0000 0.23203  0.05616  0.70311  Biso   1.000  C
  C178     1.0000 0.23210  0.05610  0.70311  Biso   1.000  C
  N76      1.0000 0.28024  0.96149  0.80205  Biso   1.000  N
  N77      1.0000 0.28015  0.96148  0.80200  Biso   1.000  N
  N78      1.0000 0.28023  0.96148  0.80200  Biso   1.000  N
  H186     1.0000 0.50785  0.15543  0.75414  Biso   1.000  H
  H187     1.0000 0.44344  0.09075  0.70021  Biso   1.000  H
  N79      1.0000 0.53517  0.02782  0.76791  Biso   1.000  N
  N80      1.0000 0.53509  0.02782  0.76791  Biso   1.000  N
  C179     1.0000 0.10525  0.13254  0.79325  Biso   1.000  C
  C180     1.0000 0.10525  0.13254  0.79319  Biso   1.000  C
  C181     1.0000 0.10533  0.13254  0.79319  Biso   1.000  C
  N81      1.0000 0.17614  0.02376  0.87572  Biso   1.000  N
  N82      1.0000 0.17621  0.02369  0.87572  Biso   1.000  N
  N83      1.0000 0.23674  0.21044  0.98175  Biso   1.000  N
  N84      1.0000 0.23682  0.21044  0.98175  Biso   1.000  N
  H188     1.0000 0.16790  0.25090  0.89462  Biso   1.000  H
  H189     1.0000 0.28613  0.28703  0.90674  Biso   1.000  H
  H190     1.0000 0.16782  0.25097  0.89462  Biso   1.000  H
  H191     1.0000 0.28612  0.28703  0.90669  Biso   1.000  H
  H192     1.0000 0.16790  0.25097  0.89462  Biso   1.000  H
  H193     1.0000 0.28621  0.28703  0.90674  Biso   1.000  H
  H194     1.0000 0.28620  0.28703  0.90669  Biso   1.000  H
  C182     1.0000 0.20497  0.14997  0.68353  Biso   1.000  C
  H195     1.0000 0.28421  0.03491  0.67203  Biso   1.000  H
  H196     1.0000 0.16879  0.01672  0.69689  Biso   1.000  H
  H197     1.0000 0.28429  0.03491  0.67203  Biso   1.000  H
  C183     1.0000 0.20496  0.14990  0.68353  Biso   1.000  C
  H198     1.0000 0.16871  0.01672  0.69695  Biso   1.000  H
  H199     1.0000 0.16879  0.01672  0.69695  Biso   1.000  H
  C184     1.0000 0.32671  0.89038  0.76434  Biso   1.000  C
  C185     1.0000 0.21756  0.94509  0.85582  Biso   1.000  C
  C186     1.0000 0.21748  0.94509  0.85582  Biso   1.000  C
  C187     1.0000 0.51934  0.93708  0.74113  Biso   1.000  C
  C188     1.0000 0.51927  0.93708  0.74113  Biso   1.000  C
  C189     1.0000 0.63338  0.04570  0.79713  Biso   1.000  C
  C190     1.0000 0.63330  0.04577  0.79713  Biso   1.000  C
  C191     1.0000 0.63338  0.04577  0.79713  Biso   1.000  C
  C192     1.0000 0.13767  0.19376  0.73616  Biso   1.000  C
  C193     1.0000 0.13767  0.19376  0.73611  Biso   1.000  C
  C194     1.0000 0.13767  0.19369  0.73616  Biso   1.000  C
  C195     1.0000 0.13767  0.19369  0.73611  Biso   1.000  C
  H200     1.0000 0.06595  0.16513  0.82692  Biso   1.000  H
  H201     1.0000 0.05915  0.08352  0.77356  Biso   1.000  H
  H202     1.0000 0.05915  0.08352  0.77351  Biso   1.000  H
  H203     1.0000 0.05923  0.08352  0.77351  Biso   1.000  H
  H204     1.0000 0.06603  0.16513  0.82692  Biso   1.000  H
  C196     1.0000 0.10107  0.02866  0.92912  Biso   1.000  C
  C197     1.0000 0.10107  0.02860  0.92912  Biso   1.000  C
  C198     1.0000 0.10115  0.02860  0.92912  Biso   1.000  C
  C199     1.0000 0.14875  0.16220  0.01258  Biso   1.000  C
  C200     1.0000 0.14883  0.16220  0.01258  Biso   1.000  C
  C201     1.0000 0.14882  0.16213  0.01258  Biso   1.000  C
  C202     1.0000 0.14874  0.16213  0.01258  Biso   1.000  C
  C203     1.0000 0.31119  0.24111  0.02967  Biso   1.000  C
  C204     1.0000 0.31118  0.24104  0.02967  Biso   1.000  C
  C205     1.0000 0.31111  0.24104  0.02967  Biso   1.000  C
  H205     1.0000 0.16716  0.14764  0.63805  Biso   1.000  H
  H206     1.0000 0.16715  0.14764  0.63800  Biso   1.000  H
  H207     1.0000 0.27021  0.18611  0.67964  Biso   1.000  H
  H208     1.0000 0.27021  0.18611  0.67959  Biso   1.000  H
  H209     1.0000 0.27029  0.18611  0.67964  Biso   1.000  H
  H210     1.0000 0.27029  0.18611  0.67959  Biso   1.000  H
  N85      1.0000 0.43962  0.88682  0.77703  Biso   1.000  N
  H211     1.0000 0.29307  0.83388  0.77703  Biso   1.000  H
  H212     1.0000 0.31174  0.89757  0.71461  Biso   1.000  H
  H213     1.0000 0.29299  0.83388  0.77703  Biso   1.000  H
  H214     1.0000 0.31166  0.89757  0.71461  Biso   1.000  H
  N86      1.0000 0.43961  0.88675  0.77703  Biso   1.000  N
  O40      1.0000 0.19778  0.87364  0.88105  Biso   1.000  O
  O41      1.0000 0.19769  0.87364  0.88100  Biso   1.000  O
  O42      1.0000 0.19769  0.87357  0.88105  Biso   1.000  O
  O43      1.0000 0.19777  0.87357  0.88100  Biso   1.000  O
  C206     1.0000 0.62426  0.89428  0.76636  Biso   1.000  C
  C207     1.0000 0.50300  0.93348  0.66255  Biso   1.000  C
  C208     1.0000 0.62417  0.89428  0.76631  Biso   1.000  C
  C209     1.0000 0.50300  0.93348  0.66250  Biso   1.000  C
  C210     1.0000 0.62418  0.89428  0.76636  Biso   1.000  C
  O44      1.0000 0.66967  0.11950  0.81573  Biso   1.000  O
  N87      1.0000 0.68554  0.96894  0.79926  Biso   1.000  N
  N88      1.0000 0.68546  0.96894  0.79920  Biso   1.000  N
  N89      1.0000 0.68546  0.96887  0.79926  Biso   1.000  N
  N90      1.0000 0.68553  0.96887  0.79920  Biso   1.000  N
  O45      1.0000 0.66960  0.11957  0.81573  Biso   1.000  O
  O46      1.0000 0.66968  0.11957  0.81573  Biso   1.000  O
  H215     1.0000 0.17706  0.24572  0.75693  Biso   1.000  H
  H216     1.0000 0.07423  0.21415  0.71192  Biso   1.000  H
  H217     1.0000 0.07430  0.21409  0.71192  Biso   1.000  H
  N91      1.0000 0.14166  0.06764  0.99434  Biso   1.000  N
  H218     1.0000 0.04261  0.06305  0.91182  Biso   1.000  H
  N92      1.0000 0.14174  0.06764  0.99434  Biso   1.000  N
  H219     1.0000 0.07259  0.96870  0.93726  Biso   1.000  H
  H220     1.0000 0.07251  0.96870  0.93720  Biso   1.000  H
  H221     1.0000 0.07252  0.96870  0.93726  Biso   1.000  H
  H222     1.0000 0.04253  0.06305  0.91182  Biso   1.000  H
  C211     1.0000 0.04586  0.20815  0.99895  Biso   1.000  C
  C212     1.0000 0.04585  0.20815  0.99890  Biso   1.000  C
  C213     1.0000 0.04593  0.20815  0.99895  Biso   1.000  C
  C214     1.0000 0.04593  0.20815  0.99890  Biso   1.000  C
  C215     1.0000 0.18392  0.16338  0.09209  Biso   1.000  C
  C216     1.0000 0.18384  0.16338  0.09209  Biso   1.000  C
  O47      1.0000 0.38780  0.29032  0.01848  Biso   1.000  O
  N93      1.0000 0.28531  0.21201  0.09359  Biso   1.000  N
  O48      1.0000 0.38780  0.29031  0.01843  Biso   1.000  O
  O49      1.0000 0.38780  0.29025  0.01848  Biso   1.000  O
  N94      1.0000 0.28530  0.21194  0.09359  Biso   1.000  N
  O50      1.0000 0.38771  0.29025  0.01843  Biso   1.000  O
  N95      1.0000 0.28522  0.21194  0.09359  Biso   1.000  N
  C217     1.0000 0.48178  0.82317  0.81853  Biso   1.000  C
  C218     1.0000 0.48170  0.82324  0.81853  Biso   1.000  C
  C219     1.0000 0.48170  0.82317  0.81853  Biso   1.000  C
  N96      1.0000 0.58823  0.82909  0.81531  Biso   1.000  N
  N97      1.0000 0.58815  0.82909  0.81531  Biso   1.000  N
  C220     1.0000 0.67884  0.85381  0.70596  Biso   1.000  C
  C221     1.0000 0.67876  0.85381  0.70591  Biso   1.000  C
  C222     1.0000 0.67876  0.85375  0.70596  Biso   1.000  C
  C223     1.0000 0.67884  0.85381  0.70591  Biso   1.000  C
  C224     1.0000 0.60040  0.96952  0.62893  Biso   1.000  C
  H223     1.0000 0.48680  0.87221  0.64665  Biso   1.000  H
  H224     1.0000 0.44327  0.96850  0.64861  Biso   1.000  H
  C225     1.0000 0.60032  0.96952  0.62893  Biso   1.000  C
  H225     1.0000 0.48680  0.87221  0.64659  Biso   1.000  H
  H226     1.0000 0.44319  0.96850  0.64861  Biso   1.000  H
  C226     1.0000 0.60040  0.96945  0.62893  Biso   1.000  C
  H227     1.0000 0.48680  0.87215  0.64665  Biso   1.000  H
  H228     1.0000 0.48679  0.87214  0.64659  Biso   1.000  H
  C227     1.0000 0.79386  0.96701  0.82562  Biso   1.000  C
  C228     1.0000 0.79378  0.96701  0.82562  Biso   1.000  C
  C229     1.0000 0.16481  0.01608  0.04951  Biso   1.000  C
  C230     1.0000 0.16480  0.01608  0.04946  Biso   1.000  C
  C231     1.0000 0.16473  0.01608  0.04946  Biso   1.000  C
  H229     1.0000 0.03138  0.21235  0.94886  Biso   1.000  H
  H230     1.0000 0.03137  0.21235  0.94881  Biso   1.000  H
  H231     1.0000 0.98769  0.17296  0.01781  Biso   1.000  H
  H232     1.0000 0.98761  0.17296  0.01776  Biso   1.000  H
  H233     1.0000 0.98761  0.17296  0.01781  Biso   1.000  H
  H234     1.0000 0.98769  0.17296  0.01776  Biso   1.000  H
  C232     1.0000 0.05281  0.30076  0.03236  Biso   1.000  C
  C233     1.0000 0.05273  0.30076  0.03236  Biso   1.000  C
  N98      1.0000 0.19197  0.06967  0.10618  Biso   1.000  N
  N99      1.0000 0.19205  0.06967  0.10618  Biso   1.000  N
  C234     1.0000 0.10445  0.20736  0.13618  Biso   1.000  C
  C235     1.0000 0.10453  0.20743  0.13618  Biso   1.000  C
  C236     1.0000 0.10453  0.20736  0.13618  Biso   1.000  C
  C237     1.0000 0.34856  0.23943  0.15571  Biso   1.000  C
  C238     1.0000 0.34856  0.23943  0.15565  Biso   1.000  C
  C239     1.0000 0.34864  0.23936  0.15571  Biso   1.000  C
  C240     1.0000 0.34856  0.23936  0.15565  Biso   1.000  C
  O51      1.0000 0.43035  0.76923  0.85106  Biso   1.000  O
  O52      1.0000 0.43027  0.76923  0.85101  Biso   1.000  O
  O53      1.0000 0.43035  0.76917  0.85106  Biso   1.000  O
  O54      1.0000 0.43034  0.76916  0.85101  Biso   1.000  O
  C241     1.0000 0.65142  0.76068  0.84432  Biso   1.000  C
  C242     1.0000 0.65134  0.76068  0.84432  Biso   1.000  C
  H235     1.0000 0.74604  0.83180  0.72316  Biso   1.000  H
  H236     1.0000 0.63525  0.80322  0.68643  Biso   1.000  H
  C243     1.0000 0.69914  0.91928  0.64903  Biso   1.000  C
  H237     1.0000 0.74596  0.83180  0.72311  Biso   1.000  H
  H238     1.0000 0.63517  0.80322  0.68643  Biso   1.000  H
  C244     1.0000 0.69906  0.91928  0.64903  Biso   1.000  C
  H239     1.0000 0.74596  0.83180  0.72316  Biso   1.000  H
  H240     1.0000 0.63516  0.80315  0.68643  Biso   1.000  H
  H241     1.0000 0.74604  0.83180  0.72311  Biso   1.000  H
  H242     1.0000 0.61313  0.03204  0.64255  Biso   1.000  H
  H243     1.0000 0.58802  0.96590  0.57853  Biso   1.000  H
  H244     1.0000 0.58794  0.96590  0.57853  Biso   1.000  H
  H245     1.0000 0.61312  0.03203  0.64250  Biso   1.000  H
  H246     1.0000 0.61320  0.03203  0.64250  Biso   1.000  H
  H247     1.0000 0.82506  0.02755  0.82702  Biso   1.000  H
  N100     1.0000 0.80801  0.93044  0.89385  Biso   1.000  N
  H248     1.0000 0.83265  0.93234  0.79304  Biso   1.000  H
  N101     1.0000 0.80801  0.93044  0.89379  Biso   1.000  N
  H249     1.0000 0.83257  0.93234  0.79304  Biso   1.000  H
  N102     1.0000 0.80801  0.93037  0.89385  Biso   1.000  N
  H250     1.0000 0.83257  0.93227  0.79304  Biso   1.000  H
  N103     1.0000 0.80800  0.93037  0.89379  Biso   1.000  N
  O55      1.0000 0.15724  0.93584  0.04858  Biso   1.000  O
  H251     1.0000 0.98487  0.32760  0.02527  Biso   1.000  H
  H252     1.0000 0.98479  0.32760  0.02527  Biso   1.000  H
  C245     1.0000 0.08231  0.29996  0.11007  Biso   1.000  C
  H253     1.0000 0.10558  0.33747  0.00947  Biso   1.000  H
  C246     1.0000 0.08223  0.29996  0.11007  Biso   1.000  C
  H254     1.0000 0.10550  0.33747  0.00947  Biso   1.000  H
  C247     1.0000 0.20620  0.03309  0.17441  Biso   1.000  C
  C248     1.0000 0.20620  0.03309  0.17435  Biso   1.000  C
  H255     1.0000 0.03867  0.17071  0.13447  Biso   1.000  H
  H256     1.0000 0.13188  0.21210  0.18451  Biso   1.000  H
  H257     1.0000 0.13188  0.21210  0.18446  Biso   1.000  H
  H258     1.0000 0.03874  0.17064  0.13447  Biso   1.000  H
  H259     1.0000 0.13196  0.21210  0.18451  Biso   1.000  H
  H260     1.0000 0.03866  0.17064  0.13447  Biso   1.000  H
  H261     1.0000 0.30187  0.25943  0.19088  Biso   1.000  H
  H262     1.0000 0.39539  0.28996  0.14467  Biso   1.000  H
  N104     1.0000 0.41175  0.17101  0.18471  Biso   1.000  N
  N105     1.0000 0.41183  0.17101  0.18466  Biso   1.000  N
  H263     1.0000 0.30195  0.25936  0.19088  Biso   1.000  H
  N106     1.0000 0.41183  0.17095  0.18471  Biso   1.000  N
  H264     1.0000 0.30187  0.25936  0.19088  Biso   1.000  H
  H265     1.0000 0.39531  0.28996  0.14467  Biso   1.000  H
  N107     1.0000 0.41175  0.17094  0.18466  Biso   1.000  N
  N108     1.0000 0.71476  0.78810  0.90643  Biso   1.000  N
  H266     1.0000 0.69811  0.74068  0.80915  Biso   1.000  H
  H267     1.0000 0.60467  0.71014  0.85536  Biso   1.000  H
  N109     1.0000 0.71468  0.78810  0.90643  Biso   1.000  N
  H268     1.0000 0.69811  0.74067  0.80910  Biso   1.000  H
  H269     1.0000 0.60459  0.71014  0.85531  Biso   1.000  H
  H270     1.0000 0.60459  0.71007  0.85536  Biso   1.000  H
  H271     1.0000 0.60459  0.71007  0.85531  Biso   1.000  H
  H272     1.0000 0.72170  0.88738  0.60816  Biso   1.000  H
  H273     1.0000 0.75624  0.96188  0.66483  Biso   1.000  H
  H274     1.0000 0.72161  0.88738  0.60811  Biso   1.000  H
  H275     1.0000 0.75616  0.96188  0.66483  Biso   1.000  H
  H276     1.0000 0.72169  0.88738  0.60811  Biso   1.000  H
  C249     1.0000 0.81615  0.83672  0.90794  Biso   1.000  C
  C250     1.0000 0.81607  0.83672  0.90794  Biso   1.000  C
  C251     1.0000 0.83525  0.98402  0.95052  Biso   1.000  C
  C252     1.0000 0.83518  0.98402  0.95052  Biso   1.000  C
  H277     1.0000 0.14490  0.33940  0.12007  Biso   1.000  H
  H278     1.0000 0.02481  0.32329  0.13561  Biso   1.000  H
  H279     1.0000 0.02481  0.32329  0.13555  Biso   1.000  H
  H280     1.0000 0.14482  0.33940  0.12007  Biso   1.000  H
  H281     1.0000 0.02473  0.32329  0.13555  Biso   1.000  H
  H282     1.0000 0.17492  0.97256  0.17301  Biso   1.000  H
  H283     1.0000 0.17492  0.97256  0.17296  Biso   1.000  H
  H284     1.0000 0.17500  0.97256  0.17296  Biso   1.000  H
  N110     1.0000 0.31452  0.03116  0.20077  Biso   1.000  N
  H285     1.0000 0.16741  0.06776  0.20699  Biso   1.000  H
  H286     1.0000 0.16742  0.06783  0.20699  Biso   1.000  H
  N111     1.0000 0.31445  0.03116  0.20077  Biso   1.000  N
  H287     1.0000 0.16733  0.06776  0.20699  Biso   1.000  H
  C253     1.0000 0.37581  0.10582  0.23367  Biso   1.000  C
  C254     1.0000 0.37580  0.10575  0.23367  Biso   1.000  C
  C255     1.0000 0.37572  0.10575  0.23367  Biso   1.000  C
  C256     1.0000 0.51829  0.17693  0.18150  Biso   1.000  C
  C257     1.0000 0.51828  0.17693  0.18145  Biso   1.000  C
  C258     1.0000 0.51828  0.17686  0.18150  Biso   1.000  C
  C259     1.0000 0.51828  0.17686  0.18145  Biso   1.000  C
  C260     1.0000 0.68887  0.75899  0.97036  Biso   1.000  C
  C261     1.0000 0.68879  0.75899  0.97031  Biso   1.000  C
  C262     1.0000 0.68880  0.75899  0.97036  Biso   1.000  C
  C263     1.0000 0.89553  0.79274  0.86385  Biso   1.000  C
  C264     1.0000 0.85124  0.83790  0.98745  Biso   1.000  C
  C265     1.0000 0.89545  0.79274  0.86380  Biso   1.000  C
  C266     1.0000 0.85115  0.83790  0.98740  Biso   1.000  C
  C267     1.0000 0.89553  0.79268  0.86385  Biso   1.000  C
  C268     1.0000 0.89552  0.79267  0.86380  Biso   1.000  C
  C269     1.0000 0.85123  0.83790  0.98740  Biso   1.000  C
  O56      1.0000 0.84274  0.06426  0.95140  Biso   1.000  O
  N112     1.0000 0.85825  0.93247  0.00569  Biso   1.000  N
  N113     1.0000 0.85833  0.93247  0.00569  Biso   1.000  N
  N114     1.0000 0.85832  0.93240  0.00569  Biso   1.000  N
  O57      1.0000 0.84275  0.06426  0.95145  Biso   1.000  O
  O58      1.0000 0.84274  0.06420  0.95145  Biso   1.000  O
  C270     1.0000 0.36660  0.95433  0.20290  Biso   1.000  C
  C271     1.0000 0.36660  0.95433  0.20285  Biso   1.000  C
  C272     1.0000 0.36668  0.95433  0.20290  Biso   1.000  C
  C273     1.0000 0.36668  0.95433  0.20285  Biso   1.000  C
  C274     1.0000 0.48072  0.06302  0.25890  Biso   1.000  C
  C275     1.0000 0.32122  0.14629  0.29407  Biso   1.000  C
  C276     1.0000 0.48071  0.06296  0.25890  Biso   1.000  C
  C277     1.0000 0.48064  0.06296  0.25890  Biso   1.000  C
  C278     1.0000 0.32114  0.14629  0.29407  Biso   1.000  C
  O59      1.0000 0.56963  0.23087  0.14897  Biso   1.000  O
  N115     1.0000 0.56037  0.11328  0.22300  Biso   1.000  N
  O60      1.0000 0.56971  0.23087  0.14897  Biso   1.000  O
  N116     1.0000 0.56045  0.11328  0.22300  Biso   1.000  N
  O61      1.0000 0.61226  0.70979  0.98155  Biso   1.000  O
  O62      1.0000 0.61218  0.70979  0.98155  Biso   1.000  O
  N117     1.0000 0.76316  0.78966  0.01827  Biso   1.000  N
  N118     1.0000 0.76324  0.78966  0.01822  Biso   1.000  N
  N119     1.0000 0.76324  0.78960  0.01827  Biso   1.000  N
  N120     1.0000 0.76323  0.78960  0.01822  Biso   1.000  N
  H288     1.0000 0.96132  0.82939  0.86556  Biso   1.000  H
  H289     1.0000 0.86810  0.78800  0.81552  Biso   1.000  H
  C279     1.0000 0.91775  0.70014  0.88996  Biso   1.000  C
  H290     1.0000 0.96123  0.82939  0.86551  Biso   1.000  H
  C280     1.0000 0.91767  0.70014  0.88991  Biso   1.000  C
  C281     1.0000 0.91767  0.70008  0.88996  Biso   1.000  C
  H291     1.0000 0.96131  0.82939  0.86551  Biso   1.000  H
  C282     1.0000 0.91774  0.70007  0.88991  Biso   1.000  C
  C283     1.0000 0.95405  0.79195  0.00108  Biso   1.000  C
  C284     1.0000 0.95413  0.79195  0.00108  Biso   1.000  C
  C285     1.0000 0.89891  0.97144  0.07091  Biso   1.000  C
  C286     1.0000 0.89891  0.97144  0.07085  Biso   1.000  C
  N121     1.0000 0.46481  0.97229  0.23211  Biso   1.000  N
  O63      1.0000 0.33031  0.88054  0.18430  Biso   1.000  O
  N122     1.0000 0.46481  0.97228  0.23206  Biso   1.000  N
  O64      1.0000 0.33030  0.88054  0.18425  Biso   1.000  O
  N123     1.0000 0.46489  0.97222  0.23211  Biso   1.000  N
  O65      1.0000 0.33039  0.88054  0.18430  Biso   1.000  O
  N124     1.0000 0.46488  0.97222  0.23206  Biso   1.000  N
  O66      1.0000 0.33038  0.88054  0.18425  Biso   1.000  O
  C287     1.0000 0.49698  0.06662  0.33748  Biso   1.000  C
  C288     1.0000 0.49706  0.06656  0.33748  Biso   1.000  C
  C289     1.0000 0.49698  0.06656  0.33748  Biso   1.000  C
  H292     1.0000 0.25402  0.16830  0.27687  Biso   1.000  H
  H293     1.0000 0.36482  0.19689  0.31360  Biso   1.000  H
  C290     1.0000 0.30093  0.08083  0.35100  Biso   1.000  C
  C291     1.0000 0.30092  0.08076  0.35100  Biso   1.000  C
  H294     1.0000 0.25394  0.16830  0.27687  Biso   1.000  H
  H295     1.0000 0.36474  0.19689  0.31360  Biso   1.000  H
  C292     1.0000 0.30084  0.08076  0.35100  Biso   1.000  C
  C293     1.0000 0.67327  0.10972  0.23569  Biso   1.000  C
  C294     1.0000 0.67335  0.10966  0.23569  Biso   1.000  C
  C295     1.0000 0.67327  0.10966  0.23569  Biso   1.000  C
  C296     1.0000 0.76153  0.76544  0.08981  Biso   1.000  C
  C297     1.0000 0.76152  0.76544  0.08976  Biso   1.000  C
  H296     1.0000 0.85517  0.66071  0.87996  Biso   1.000  H
  H297     1.0000 0.97525  0.67681  0.86442  Biso   1.000  H
  C298     1.0000 0.94725  0.69935  0.96766  Biso   1.000  C
  H298     1.0000 0.85508  0.66070  0.87991  Biso   1.000  H
  H299     1.0000 0.97517  0.67681  0.86442  Biso   1.000  H
  C299     1.0000 0.94717  0.69934  0.96761  Biso   1.000  C
  H300     1.0000 0.85509  0.66071  0.87996  Biso   1.000  H
  C300     1.0000 0.94717  0.69928  0.96766  Biso   1.000  C
  C301     1.0000 0.94724  0.69928  0.96761  Biso   1.000  C
  H301     1.0000 0.96861  0.78775  0.05117  Biso   1.000  H
  H302     1.0000 0.01237  0.82715  0.98222  Biso   1.000  H
  H303     1.0000 0.01237  0.82708  0.98222  Biso   1.000  H
  H304     1.0000 0.95737  0.93706  0.08821  Biso   1.000  H
  N125     1.0000 0.82377  0.97634  0.12431  Biso   1.000  N
  H305     1.0000 0.95737  0.93705  0.08816  Biso   1.000  H
  N126     1.0000 0.82376  0.97634  0.12426  Biso   1.000  N
  H306     1.0000 0.95745  0.93706  0.08821  Biso   1.000  H
  N127     1.0000 0.82385  0.97634  0.12431  Biso   1.000  N
  H307     1.0000 0.95745  0.93705  0.08816  Biso   1.000  H
  N128     1.0000 0.82384  0.97634  0.12426  Biso   1.000  N
  H308     1.0000 0.92747  0.03140  0.06277  Biso   1.000  H
  H309     1.0000 0.92746  0.03133  0.06277  Biso   1.000  H
  H310     1.0000 0.92739  0.03140  0.06277  Biso   1.000  H
  C302     1.0000 0.53311  0.90129  0.25092  Biso   1.000  C
  C303     1.0000 0.53310  0.90129  0.25087  Biso   1.000  C
  C304     1.0000 0.53318  0.90122  0.25092  Biso   1.000  C
  C305     1.0000 0.53318  0.90122  0.25087  Biso   1.000  C
  C306     1.0000 0.39958  0.03059  0.37110  Biso   1.000  C
  H311     1.0000 0.51318  0.12789  0.35338  Biso   1.000  H
  H312     1.0000 0.55680  0.03160  0.35141  Biso   1.000  H
  H313     1.0000 0.55679  0.03160  0.35136  Biso   1.000  H
  C307     1.0000 0.39966  0.03059  0.37110  Biso   1.000  C
  H314     1.0000 0.51326  0.12789  0.35338  Biso   1.000  H
  H315     1.0000 0.27829  0.11272  0.39187  Biso   1.000  H
  H316     1.0000 0.24382  0.03823  0.33520  Biso   1.000  H
  H317     1.0000 0.24382  0.03822  0.33515  Biso   1.000  H
  H318     1.0000 0.27836  0.11266  0.39187  Biso   1.000  H
  H319     1.0000 0.24382  0.03816  0.33520  Biso   1.000  H
  H320     1.0000 0.27828  0.11266  0.39187  Biso   1.000  H
  H321     1.0000 0.24374  0.03816  0.33515  Biso   1.000  H
  N129     1.0000 0.71975  0.03862  0.19798  Biso   1.000  N
  H322     1.0000 0.70700  0.16623  0.22300  Biso   1.000  H
  H323     1.0000 0.68825  0.10253  0.28542  Biso   1.000  H
  H324     1.0000 0.68832  0.10253  0.28537  Biso   1.000  H
  N130     1.0000 0.71982  0.03855  0.19798  Biso   1.000  N
  H325     1.0000 0.70699  0.16616  0.22300  Biso   1.000  H
  H326     1.0000 0.68832  0.10246  0.28542  Biso   1.000  H
  N131     1.0000 0.71974  0.03855  0.19798  Biso   1.000  N
  H327     1.0000 0.70691  0.16616  0.22300  Biso   1.000  H
  H328     1.0000 0.68824  0.10246  0.28537  Biso   1.000  H
  N132     1.0000 0.72864  0.83484  0.13628  Biso   1.000  N
  H329     1.0000 0.71378  0.71307  0.09328  Biso   1.000  H
  H330     1.0000 0.83208  0.74913  0.10541  Biso   1.000  H
  H331     1.0000 0.83208  0.74913  0.10535  Biso   1.000  H
  H332     1.0000 0.71385  0.71301  0.09328  Biso   1.000  H
  H333     1.0000 0.83216  0.74913  0.10541  Biso   1.000  H
  H334     1.0000 0.83216  0.74913  0.10535  Biso   1.000  H
  H335     1.0000 0.89448  0.66263  0.99056  Biso   1.000  H
  H336     1.0000 0.89440  0.66263  0.99051  Biso   1.000  H
  H337     1.0000 0.89440  0.66256  0.99056  Biso   1.000  H
  H338     1.0000 0.89439  0.66256  0.99051  Biso   1.000  H
  H339     1.0000 0.01511  0.67251  0.97476  Biso   1.000  H
  H340     1.0000 0.01519  0.67251  0.97471  Biso   1.000  H
  H341     1.0000 0.01519  0.67251  0.97476  Biso   1.000  H
  C308     1.0000 0.79761  0.90444  0.17021  Biso   1.000  C
  C309     1.0000 0.79761  0.90443  0.17016  Biso   1.000  C
  C310     1.0000 0.78250  0.05501  0.14421  Biso   1.000  C
  C311     1.0000 0.78250  0.05501  0.14415  Biso   1.000  C
  C312     1.0000 0.78250  0.05495  0.14421  Biso   1.000  C
  C313     1.0000 0.78242  0.05494  0.14415  Biso   1.000  C
  N133     1.0000 0.62488  0.89645  0.20979  Biso   1.000  N
  H342     1.0000 0.49214  0.84468  0.24589  Biso   1.000  H
  H343     1.0000 0.55654  0.90936  0.29982  Biso   1.000  H
  N134     1.0000 0.62496  0.89645  0.20979  Biso   1.000  N
  H344     1.0000 0.55654  0.90935  0.29977  Biso   1.000  H
  H345     1.0000 0.49213  0.84461  0.24589  Biso   1.000  H
  H346     1.0000 0.38686  0.96807  0.35748  Biso   1.000  H
  H347     1.0000 0.41197  0.03420  0.42150  Biso   1.000  H
  H348     1.0000 0.41204  0.03420  0.42145  Biso   1.000  H
  H349     1.0000 0.41205  0.03420  0.42150  Biso   1.000  H
  H350     1.0000 0.41196  0.03420  0.42145  Biso   1.000  H
  C314     1.0000 0.72453  0.94769  0.22248  Biso   1.000  C
  C315     1.0000 0.72453  0.94762  0.22248  Biso   1.000  C
  C316     1.0000 0.63060  0.83074  0.16099  Biso   1.000  C
  C317     1.0000 0.63068  0.83074  0.16099  Biso   1.000  C
  C318     1.0000 0.89473  0.86757  0.20678  Biso   1.000  C
  O67      1.0000 0.80229  0.12646  0.11898  Biso   1.000  O
  O68      1.0000 0.80221  0.12646  0.11898  Biso   1.000  O
  C319     1.0000 0.76788  0.94394  0.29692  Biso   1.000  C
  C320     1.0000 0.76795  0.94394  0.29687  Biso   1.000  C
  C321     1.0000 0.76796  0.94394  0.29692  Biso   1.000  C
  O69      1.0000 0.56002  0.77534  0.14410  Biso   1.000  O
  O70      1.0000 0.56009  0.77534  0.14410  Biso   1.000  O
  C322     1.0000 0.86231  0.80634  0.26387  Biso   1.000  C
  H351     1.0000 0.94083  0.91658  0.22647  Biso   1.000  H
  H352     1.0000 0.93403  0.83498  0.17311  Biso   1.000  H
  H353     1.0000 0.93403  0.83497  0.17306  Biso   1.000  H
  H354     1.0000 0.94083  0.91651  0.22647  Biso   1.000  H
  H355     1.0000 0.93403  0.83491  0.17311  Biso   1.000  H
  C323     1.0000 0.86239  0.80634  0.26387  Biso   1.000  C
  H356     1.0000 0.93402  0.83491  0.17306  Biso   1.000  H
  H357     1.0000 0.83119  0.98338  0.30308  Biso   1.000  H
  H358     1.0000 0.71570  0.96520  0.32800  Biso   1.000  H
  C324     1.0000 0.79502  0.85014  0.31650  Biso   1.000  C
  H359     1.0000 0.71569  0.96519  0.32795  Biso   1.000  H
  C325     1.0000 0.79501  0.85013  0.31645  Biso   1.000  C
  H360     1.0000 0.83127  0.98332  0.30308  Biso   1.000  H
  H361     1.0000 0.71577  0.96513  0.32800  Biso   1.000  H
  H362     1.0000 0.71577  0.96513  0.32795  Biso   1.000  H
  C326     1.0000 0.79509  0.85013  0.31645  Biso   1.000  C
  H363     1.0000 0.82293  0.75438  0.24310  Biso   1.000  H
  H364     1.0000 0.92568  0.78595  0.28811  Biso   1.000  H
  H365     1.0000 0.92575  0.78595  0.28806  Biso   1.000  H
  H366     1.0000 0.82292  0.75432  0.24310  Biso   1.000  H
  H367     1.0000 0.92575  0.78595  0.28811  Biso   1.000  H
  H368     1.0000 0.72969  0.81400  0.32038  Biso   1.000  H
  H369     1.0000 0.83283  0.85247  0.36198  Biso   1.000  H
  H370     1.0000 0.72977  0.81393  0.32038  Biso   1.000  H
  O71      1.0000 0.43996  0.22470  0.85593  Biso   1.000  O
  C327     1.0000 0.36931  0.16936  0.83904  Biso   1.000  C
  C328     1.0000 0.36938  0.16936  0.83904  Biso   1.000  C
  C329     1.0000 0.36938  0.16929  0.83904  Biso   1.000  C
  N135     1.0000 0.37503  0.10365  0.79024  Biso   1.000  N
  N136     1.0000 0.37502  0.10365  0.79019  Biso   1.000  N
  N137     1.0000 0.37511  0.10365  0.79024  Biso   1.000  N
  N138     1.0000 0.37510  0.10365  0.79019  Biso   1.000  N
  O72      1.0000 0.43997  0.22477  0.85593  Biso   1.000  O
  N139     1.0000 0.27135  0.16526  0.86375  Biso   1.000  N
  O73      1.0000 0.43996  0.22477  0.85587  Biso   1.000  O
  N140     1.0000 0.27134  0.16526  0.86370  Biso   1.000  N
  N141     1.0000 0.27134  0.16520  0.86375  Biso   1.000  N
  O74      1.0000 0.43996  0.22470  0.85587  Biso   1.000  O
  N142     1.0000 0.27142  0.16519  0.86370  Biso   1.000  N
  C330     1.0000 0.46680  0.09882  0.74911  Biso   1.000  C
  C331     1.0000 0.46688  0.09882  0.74911  Biso   1.000  C
  C332     1.0000 0.27545  0.05242  0.77755  Biso   1.000  C
  C333     1.0000 0.27545  0.05242  0.77750  Biso   1.000  C
  C334     1.0000 0.27552  0.05242  0.77750  Biso   1.000  C
  C335     1.0000 0.20237  0.09567  0.82982  Biso   1.000  C
  C336     1.0000 0.20237  0.09560  0.82982  Biso   1.000  C
  C337     1.0000 0.23846  0.23466  0.91022  Biso   1.000  C
  C338     1.0000 0.23845  0.23460  0.91022  Biso   1.000  C
  C339     1.0000 0.23853  0.23460  0.91022  Biso   1.000  C
  N143     1.0000 0.53517  0.02782  0.76791  Biso   1.000  N
  N144     1.0000 0.53509  0.02782  0.76791  Biso   1.000  N
  H371     1.0000 0.50785  0.15543  0.75414  Biso   1.000  H
  H372     1.0000 0.44344  0.09075  0.70021  Biso   1.000  H
  N145     1.0000 0.28024  0.96149  0.80205  Biso   1.000  N
  N146     1.0000 0.28015  0.96148  0.80200  Biso   1.000  N
  N147     1.0000 0.28023  0.96148  0.80200  Biso   1.000  N
  C340     1.0000 0.23203  0.05616  0.70311  Biso   1.000  C
  C341     1.0000 0.23210  0.05610  0.70311  Biso   1.000  C
  N148     1.0000 0.17614  0.02376  0.87572  Biso   1.000  N
  C342     1.0000 0.10525  0.13254  0.79325  Biso   1.000  C
  C343     1.0000 0.10525  0.13254  0.79319  Biso   1.000  C
  N149     1.0000 0.17621  0.02369  0.87572  Biso   1.000  N
  C344     1.0000 0.10533  0.13254  0.79319  Biso   1.000  C
  N150     1.0000 0.23674  0.21044  0.98175  Biso   1.000  N
  H373     1.0000 0.28613  0.28703  0.90674  Biso   1.000  H
  H374     1.0000 0.16782  0.25097  0.89462  Biso   1.000  H
  H375     1.0000 0.28612  0.28703  0.90669  Biso   1.000  H
  H376     1.0000 0.16790  0.25097  0.89462  Biso   1.000  H
  N151     1.0000 0.23682  0.21044  0.98175  Biso   1.000  N
  H377     1.0000 0.28621  0.28703  0.90674  Biso   1.000  H
  H378     1.0000 0.16790  0.25090  0.89462  Biso   1.000  H
  H379     1.0000 0.28620  0.28703  0.90669  Biso   1.000  H
  C345     1.0000 0.51934  0.93708  0.74113  Biso   1.000  C
  C346     1.0000 0.51927  0.93708  0.74113  Biso   1.000  C
  C347     1.0000 0.63330  0.04577  0.79713  Biso   1.000  C
  C348     1.0000 0.63338  0.04577  0.79713  Biso   1.000  C
  C349     1.0000 0.63338  0.04570  0.79713  Biso   1.000  C
  C350     1.0000 0.32671  0.89038  0.76434  Biso   1.000  C
  C351     1.0000 0.21756  0.94509  0.85582  Biso   1.000  C
  C352     1.0000 0.21748  0.94509  0.85582  Biso   1.000  C
  H380     1.0000 0.16871  0.01672  0.69695  Biso   1.000  H
  H381     1.0000 0.28421  0.03491  0.67203  Biso   1.000  H
  C353     1.0000 0.20497  0.14997  0.68353  Biso   1.000  C
  H382     1.0000 0.16879  0.01672  0.69689  Biso   1.000  H
  H383     1.0000 0.16879  0.01672  0.69695  Biso   1.000  H
  H384     1.0000 0.28429  0.03491  0.67203  Biso   1.000  H
  C354     1.0000 0.20496  0.14990  0.68353  Biso   1.000  C
  C355     1.0000 0.10107  0.02866  0.92912  Biso   1.000  C
  C356     1.0000 0.10107  0.02860  0.92912  Biso   1.000  C
  C357     1.0000 0.10115  0.02860  0.92912  Biso   1.000  C
  C358     1.0000 0.13767  0.19376  0.73616  Biso   1.000  C
  C359     1.0000 0.13767  0.19376  0.73611  Biso   1.000  C
  C360     1.0000 0.13767  0.19369  0.73616  Biso   1.000  C
  C361     1.0000 0.13767  0.19369  0.73611  Biso   1.000  C
  H385     1.0000 0.06595  0.16513  0.82692  Biso   1.000  H
  H386     1.0000 0.05915  0.08352  0.77356  Biso   1.000  H
  H387     1.0000 0.05915  0.08352  0.77351  Biso   1.000  H
  H388     1.0000 0.05923  0.08352  0.77351  Biso   1.000  H
  H389     1.0000 0.06603  0.16513  0.82692  Biso   1.000  H
  C362     1.0000 0.31119  0.24111  0.02967  Biso   1.000  C
  C363     1.0000 0.14875  0.16220  0.01258  Biso   1.000  C
  C364     1.0000 0.14883  0.16220  0.01258  Biso   1.000  C
  C365     1.0000 0.31118  0.24104  0.02967  Biso   1.000  C
  C366     1.0000 0.14882  0.16213  0.01258  Biso   1.000  C
  C367     1.0000 0.31111  0.24104  0.02967  Biso   1.000  C
  C368     1.0000 0.14874  0.16213  0.01258  Biso   1.000  C
  N152     1.0000 0.43962  0.88682  0.77703  Biso   1.000  N
  C369     1.0000 0.62426  0.89428  0.76636  Biso   1.000  C
  C370     1.0000 0.50300  0.93348  0.66255  Biso   1.000  C
  C371     1.0000 0.62417  0.89428  0.76631  Biso   1.000  C
  C372     1.0000 0.50300  0.93348  0.66250  Biso   1.000  C
  N153     1.0000 0.43961  0.88675  0.77703  Biso   1.000  N
  C373     1.0000 0.62418  0.89428  0.76636  Biso   1.000  C
  N154     1.0000 0.68554  0.96894  0.79926  Biso   1.000  N
  N155     1.0000 0.68546  0.96894  0.79920  Biso   1.000  N
  N156     1.0000 0.68546  0.96887  0.79926  Biso   1.000  N
  N157     1.0000 0.68553  0.96887  0.79920  Biso   1.000  N
  O75      1.0000 0.66960  0.11957  0.81573  Biso   1.000  O
  O76      1.0000 0.66968  0.11957  0.81573  Biso   1.000  O
  O77      1.0000 0.66967  0.11950  0.81573  Biso   1.000  O
  H390     1.0000 0.29307  0.83388  0.77703  Biso   1.000  H
  H391     1.0000 0.31174  0.89757  0.71461  Biso   1.000  H
  H392     1.0000 0.29299  0.83388  0.77703  Biso   1.000  H
  H393     1.0000 0.31166  0.89757  0.71461  Biso   1.000  H
  O78      1.0000 0.19778  0.87364  0.88105  Biso   1.000  O
  O79      1.0000 0.19769  0.87364  0.88100  Biso   1.000  O
  O80      1.0000 0.19769  0.87357  0.88105  Biso   1.000  O
  O81      1.0000 0.19777  0.87357  0.88100  Biso   1.000  O
  H394     1.0000 0.27021  0.18611  0.67964  Biso   1.000  H
  H395     1.0000 0.16716  0.14764  0.63805  Biso   1.000  H
  H396     1.0000 0.27021  0.18611  0.67959  Biso   1.000  H
  H397     1.0000 0.16715  0.14764  0.63800  Biso   1.000  H
  H398     1.0000 0.27029  0.18611  0.67964  Biso   1.000  H
  H399     1.0000 0.27029  0.18611  0.67959  Biso   1.000  H
  H400     1.0000 0.04261  0.06305  0.91182  Biso   1.000  H
  H401     1.0000 0.07259  0.96870  0.93726  Biso   1.000  H
  H402     1.0000 0.07251  0.96870  0.93720  Biso   1.000  H
  H403     1.0000 0.07252  0.96870  0.93726  Biso   1.000  H
  N158     1.0000 0.14166  0.06764  0.99434  Biso   1.000  N
  H404     1.0000 0.04253  0.06305  0.91182  Biso   1.000  H
  N159     1.0000 0.14174  0.06764  0.99434  Biso   1.000  N
  H405     1.0000 0.17706  0.24572  0.75693  Biso   1.000  H
  H406     1.0000 0.07423  0.21415  0.71192  Biso   1.000  H
  H407     1.0000 0.07430  0.21409  0.71192  Biso   1.000  H
  O82      1.0000 0.38780  0.29032  0.01848  Biso   1.000  O
  N160     1.0000 0.28531  0.21201  0.09359  Biso   1.000  N
  O83      1.0000 0.38780  0.29031  0.01843  Biso   1.000  O
  O84      1.0000 0.38780  0.29025  0.01848  Biso   1.000  O
  N161     1.0000 0.28530  0.21194  0.09359  Biso   1.000  N
  O85      1.0000 0.38771  0.29025  0.01843  Biso   1.000  O
  N162     1.0000 0.28522  0.21194  0.09359  Biso   1.000  N
  C374     1.0000 0.04586  0.20815  0.99895  Biso   1.000  C
  C375     1.0000 0.04585  0.20815  0.99890  Biso   1.000  C
  C376     1.0000 0.04593  0.20815  0.99895  Biso   1.000  C
  C377     1.0000 0.04593  0.20815  0.99890  Biso   1.000  C
  C378     1.0000 0.18392  0.16338  0.09209  Biso   1.000  C
  C379     1.0000 0.18384  0.16338  0.09209  Biso   1.000  C
  C380     1.0000 0.48178  0.82317  0.81853  Biso   1.000  C
  C381     1.0000 0.48170  0.82324  0.81853  Biso   1.000  C
  C382     1.0000 0.48170  0.82317  0.81853  Biso   1.000  C
  N163     1.0000 0.58823  0.82909  0.81531  Biso   1.000  N
  C383     1.0000 0.67884  0.85381  0.70596  Biso   1.000  C
  N164     1.0000 0.58815  0.82909  0.81531  Biso   1.000  N
  C384     1.0000 0.67876  0.85381  0.70591  Biso   1.000  C
  C385     1.0000 0.67876  0.85375  0.70596  Biso   1.000  C
  C386     1.0000 0.67884  0.85381  0.70591  Biso   1.000  C
  C387     1.0000 0.60040  0.96952  0.62893  Biso   1.000  C
  H408     1.0000 0.48680  0.87221  0.64665  Biso   1.000  H
  H409     1.0000 0.44327  0.96850  0.64861  Biso   1.000  H
  C388     1.0000 0.60032  0.96952  0.62893  Biso   1.000  C
  H410     1.0000 0.48680  0.87221  0.64659  Biso   1.000  H
  H411     1.0000 0.44319  0.96850  0.64861  Biso   1.000  H
  C389     1.0000 0.60040  0.96945  0.62893  Biso   1.000  C
  H412     1.0000 0.48680  0.87215  0.64665  Biso   1.000  H
  H413     1.0000 0.48679  0.87214  0.64659  Biso   1.000  H
  C390     1.0000 0.79386  0.96701  0.82562  Biso   1.000  C
  C391     1.0000 0.79378  0.96701  0.82562  Biso   1.000  C
  C392     1.0000 0.16481  0.01608  0.04951  Biso   1.000  C
  C393     1.0000 0.16480  0.01608  0.04946  Biso   1.000  C
  C394     1.0000 0.16473  0.01608  0.04946  Biso   1.000  C
  C395     1.0000 0.34856  0.23943  0.15571  Biso   1.000  C
  C396     1.0000 0.34856  0.23943  0.15565  Biso   1.000  C
  C397     1.0000 0.34864  0.23936  0.15571  Biso   1.000  C
  C398     1.0000 0.34856  0.23936  0.15565  Biso   1.000  C
  H414     1.0000 0.98769  0.17296  0.01781  Biso   1.000  H
  H415     1.0000 0.98761  0.17296  0.01776  Biso   1.000  H
  H416     1.0000 0.98761  0.17296  0.01781  Biso   1.000  H
  H417     1.0000 0.98769  0.17296  0.01776  Biso   1.000  H
  H418     1.0000 0.03138  0.21235  0.94886  Biso   1.000  H
  H419     1.0000 0.03137  0.21235  0.94881  Biso   1.000  H
  C399     1.0000 0.05281  0.30076  0.03236  Biso   1.000  C
  C400     1.0000 0.05273  0.30076  0.03236  Biso   1.000  C
  N165     1.0000 0.19197  0.06967  0.10618  Biso   1.000  N
  C401     1.0000 0.10445  0.20736  0.13618  Biso   1.000  C
  C402     1.0000 0.10453  0.20743  0.13618  Biso   1.000  C
  N166     1.0000 0.19205  0.06967  0.10618  Biso   1.000  N
  C403     1.0000 0.10453  0.20736  0.13618  Biso   1.000  C
  O86      1.0000 0.43035  0.76923  0.85106  Biso   1.000  O
  O87      1.0000 0.43027  0.76923  0.85101  Biso   1.000  O
  O88      1.0000 0.43035  0.76917  0.85106  Biso   1.000  O
  O89      1.0000 0.43034  0.76916  0.85101  Biso   1.000  O
  C404     1.0000 0.65142  0.76068  0.84432  Biso   1.000  C
  C405     1.0000 0.65134  0.76068  0.84432  Biso   1.000  C
  H420     1.0000 0.74604  0.83180  0.72316  Biso   1.000  H
  H421     1.0000 0.63525  0.80322  0.68643  Biso   1.000  H
  C406     1.0000 0.69914  0.91928  0.64903  Biso   1.000  C
  H422     1.0000 0.74596  0.83180  0.72311  Biso   1.000  H
  H423     1.0000 0.63517  0.80322  0.68643  Biso   1.000  H
  C407     1.0000 0.69906  0.91928  0.64903  Biso   1.000  C
  H424     1.0000 0.74596  0.83180  0.72316  Biso   1.000  H
  H425     1.0000 0.63516  0.80315  0.68643  Biso   1.000  H
  H426     1.0000 0.74604  0.83180  0.72311  Biso   1.000  H
  H427     1.0000 0.58802  0.96590  0.57853  Biso   1.000  H
  H428     1.0000 0.58794  0.96590  0.57853  Biso   1.000  H
  H429     1.0000 0.61313  0.03204  0.64255  Biso   1.000  H
  H430     1.0000 0.61312  0.03203  0.64250  Biso   1.000  H
  H431     1.0000 0.61320  0.03203  0.64250  Biso   1.000  H
  H432     1.0000 0.82506  0.02755  0.82702  Biso   1.000  H
  N167     1.0000 0.80801  0.93044  0.89385  Biso   1.000  N
  H433     1.0000 0.83265  0.93234  0.79304  Biso   1.000  H
  N168     1.0000 0.80801  0.93044  0.89379  Biso   1.000  N
  H434     1.0000 0.83257  0.93234  0.79304  Biso   1.000  H
  N169     1.0000 0.80801  0.93037  0.89385  Biso   1.000  N
  H435     1.0000 0.83257  0.93227  0.79304  Biso   1.000  H
  N170     1.0000 0.80800  0.93037  0.89379  Biso   1.000  N
  O90      1.0000 0.15724  0.93584  0.04858  Biso   1.000  O
  H436     1.0000 0.30187  0.25943  0.19088  Biso   1.000  H
  H437     1.0000 0.39539  0.28996  0.14467  Biso   1.000  H
  N171     1.0000 0.41175  0.17101  0.18471  Biso   1.000  N
  N172     1.0000 0.41183  0.17101  0.18466  Biso   1.000  N
  H438     1.0000 0.30195  0.25936  0.19088  Biso   1.000  H
  N173     1.0000 0.41183  0.17095  0.18471  Biso   1.000  N
  H439     1.0000 0.30187  0.25936  0.19088  Biso   1.000  H
  H440     1.0000 0.39531  0.28996  0.14467  Biso   1.000  H
  N174     1.0000 0.41175  0.17094  0.18466  Biso   1.000  N
  H441     1.0000 0.98487  0.32760  0.02527  Biso   1.000  H
  H442     1.0000 0.98479  0.32760  0.02527  Biso   1.000  H
  C408     1.0000 0.08231  0.29996  0.11007  Biso   1.000  C
  H443     1.0000 0.10558  0.33747  0.00947  Biso   1.000  H
  C409     1.0000 0.08223  0.29996  0.11007  Biso   1.000  C
  H444     1.0000 0.10550  0.33747  0.00947  Biso   1.000  H
  C410     1.0000 0.20620  0.03309  0.17441  Biso   1.000  C
  C411     1.0000 0.20620  0.03309  0.17435  Biso   1.000  C
  H445     1.0000 0.03867  0.17071  0.13447  Biso   1.000  H
  H446     1.0000 0.13188  0.21210  0.18451  Biso   1.000  H
  H447     1.0000 0.13188  0.21210  0.18446  Biso   1.000  H
  H448     1.0000 0.03874  0.17064  0.13447  Biso   1.000  H
  H449     1.0000 0.13196  0.21210  0.18451  Biso   1.000  H
  H450     1.0000 0.03866  0.17064  0.13447  Biso   1.000  H
  N175     1.0000 0.71476  0.78810  0.90643  Biso   1.000  N
  H451     1.0000 0.69811  0.74068  0.80915  Biso   1.000  H
  H452     1.0000 0.60467  0.71014  0.85536  Biso   1.000  H
  N176     1.0000 0.71468  0.78810  0.90643  Biso   1.000  N
  H453     1.0000 0.69811  0.74067  0.80910  Biso   1.000  H
  H454     1.0000 0.60459  0.71014  0.85531  Biso   1.000  H
  H455     1.0000 0.60459  0.71007  0.85536  Biso   1.000  H
  H456     1.0000 0.60459  0.71007  0.85531  Biso   1.000  H
  H457     1.0000 0.72170  0.88738  0.60816  Biso   1.000  H
  H458     1.0000 0.75624  0.96188  0.66483  Biso   1.000  H
  H459     1.0000 0.72161  0.88738  0.60811  Biso   1.000  H
  H460     1.0000 0.75616  0.96188  0.66483  Biso   1.000  H
  H461     1.0000 0.72169  0.88738  0.60811  Biso   1.000  H
  C412     1.0000 0.83525  0.98402  0.95052  Biso   1.000  C
  C413     1.0000 0.81615  0.83672  0.90794  Biso   1.000  C
  C414     1.0000 0.83518  0.98402  0.95052  Biso   1.000  C
  C415     1.0000 0.81607  0.83672  0.90794  Biso   1.000  C
  C416     1.0000 0.37581  0.10582  0.23367  Biso   1.000  C
  C417     1.0000 0.51829  0.17693  0.18150  Biso   1.000  C
  C418     1.0000 0.51828  0.17693  0.18145  Biso   1.000  C
  C419     1.0000 0.37580  0.10575  0.23367  Biso   1.000  C
  C420     1.0000 0.51828  0.17686  0.18150  Biso   1.000  C
  C421     1.0000 0.37572  0.10575  0.23367  Biso   1.000  C
  C422     1.0000 0.51828  0.17686  0.18145  Biso   1.000  C
  H462     1.0000 0.14490  0.33940  0.12007  Biso   1.000  H
  H463     1.0000 0.02481  0.32329  0.13561  Biso   1.000  H
  H464     1.0000 0.02481  0.32329  0.13555  Biso   1.000  H
  H465     1.0000 0.14482  0.33940  0.12007  Biso   1.000  H
  H466     1.0000 0.02473  0.32329  0.13555  Biso   1.000  H
  H467     1.0000 0.17492  0.97256  0.17301  Biso   1.000  H
  H468     1.0000 0.17492  0.97256  0.17296  Biso   1.000  H
  H469     1.0000 0.17500  0.97256  0.17296  Biso   1.000  H
  N177     1.0000 0.31452  0.03116  0.20077  Biso   1.000  N
  H470     1.0000 0.16741  0.06776  0.20699  Biso   1.000  H
  H471     1.0000 0.16742  0.06783  0.20699  Biso   1.000  H
  N178     1.0000 0.31445  0.03116  0.20077  Biso   1.000  N
  H472     1.0000 0.16733  0.06776  0.20699  Biso   1.000  H
  C423     1.0000 0.68887  0.75899  0.97036  Biso   1.000  C
  C424     1.0000 0.68879  0.75899  0.97031  Biso   1.000  C
  C425     1.0000 0.68880  0.75899  0.97036  Biso   1.000  C
  N179     1.0000 0.85825  0.93247  0.00569  Biso   1.000  N
  N180     1.0000 0.85833  0.93247  0.00569  Biso   1.000  N
  N181     1.0000 0.85832  0.93240  0.00569  Biso   1.000  N
  O91      1.0000 0.84275  0.06426  0.95145  Biso   1.000  O
  O92      1.0000 0.84274  0.06426  0.95140  Biso   1.000  O
  O93      1.0000 0.84274  0.06420  0.95145  Biso   1.000  O
  C426     1.0000 0.89553  0.79274  0.86385  Biso   1.000  C
  C427     1.0000 0.85124  0.83790  0.98745  Biso   1.000  C
  C428     1.0000 0.89545  0.79274  0.86380  Biso   1.000  C
  C429     1.0000 0.85115  0.83790  0.98740  Biso   1.000  C
  C430     1.0000 0.89553  0.79268  0.86385  Biso   1.000  C
  C431     1.0000 0.89552  0.79267  0.86380  Biso   1.000  C
  C432     1.0000 0.85123  0.83790  0.98740  Biso   1.000  C
  C433     1.0000 0.48072  0.06302  0.25890  Biso   1.000  C
  C434     1.0000 0.32122  0.14629  0.29407  Biso   1.000  C
  C435     1.0000 0.48071  0.06296  0.25890  Biso   1.000  C
  C436     1.0000 0.48064  0.06296  0.25890  Biso   1.000  C
  C437     1.0000 0.32114  0.14629  0.29407  Biso   1.000  C
  N182     1.0000 0.56037  0.11328  0.22300  Biso   1.000  N
  N183     1.0000 0.56045  0.11328  0.22300  Biso   1.000  N
  O94      1.0000 0.56963  0.23087  0.14897  Biso   1.000  O
  O95      1.0000 0.56971  0.23087  0.14897  Biso   1.000  O
  C438     1.0000 0.36660  0.95433  0.20290  Biso   1.000  C
  C439     1.0000 0.36660  0.95433  0.20285  Biso   1.000  C
  C440     1.0000 0.36668  0.95433  0.20290  Biso   1.000  C
  C441     1.0000 0.36668  0.95433  0.20285  Biso   1.000  C
  O96      1.0000 0.61226  0.70979  0.98155  Biso   1.000  O
  O97      1.0000 0.61218  0.70979  0.98155  Biso   1.000  O
  N184     1.0000 0.76316  0.78966  0.01827  Biso   1.000  N
  N185     1.0000 0.76324  0.78966  0.01822  Biso   1.000  N
  N186     1.0000 0.76324  0.78960  0.01827  Biso   1.000  N
  N187     1.0000 0.76323  0.78960  0.01822  Biso   1.000  N
  C442     1.0000 0.89891  0.97144  0.07091  Biso   1.000  C
  C443     1.0000 0.89891  0.97144  0.07085  Biso   1.000  C
  H473     1.0000 0.96132  0.82939  0.86556  Biso   1.000  H
  H474     1.0000 0.86810  0.78800  0.81552  Biso   1.000  H
  C444     1.0000 0.91775  0.70014  0.88996  Biso   1.000  C
  H475     1.0000 0.96123  0.82939  0.86551  Biso   1.000  H
  C445     1.0000 0.91767  0.70014  0.88991  Biso   1.000  C
  C446     1.0000 0.91767  0.70008  0.88996  Biso   1.000  C
  H476     1.0000 0.96131  0.82939  0.86551  Biso   1.000  H
  C447     1.0000 0.91774  0.70007  0.88991  Biso   1.000  C
  C448     1.0000 0.95405  0.79195  0.00108  Biso   1.000  C
  C449     1.0000 0.95413  0.79195  0.00108  Biso   1.000  C
  N188     1.0000 0.46481  0.97229  0.23211  Biso   1.000  N
  N189     1.0000 0.46481  0.97228  0.23206  Biso   1.000  N
  N190     1.0000 0.46489  0.97222  0.23211  Biso   1.000  N
  N191     1.0000 0.46488  0.97222  0.23206  Biso   1.000  N
  C450     1.0000 0.49698  0.06662  0.33748  Biso   1.000  C
  C451     1.0000 0.49706  0.06656  0.33748  Biso   1.000  C
  C452     1.0000 0.49698  0.06656  0.33748  Biso   1.000  C
  H477     1.0000 0.25402  0.16830  0.27687  Biso   1.000  H
  H478     1.0000 0.36482  0.19689  0.31360  Biso   1.000  H
  C453     1.0000 0.30093  0.08083  0.35100  Biso   1.000  C
  C454     1.0000 0.30092  0.08076  0.35100  Biso   1.000  C
  H479     1.0000 0.25394  0.16830  0.27687  Biso   1.000  H
  H480     1.0000 0.36474  0.19689  0.31360  Biso   1.000  H
  C455     1.0000 0.30084  0.08076  0.35100  Biso   1.000  C
  C456     1.0000 0.67327  0.10972  0.23569  Biso   1.000  C
  C457     1.0000 0.67335  0.10966  0.23569  Biso   1.000  C
  C458     1.0000 0.67327  0.10966  0.23569  Biso   1.000  C
  O98      1.0000 0.33031  0.88054  0.18430  Biso   1.000  O
  O99      1.0000 0.33030  0.88054  0.18425  Biso   1.000  O
  O100     1.0000 0.33039  0.88054  0.18430  Biso   1.000  O
  O101     1.0000 0.33038  0.88054  0.18425  Biso   1.000  O
  C459     1.0000 0.76153  0.76544  0.08981  Biso   1.000  C
  C460     1.0000 0.76152  0.76544  0.08976  Biso   1.000  C
  H481     1.0000 0.95737  0.93706  0.08821  Biso   1.000  H
  N192     1.0000 0.82377  0.97634  0.12431  Biso   1.000  N
  H482     1.0000 0.95737  0.93705  0.08816  Biso   1.000  H
  N193     1.0000 0.82376  0.97634  0.12426  Biso   1.000  N
  H483     1.0000 0.95745  0.93706  0.08821  Biso   1.000  H
  N194     1.0000 0.82385  0.97634  0.12431  Biso   1.000  N
  H484     1.0000 0.95745  0.93705  0.08816  Biso   1.000  H
  N195     1.0000 0.82384  0.97634  0.12426  Biso   1.000  N
  H485     1.0000 0.92747  0.03140  0.06277  Biso   1.000  H
  H486     1.0000 0.92746  0.03133  0.06277  Biso   1.000  H
  H487     1.0000 0.92739  0.03140  0.06277  Biso   1.000  H
  H488     1.0000 0.85517  0.66071  0.87996  Biso   1.000  H
  H489     1.0000 0.97525  0.67681  0.86442  Biso   1.000  H
  C461     1.0000 0.94725  0.69935  0.96766  Biso   1.000  C
  H490     1.0000 0.85508  0.66070  0.87991  Biso   1.000  H
  H491     1.0000 0.97517  0.67681  0.86442  Biso   1.000  H
  C462     1.0000 0.94717  0.69934  0.96761  Biso   1.000  C
  H492     1.0000 0.85509  0.66071  0.87996  Biso   1.000  H
  C463     1.0000 0.94717  0.69928  0.96766  Biso   1.000  C
  C464     1.0000 0.94724  0.69928  0.96761  Biso   1.000  C
  H493     1.0000 0.96861  0.78775  0.05117  Biso   1.000  H
  H494     1.0000 0.01237  0.82715  0.98222  Biso   1.000  H
  H495     1.0000 0.01237  0.82708  0.98222  Biso   1.000  H
  C465     1.0000 0.53311  0.90129  0.25092  Biso   1.000  C
  C466     1.0000 0.53310  0.90129  0.25087  Biso   1.000  C
  C467     1.0000 0.53318  0.90122  0.25092  Biso   1.000  C
  C468     1.0000 0.53318  0.90122  0.25087  Biso   1.000  C
  C469     1.0000 0.39958  0.03059  0.37110  Biso   1.000  C
  H496     1.0000 0.51318  0.12789  0.35338  Biso   1.000  H
  H497     1.0000 0.55680  0.03160  0.35141  Biso   1.000  H
  H498     1.0000 0.55679  0.03160  0.35136  Biso   1.000  H
  C470     1.0000 0.39966  0.03059  0.37110  Biso   1.000  C
  H499     1.0000 0.51326  0.12789  0.35338  Biso   1.000  H
  H500     1.0000 0.27829  0.11272  0.39187  Biso   1.000  H
  H501     1.0000 0.24382  0.03823  0.33520  Biso   1.000  H
  H502     1.0000 0.24382  0.03822  0.33515  Biso   1.000  H
  H503     1.0000 0.27836  0.11266  0.39187  Biso   1.000  H
  H504     1.0000 0.24382  0.03816  0.33520  Biso   1.000  H
  H505     1.0000 0.27828  0.11266  0.39187  Biso   1.000  H
  H506     1.0000 0.24374  0.03816  0.33515  Biso   1.000  H
  N196     1.0000 0.71975  0.03862  0.19798  Biso   1.000  N
  N197     1.0000 0.71982  0.03855  0.19798  Biso   1.000  N
  N198     1.0000 0.71974  0.03855  0.19798  Biso   1.000  N
  H507     1.0000 0.70700  0.16623  0.22300  Biso   1.000  H
  H508     1.0000 0.68825  0.10253  0.28542  Biso   1.000  H
  H509     1.0000 0.68832  0.10253  0.28537  Biso   1.000  H
  H510     1.0000 0.70699  0.16616  0.22300  Biso   1.000  H
  H511     1.0000 0.68832  0.10246  0.28542  Biso   1.000  H
  H512     1.0000 0.70691  0.16616  0.22300  Biso   1.000  H
  H513     1.0000 0.68824  0.10246  0.28537  Biso   1.000  H
  N199     1.0000 0.72864  0.83484  0.13628  Biso   1.000  N
  H514     1.0000 0.71378  0.71307  0.09328  Biso   1.000  H
  H515     1.0000 0.83208  0.74913  0.10541  Biso   1.000  H
  H516     1.0000 0.83208  0.74913  0.10535  Biso   1.000  H
  H517     1.0000 0.71385  0.71301  0.09328  Biso   1.000  H
  H518     1.0000 0.83216  0.74913  0.10541  Biso   1.000  H
  H519     1.0000 0.83216  0.74913  0.10535  Biso   1.000  H
  C471     1.0000 0.79761  0.90444  0.17021  Biso   1.000  C
  C472     1.0000 0.79761  0.90443  0.17016  Biso   1.000  C
  C473     1.0000 0.78250  0.05501  0.14421  Biso   1.000  C
  C474     1.0000 0.78250  0.05501  0.14415  Biso   1.000  C
  C475     1.0000 0.78250  0.05495  0.14421  Biso   1.000  C
  C476     1.0000 0.78242  0.05494  0.14415  Biso   1.000  C
  H520     1.0000 0.89448  0.66263  0.99056  Biso   1.000  H
  H521     1.0000 0.89440  0.66263  0.99051  Biso   1.000  H
  H522     1.0000 0.89440  0.66256  0.99056  Biso   1.000  H
  H523     1.0000 0.89439  0.66256  0.99051  Biso   1.000  H
  H524     1.0000 0.01511  0.67251  0.97476  Biso   1.000  H
  H525     1.0000 0.01519  0.67251  0.97471  Biso   1.000  H
  H526     1.0000 0.01519  0.67251  0.97476  Biso   1.000  H
  N200     1.0000 0.62488  0.89645  0.20979  Biso   1.000  N
  N201     1.0000 0.62496  0.89645  0.20979  Biso   1.000  N
  H527     1.0000 0.49214  0.84468  0.24589  Biso   1.000  H
  H528     1.0000 0.55654  0.90936  0.29982  Biso   1.000  H
  H529     1.0000 0.55654  0.90935  0.29977  Biso   1.000  H
  H530     1.0000 0.49213  0.84461  0.24589  Biso   1.000  H
  H531     1.0000 0.38686  0.96807  0.35748  Biso   1.000  H
  H532     1.0000 0.41197  0.03420  0.42150  Biso   1.000  H
  H533     1.0000 0.41204  0.03420  0.42145  Biso   1.000  H
  H534     1.0000 0.41205  0.03420  0.42150  Biso   1.000  H
  H535     1.0000 0.41196  0.03420  0.42145  Biso   1.000  H
  C477     1.0000 0.72453  0.94769  0.22248  Biso   1.000  C
  C478     1.0000 0.72453  0.94762  0.22248  Biso   1.000  C
  C479     1.0000 0.63060  0.83074  0.16099  Biso   1.000  C
  C480     1.0000 0.63068  0.83074  0.16099  Biso   1.000  C
  C481     1.0000 0.89473  0.86757  0.20678  Biso   1.000  C
  O102     1.0000 0.80229  0.12646  0.11898  Biso   1.000  O
  O103     1.0000 0.80221  0.12646  0.11898  Biso   1.000  O
  C482     1.0000 0.76788  0.94394  0.29692  Biso   1.000  C
  C483     1.0000 0.76795  0.94394  0.29687  Biso   1.000  C
  C484     1.0000 0.76796  0.94394  0.29692  Biso   1.000  C
  O104     1.0000 0.56002  0.77534  0.14410  Biso   1.000  O
  O105     1.0000 0.56009  0.77534  0.14410  Biso   1.000  O
  C485     1.0000 0.86231  0.80634  0.26387  Biso   1.000  C
  H536     1.0000 0.94083  0.91658  0.22647  Biso   1.000  H
  H537     1.0000 0.93403  0.83498  0.17311  Biso   1.000  H
  H538     1.0000 0.93403  0.83497  0.17306  Biso   1.000  H
  H539     1.0000 0.94083  0.91651  0.22647  Biso   1.000  H
  H540     1.0000 0.93403  0.83491  0.17311  Biso   1.000  H
  C486     1.0000 0.86239  0.80634  0.26387  Biso   1.000  C
  H541     1.0000 0.93402  0.83491  0.17306  Biso   1.000  H
  H542     1.0000 0.83119  0.98338  0.30308  Biso   1.000  H
  H543     1.0000 0.71570  0.96520  0.32800  Biso   1.000  H
  C487     1.0000 0.79502  0.85014  0.31650  Biso   1.000  C
  H544     1.0000 0.71569  0.96519  0.32795  Biso   1.000  H
  C488     1.0000 0.79501  0.85013  0.31645  Biso   1.000  C
  H545     1.0000 0.83127  0.98332  0.30308  Biso   1.000  H
  H546     1.0000 0.71577  0.96513  0.32800  Biso   1.000  H
  H547     1.0000 0.71577  0.96513  0.32795  Biso   1.000  H
  C489     1.0000 0.79509  0.85013  0.31645  Biso   1.000  C
  H548     1.0000 0.82293  0.75438  0.24310  Biso   1.000  H
  H549     1.0000 0.92568  0.78595  0.28811  Biso   1.000  H
  H550     1.0000 0.92575  0.78595  0.28806  Biso   1.000  H
  H551     1.0000 0.82292  0.75432  0.24310  Biso   1.000  H
  H552     1.0000 0.92575  0.78595  0.28811  Biso   1.000  H
  H553     1.0000 0.72969  0.81400  0.32038  Biso   1.000  H
  H554     1.0000 0.83283  0.85247  0.36198  Biso   1.000  H
  H555     1.0000 0.72977  0.81393  0.32038  Biso   1.000  H
  C490     1.0000 0.67830  0.34713  0.79843  Biso   1.000  C
  C491     1.0000 0.62615  0.39246  0.73709  Biso   1.000  C
  C492     1.0000 0.70611  0.41214  0.85862  Biso   1.000  C
  H556     1.0000 0.74240  0.32065  0.78382  Biso   1.000  H
  H557     1.0000 0.63071  0.29944  0.81371  Biso   1.000  H
  N202     1.0000 0.58301  0.32937  0.68311  Biso   1.000  N
  C493     1.0000 0.52601  0.44113  0.75844  Biso   1.000  C
  N203     1.0000 0.69268  0.46333  0.71031  Biso   1.000  N
  C494     1.0000 0.61423  0.46856  0.87613  Biso   1.000  C
  H558     1.0000 0.72755  0.37905  0.89949  Biso   1.000  H
  H559     1.0000 0.76599  0.45114  0.84691  Biso   1.000  H
  C495     1.0000 0.64025  0.26021  0.65240  Biso   1.000  C
  C496     1.0000 0.47503  0.32911  0.67529  Biso   1.000  C
  N204     1.0000 0.44030  0.39376  0.71793  Biso   1.000  N
  N205     1.0000 0.54755  0.53037  0.73492  Biso   1.000  N
  C497     1.0000 0.51182  0.43907  0.83593  Biso   1.000  C
  C498     1.0000 0.80043  0.45697  0.69171  Biso   1.000  C
  C499     1.0000 0.64560  0.54335  0.71052  Biso   1.000  C
  H560     1.0000 0.60356  0.46547  0.92581  Biso   1.000  H
  H561     1.0000 0.63246  0.53044  0.86582  Biso   1.000  H
  N206     1.0000 0.70208  0.28774  0.59515  Biso   1.000  N
  H562     1.0000 0.68729  0.23655  0.68830  Biso   1.000  H
  H563     1.0000 0.59016  0.21217  0.63613  Biso   1.000  H
  O106     1.0000 0.41964  0.27744  0.63882  Biso   1.000  O
  C500     1.0000 0.32893  0.39927  0.72880  Biso   1.000  C
  C501     1.0000 0.48270  0.60405  0.74771  Biso   1.000  C
  H564     1.0000 0.49012  0.37887  0.84883  Biso   1.000  H
  H565     1.0000 0.45644  0.47837  0.84790  Biso   1.000  H
  N207     1.0000 0.81274  0.42157  0.62209  Biso   1.000  N
  H566     1.0000 0.83561  0.51608  0.69591  Biso   1.000  H
  H567     1.0000 0.83614  0.41913  0.72492  Biso   1.000  H
  O107     1.0000 0.68655  0.61402  0.69399  Biso   1.000  O
  C502     1.0000 0.67783  0.25504  0.52942  Biso   1.000  C
  C503     1.0000 0.80889  0.32821  0.60220  Biso   1.000  C
  N208     1.0000 0.27923  0.46992  0.69291  Biso   1.000  N
  H568     1.0000 0.31988  0.40717  0.77864  Biso   1.000  H
  H569     1.0000 0.29263  0.34293  0.71383  Biso   1.000  H
  N209     1.0000 0.38960  0.60595  0.70202  Biso   1.000  N
  H570     1.0000 0.52512  0.65916  0.74321  Biso   1.000  H
  H571     1.0000 0.46113  0.60183  0.79563  Biso   1.000  H
  C504     1.0000 0.83510  0.47655  0.56863  Biso   1.000  C
  N210     1.0000 0.75601  0.28075  0.48751  Biso   1.000  N
  O108     1.0000 0.60049  0.20721  0.51160  Biso   1.000  O
  C505     1.0000 0.84257  0.33002  0.52533  Biso   1.000  C
  C506     1.0000 0.88132  0.27363  0.64784  Biso   1.000  C
  C507     1.0000 0.21893  0.45401  0.63281  Biso   1.000  C
  C508     1.0000 0.28697  0.56346  0.71430  Biso   1.000  C
  C509     1.0000 0.38170  0.67275  0.65582  Biso   1.000  C
  N211     1.0000 0.84776  0.42464  0.51051  Biso   1.000  N
  O109     1.0000 0.84641  0.55662  0.57247  Biso   1.000  O
  C510     1.0000 0.75289  0.25571  0.41509  Biso   1.000  C
  C511     1.0000 0.94736  0.28772  0.51683  Biso   1.000  C
  H572     1.0000 0.85135  0.26536  0.69311  Biso   1.000  H
  H573     1.0000 0.95020  0.30491  0.65530  Biso   1.000  H
  C512     1.0000 0.89371  0.18401  0.61272  Biso   1.000  C
  N212     1.0000 0.18545  0.53326  0.60940  Biso   1.000  N
  O110     1.0000 0.19433  0.38115  0.60640  Biso   1.000  O
  C513     1.0000 0.21173  0.60652  0.65851  Biso   1.000  C
  C514     1.0000 0.25317  0.57873  0.78750  Biso   1.000  C
  N213     1.0000 0.27972  0.67587  0.63152  Biso   1.000  N
  O111     1.0000 0.45318  0.72375  0.64074  Biso   1.000  O
  C515     1.0000 0.88969  0.46370  0.44959  Biso   1.000  C
  N214     1.0000 0.72028  0.32422  0.36852  Biso   1.000  N
  H574     1.0000 0.82303  0.23852  0.40333  Biso   1.000  H
  H575     1.0000 0.70453  0.20364  0.40732  Biso   1.000  H
  C516     1.0000 0.94430  0.19320  0.54299  Biso   1.000  C
  H576     1.0000 0.96358  0.28713  0.46783  Biso   1.000  H
  H577     1.0000 0.00340  0.32324  0.54273  Biso   1.000  H
  H578     1.0000 0.93724  0.14813  0.64312  Biso   1.000  H
  H579     1.0000 0.82440  0.15314  0.60552  Biso   1.000  H
  C517     1.0000 0.11031  0.53632  0.55040  Biso   1.000  C
  C518     1.0000 0.11380  0.64113  0.69099  Biso   1.000  C
  C519     1.0000 0.13946  0.54692  0.79620  Biso   1.000  C
  H580     1.0000 0.29917  0.54754  0.81972  Biso   1.000  H
  H581     1.0000 0.26143  0.64218  0.79931  Biso   1.000  H
  C520     1.0000 0.24711  0.74431  0.58490  Biso   1.000  C
  N215     1.0000 0.81455  0.46682  0.39059  Biso   1.000  N
  H582     1.0000 0.91669  0.52412  0.46171  Biso   1.000  H
  H583     1.0000 0.94919  0.43003  0.43581  Biso   1.000  H
  C521     1.0000 0.61830  0.32734  0.34423  Biso   1.000  C
  C522     1.0000 0.78827  0.39350  0.34153  Biso   1.000  C
  H584     1.0000 0.90497  0.15430  0.50859  Biso   1.000  H
  H585     1.0000 0.01632  0.17356  0.54750  Biso   1.000  H
  N216     1.0000 0.15224  0.57545  0.48953  Biso   1.000  N
  H586     1.0000 0.08331  0.47590  0.53833  Biso   1.000  H
  H587     1.0000 0.05081  0.57005  0.56423  Biso   1.000  H
  H588     1.0000 0.13353  0.69472  0.71912  Biso   1.000  H
  H589     1.0000 0.06276  0.65662  0.65431  Biso   1.000  H
  C523     1.0000 0.06444  0.57184  0.73600  Biso   1.000  C
  H590     1.0000 0.13604  0.48246  0.80024  Biso   1.000  H
  H591     1.0000 0.11576  0.57247  0.83940  Biso   1.000  H
  N217     1.0000 0.24399  0.71934  0.51253  Biso   1.000  N
  H592     1.0000 0.17706  0.76157  0.59671  Biso   1.000  H
  H593     1.0000 0.29555  0.79645  0.59272  Biso   1.000  H
  C524     1.0000 0.78107  0.54601  0.36723  Biso   1.000  C
  N218     1.0000 0.61040  0.39414  0.29802  Biso   1.000  N
  O112     1.0000 0.54682  0.27634  0.35925  Biso   1.000  O
  C525     1.0000 0.71311  0.43663  0.28569  Biso   1.000  C
  C526     1.0000 0.88620  0.35889  0.30900  Biso   1.000  C
  C527     1.0000 0.16490  0.52353  0.43141  Biso   1.000  C
  C528     1.0000 0.15744  0.67007  0.47471  Biso   1.000  C
  H594     1.0000 0.04394  0.51877  0.70762  Biso   1.000  H
  H595     1.0000 0.00056  0.59422  0.75471  Biso   1.000  H
  C529     1.0000 0.32218  0.74505  0.47062  Biso   1.000  C
  N219     1.0000 0.72077  0.53010  0.30708  Biso   1.000  N
  O113     1.0000 0.80567  0.61893  0.39359  Biso   1.000  O
  C530     1.0000 0.51731  0.39604  0.25233  Biso   1.000  C
  C531     1.0000 0.74690  0.42129  0.21249  Biso   1.000  C
  C532     1.0000 0.93556  0.42825  0.26398  Biso   1.000  C
  H596     1.0000 0.86647  0.30531  0.28092  Biso   1.000  H
  H597     1.0000 0.93724  0.34340  0.34573  Biso   1.000  H
  N220     1.0000 0.18734  0.57852  0.37790  Biso   1.000  N
  O114     1.0000 0.15358  0.44340  0.42752  Biso   1.000  O
  C533     1.0000 0.19111  0.67181  0.39779  Biso   1.000  C
  C534     1.0000 0.05264  0.71236  0.48321  Biso   1.000  C
  N221     1.0000 0.29793  0.71235  0.40489  Biso   1.000  N
  O115     1.0000 0.39951  0.79281  0.48844  Biso   1.000  O
  C535     1.0000 0.67107  0.60081  0.27118  Biso   1.000  C
  N222     1.0000 0.45245  0.46971  0.26512  Biso   1.000  N
  H598     1.0000 0.47488  0.34092  0.25678  Biso   1.000  H
  H599     1.0000 0.53887  0.39819  0.20441  Biso   1.000  H
  H600     1.0000 0.70084  0.45254  0.18032  Biso   1.000  H
  H601     1.0000 0.73857  0.35790  0.20068  Biso   1.000  H
  C536     1.0000 0.86054  0.45310  0.20379  Biso   1.000  C
  H602     1.0000 0.95606  0.48132  0.29242  Biso   1.000  H
  H603     1.0000 0.99944  0.40580  0.24528  Biso   1.000  H
  C537     1.0000 0.19957  0.54311  0.30833  Biso   1.000  C
  C538     1.0000 0.11868  0.72646  0.35220  Biso   1.000  C
  C539     1.0000 0.05570  0.80682  0.45700  Biso   1.000  C
  H604     1.0000 0.03643  0.71296  0.53222  Biso   1.000  H
  H605     1.0000 0.99660  0.67685  0.45731  Biso   1.000  H
  C540     1.0000 0.35982  0.73981  0.34759  Biso   1.000  C
  N223     1.0000 0.55970  0.60633  0.28211  Biso   1.000  N
  H606     1.0000 0.68020  0.59291  0.22140  Biso   1.000  H
  H607     1.0000 0.70738  0.65715  0.28621  Biso   1.000  H
  C541     1.0000 0.35441  0.45674  0.28952  Biso   1.000  C
  C542     1.0000 0.47399  0.55889  0.24161  Biso   1.000  C
  H608     1.0000 0.86396  0.51763  0.19980  Biso   1.000  H
  H609     1.0000 0.88424  0.42762  0.16059  Biso   1.000  H
  N224     1.0000 0.30733  0.53675  0.28973  Biso   1.000  N
  H610     1.0000 0.16440  0.48401  0.30413  Biso   1.000  H
  H611     1.0000 0.16386  0.58095  0.27512  Biso   1.000  H
  H612     1.0000 0.14866  0.73472  0.30693  Biso   1.000  H
  H613     1.0000 0.04980  0.69511  0.34469  Biso   1.000  H
  C543     1.0000 0.10629  0.81601  0.38732  Biso   1.000  C
  H614     1.0000 0.09502  0.84572  0.49140  Biso   1.000  H
  H615     1.0000 0.98361  0.82652  0.45249  Biso   1.000  H
  N225     1.0000 0.41700  0.67072  0.31693  Biso   1.000  N
  H616     1.0000 0.31271  0.76353  0.31169  Biso   1.000  H
  H617     1.0000 0.40993  0.78792  0.36391  Biso   1.000  H
  C544     1.0000 0.52497  0.67091  0.32470  Biso   1.000  C
  O116     1.0000 0.31353  0.38600  0.30605  Biso   1.000  O
  C545     1.0000 0.37385  0.60762  0.26290  Biso   1.000  C
  C546     1.0000 0.48819  0.56102  0.16411  Biso   1.000  C
  H618     1.0000 0.06277  0.85195  0.35692  Biso   1.000  H
  H619     1.0000 0.17561  0.84695  0.39453  Biso   1.000  H
  O117     1.0000 0.58036  0.72265  0.36122  Biso   1.000  O
  C547     1.0000 0.32170  0.65289  0.20161  Biso   1.000  C
  C548     1.0000 0.38578  0.53152  0.12391  Biso   1.000  C
  H620     1.0000 0.50989  0.62122  0.15121  Biso   1.000  H
  H621     1.0000 0.54356  0.52171  0.15209  Biso   1.000  H
  C549     1.0000 0.29390  0.58794  0.14142  Biso   1.000  C
  H622     1.0000 0.25760  0.67944  0.21622  Biso   1.000  H
  H623     1.0000 0.36929  0.70064  0.18628  Biso   1.000  H
  H624     1.0000 0.39644  0.53461  0.07418  Biso   1.000  H
  H625     1.0000 0.36754  0.46958  0.13422  Biso   1.000  H
  H626     1.0000 0.27245  0.62103  0.10050  Biso   1.000  H
  H627     1.0000 0.23402  0.54895  0.15313  Biso   1.000  H
