data_image0
_cell_length_a       24.348
_cell_length_b       24.348
_cell_length_c       24.348
_cell_angle_alpha    90
_cell_angle_beta     90
_cell_angle_gamma    90

_symmetry_space_group_name_H-M    "P 1"
_symmetry_int_tables_number       1

loop_
  _symmetry_equiv_pos_as_xyz
  'x, y, z'

loop_
  _atom_site_label
  _atom_site_occupancy
  _atom_site_fract_x
  _atom_site_fract_y
  _atom_site_fract_z
  _atom_site_thermal_displace_type
  _atom_site_B_iso_or_equiv
  _atom_site_type_symbol
  C1       1.0000 0.38250  0.36455  0.30512  Biso   1.000  C
  C2       1.0000 0.39621  0.31838  0.33769  Biso   1.000  C
  H1       1.0000 0.40418  0.37371  0.27399  Biso   1.000  H
  C3       1.0000 0.33769  0.39621  0.31838  Biso   1.000  C
  C4       1.0000 0.36455  0.30512  0.38250  Biso   1.000  C
  C5       1.0000 0.44439  0.28429  0.32389  Biso   1.000  C
  C6       1.0000 0.30512  0.38250  0.36455  Biso   1.000  C
  C7       1.0000 0.32389  0.44439  0.28429  Biso   1.000  C
  H2       1.0000 0.37371  0.27399  0.40418  Biso   1.000  H
  C8       1.0000 0.31838  0.33769  0.39621  Biso   1.000  C
  N1       1.0000 0.47955  0.29830  0.28729  Biso   1.000  N
  H3       1.0000 0.44961  0.25062  0.34290  Biso   1.000  H
  H4       1.0000 0.27399  0.40418  0.37371  Biso   1.000  H
  N2       1.0000 0.28729  0.47955  0.29830  Biso   1.000  N
  H5       1.0000 0.34290  0.44961  0.25062  Biso   1.000  H
  C9       1.0000 0.28429  0.32389  0.44439  Biso   1.000  C
  C10      1.0000 0.52538  0.26068  0.27928  Biso   1.000  C
  C11      1.0000 0.27928  0.52538  0.26068  Biso   1.000  C
  N3       1.0000 0.29830  0.28729  0.47955  Biso   1.000  N
  H6       1.0000 0.25062  0.34290  0.44961  Biso   1.000  H
  C12      1.0000 0.52538  0.23928  0.22072  Biso   1.000  C
  H7       1.0000 0.52218  0.22959  0.30528  Biso   1.000  H
  H8       1.0000 0.56042  0.27998  0.28688  Biso   1.000  H
  H9       1.0000 0.30528  0.52218  0.22959  Biso   1.000  H
  H10      1.0000 0.28688  0.56042  0.27998  Biso   1.000  H
  C13      1.0000 0.22072  0.52538  0.23928  Biso   1.000  C
  C14      1.0000 0.26068  0.27928  0.52538  Biso   1.000  C
  N4       1.0000 0.47955  0.20170  0.21271  Biso   1.000  N
  H11      1.0000 0.52218  0.27041  0.19472  Biso   1.000  H
  H12      1.0000 0.56042  0.22002  0.21312  Biso   1.000  H
  N5       1.0000 0.21271  0.47955  0.20170  Biso   1.000  N
  H13      1.0000 0.19472  0.52218  0.27041  Biso   1.000  H
  H14      1.0000 0.21312  0.56042  0.22002  Biso   1.000  H
  H15      1.0000 0.22959  0.30528  0.52218  Biso   1.000  H
  H16      1.0000 0.27998  0.28688  0.56042  Biso   1.000  H
  C15      1.0000 0.23928  0.22072  0.52538  Biso   1.000  C
  C16      1.0000 0.44439  0.21571  0.17611  Biso   1.000  C
  C17      1.0000 0.17611  0.44439  0.21571  Biso   1.000  C
  N6       1.0000 0.20170  0.21271  0.47955  Biso   1.000  N
  H17      1.0000 0.27041  0.19472  0.52218  Biso   1.000  H
  H18      1.0000 0.22002  0.21312  0.56042  Biso   1.000  H
  C18      1.0000 0.39621  0.18162  0.16227  Biso   1.000  C
  H19      1.0000 0.44961  0.24938  0.15710  Biso   1.000  H
  C19      1.0000 0.16227  0.39621  0.18162  Biso   1.000  C
  H20      1.0000 0.15710  0.44961  0.24938  Biso   1.000  H
  C20      1.0000 0.21571  0.17611  0.44439  Biso   1.000  C
  C21      1.0000 0.36455  0.19488  0.11750  Biso   1.000  C
  C22      1.0000 0.38250  0.13541  0.19488  Biso   1.000  C
  C23      1.0000 0.19488  0.38250  0.13541  Biso   1.000  C
  C24      1.0000 0.11750  0.36455  0.19488  Biso   1.000  C
  C25      1.0000 0.18162  0.16227  0.39621  Biso   1.000  C
  H21      1.0000 0.24938  0.15710  0.44961  Biso   1.000  H
  H22      1.0000 0.37371  0.22601  0.09582  Biso   1.000  H
  C26      1.0000 0.31838  0.16227  0.10379  Biso   1.000  C
  H23      1.0000 0.40418  0.12629  0.22601  Biso   1.000  H
  C27      1.0000 0.33769  0.10379  0.18162  Biso   1.000  C
  H24      1.0000 0.22601  0.40418  0.12629  Biso   1.000  H
  C28      1.0000 0.18162  0.33769  0.10379  Biso   1.000  C
  H25      1.0000 0.09582  0.37371  0.22601  Biso   1.000  H
  C29      1.0000 0.10379  0.31838  0.16227  Biso   1.000  C
  C30      1.0000 0.19488  0.11750  0.36455  Biso   1.000  C
  C31      1.0000 0.13541  0.19488  0.38250  Biso   1.000  C
  C32      1.0000 0.30512  0.11750  0.13541  Biso   1.000  C
  C33      1.0000 0.28429  0.17611  0.05561  Biso   1.000  C
  C34      1.0000 0.32389  0.05561  0.21571  Biso   1.000  C
  C35      1.0000 0.21571  0.32389  0.05561  Biso   1.000  C
  C36      1.0000 0.13541  0.30512  0.11750  Biso   1.000  C
  C37      1.0000 0.05561  0.28429  0.17611  Biso   1.000  C
  C38      1.0000 0.16227  0.10379  0.31838  Biso   1.000  C
  H26      1.0000 0.22601  0.09582  0.37371  Biso   1.000  H
  H27      1.0000 0.12629  0.22601  0.40418  Biso   1.000  H
  C39      1.0000 0.10379  0.18162  0.33769  Biso   1.000  C
  H28      1.0000 0.27399  0.09582  0.12629  Biso   1.000  H
  N7       1.0000 0.29830  0.21271  0.02045  Biso   1.000  N
  H29      1.0000 0.25062  0.15710  0.05039  Biso   1.000  H
  N8       1.0000 0.28729  0.02045  0.20170  Biso   1.000  N
  H30      1.0000 0.34290  0.05039  0.24938  Biso   1.000  H
  N9       1.0000 0.20170  0.28729  0.02045  Biso   1.000  N
  H31      1.0000 0.24938  0.34290  0.05039  Biso   1.000  H
  H32      1.0000 0.12629  0.27399  0.09582  Biso   1.000  H
  N10      1.0000 0.02045  0.29830  0.21271  Biso   1.000  N
  H33      1.0000 0.05039  0.25062  0.15710  Biso   1.000  H
  C40      1.0000 0.11750  0.13541  0.30512  Biso   1.000  C
  C41      1.0000 0.17611  0.05561  0.28429  Biso   1.000  C
  C42      1.0000 0.05561  0.21571  0.32389  Biso   1.000  C
  C43      1.0000 0.26068  0.22072  0.97462  Biso   1.000  C
  C44      1.0000 0.27928  0.97462  0.23928  Biso   1.000  C
  C45      1.0000 0.23928  0.27928  0.97462  Biso   1.000  C
  C46      1.0000 0.97462  0.26068  0.22072  Biso   1.000  C
  H34      1.0000 0.09582  0.12629  0.27399  Biso   1.000  H
  N11      1.0000 0.21271  0.02045  0.29830  Biso   1.000  N
  H35      1.0000 0.15710  0.05039  0.25062  Biso   1.000  H
  N12      1.0000 0.02045  0.20170  0.28729  Biso   1.000  N
  H36      1.0000 0.05039  0.24938  0.34290  Biso   1.000  H
  H37      1.0000 0.22959  0.19472  0.97778  Biso   1.000  H
  H38      1.0000 0.27998  0.21312  0.93958  Biso   1.000  H
  H39      1.0000 0.30528  0.97778  0.27041  Biso   1.000  H
  H40      1.0000 0.28688  0.93958  0.22002  Biso   1.000  H
  C47      1.0000 0.22072  0.97462  0.26068  Biso   1.000  C
  H41      1.0000 0.27041  0.30528  0.97778  Biso   1.000  H
  H42      1.0000 0.22002  0.28688  0.93958  Biso   1.000  H
  C48      1.0000 0.97462  0.23928  0.27928  Biso   1.000  C
  H43      1.0000 0.97778  0.22959  0.19472  Biso   1.000  H
  H44      1.0000 0.93958  0.27998  0.21312  Biso   1.000  H
  H45      1.0000 0.19472  0.97778  0.22959  Biso   1.000  H
  H46      1.0000 0.21312  0.93958  0.27998  Biso   1.000  H
  H47      1.0000 0.97778  0.27041  0.30528  Biso   1.000  H
  H48      1.0000 0.93958  0.22002  0.28688  Biso   1.000  H
  C49      1.0000 0.43199  0.41334  0.14576  Biso   1.000  C
  C50      1.0000 0.44501  0.36796  0.11377  Biso   1.000  C
  C51      1.0000 0.46554  0.42562  0.19435  Biso   1.000  C
  C52      1.0000 0.38623  0.44501  0.13204  Biso   1.000  C
  C53      1.0000 0.38623  0.44501  0.13200  Biso   1.000  C
  H49      1.0000 0.47589  0.34598  0.12309  Biso   1.000  H
  C54      1.0000 0.41334  0.35424  0.06801  Biso   1.000  C
  N13      1.0000 0.45326  0.46386  0.22803  Biso   1.000  N
  H50      1.0000 0.49758  0.40430  0.20088  Biso   1.000  H
  H51      1.0000 0.37691  0.47589  0.15402  Biso   1.000  H
  C55      1.0000 0.35424  0.43199  0.08662  Biso   1.000  C
  H52      1.0000 0.37691  0.47589  0.15398  Biso   1.000  H
  C56      1.0000 0.36796  0.38623  0.05499  Biso   1.000  C
  C57      1.0000 0.42562  0.30565  0.03446  Biso   1.000  C
  C58      1.0000 0.36796  0.38623  0.05495  Biso   1.000  C
  C59      1.0000 0.42562  0.30565  0.03442  Biso   1.000  C
  C60      1.0000 0.48940  0.47059  0.27526  Biso   1.000  C
  C61      1.0000 0.30565  0.46554  0.07438  Biso   1.000  C
  H53      1.0000 0.34598  0.37691  0.02411  Biso   1.000  H
  N14      1.0000 0.46386  0.27197  0.04674  Biso   1.000  N
  H54      1.0000 0.40430  0.29908  0.00238  Biso   1.000  H
  N15      1.0000 0.46386  0.27197  0.04670  Biso   1.000  N
  C62      1.0000 0.51056  0.52941  0.27526  Biso   1.000  C
  H55      1.0000 0.52049  0.44460  0.27292  Biso   1.000  H
  H56      1.0000 0.46899  0.46308  0.30959  Biso   1.000  H
  H57      1.0000 0.52049  0.44460  0.27288  Biso   1.000  H
  N16      1.0000 0.27197  0.45326  0.03614  Biso   1.000  N
  H58      1.0000 0.29908  0.49758  0.09570  Biso   1.000  H
  N17      1.0000 0.27197  0.45326  0.03610  Biso   1.000  N
  C63      1.0000 0.47059  0.22474  0.01060  Biso   1.000  C
  C64      1.0000 0.47059  0.22474  0.01056  Biso   1.000  C
  N18      1.0000 0.54670  0.53614  0.22803  Biso   1.000  N
  H59      1.0000 0.47951  0.55540  0.27292  Biso   1.000  H
  H60      1.0000 0.53101  0.53688  0.30959  Biso   1.000  H
  H61      1.0000 0.47951  0.55540  0.27288  Biso   1.000  H
  C65      1.0000 0.22474  0.48940  0.02941  Biso   1.000  C
  H62      1.0000 0.46308  0.19041  0.03101  Biso   1.000  H
  C66      1.0000 0.52941  0.22474  0.98940  Biso   1.000  C
  H63      1.0000 0.44460  0.22708  0.97951  Biso   1.000  H
  C67      1.0000 0.53442  0.57438  0.19435  Biso   1.000  C
  H64      1.0000 0.22708  0.52049  0.05540  Biso   1.000  H
  H65      1.0000 0.19041  0.46899  0.03688  Biso   1.000  H
  C68      1.0000 0.22474  0.51056  0.97059  Biso   1.000  C
  H66      1.0000 0.55540  0.22708  0.02049  Biso   1.000  H
  N19      1.0000 0.53614  0.27197  0.95326  Biso   1.000  N
  H67      1.0000 0.53688  0.19041  0.96899  Biso   1.000  H
  C69      1.0000 0.56801  0.58662  0.14576  Biso   1.000  C
  H68      1.0000 0.50238  0.59570  0.20088  Biso   1.000  H
  N20      1.0000 0.27197  0.54670  0.96386  Biso   1.000  N
  H69      1.0000 0.22708  0.47951  0.94460  Biso   1.000  H
  H70      1.0000 0.19041  0.53101  0.96312  Biso   1.000  H
  H71      1.0000 0.19041  0.53101  0.96308  Biso   1.000  H
  C70      1.0000 0.57438  0.30565  0.96554  Biso   1.000  C
  C71      1.0000 0.61377  0.55499  0.13204  Biso   1.000  C
  C72      1.0000 0.55499  0.63204  0.11377  Biso   1.000  C
  C73      1.0000 0.61377  0.55499  0.13200  Biso   1.000  C
  C74      1.0000 0.30565  0.53442  0.92562  Biso   1.000  C
  C75      1.0000 0.58662  0.35424  0.93199  Biso   1.000  C
  H72      1.0000 0.59570  0.29908  0.99762  Biso   1.000  H
  H73      1.0000 0.59570  0.29908  0.99758  Biso   1.000  H
  H74      1.0000 0.62309  0.52411  0.15402  Biso   1.000  H
  C76      1.0000 0.64576  0.56801  0.08662  Biso   1.000  C
  H75      1.0000 0.62309  0.52411  0.15398  Biso   1.000  H
  C77      1.0000 0.58662  0.64576  0.06801  Biso   1.000  C
  H76      1.0000 0.52411  0.65398  0.12309  Biso   1.000  H
  C78      1.0000 0.35424  0.56801  0.91338  Biso   1.000  C
  H77      1.0000 0.29908  0.50238  0.90430  Biso   1.000  H
  C79      1.0000 0.35424  0.56801  0.91334  Biso   1.000  C
  C80      1.0000 0.63204  0.38623  0.94501  Biso   1.000  C
  C81      1.0000 0.55499  0.36796  0.88623  Biso   1.000  C
  C82      1.0000 0.69435  0.53442  0.07438  Biso   1.000  C
  C83      1.0000 0.63204  0.61377  0.05499  Biso   1.000  C
  C84      1.0000 0.63204  0.61377  0.05495  Biso   1.000  C
  C85      1.0000 0.57438  0.69435  0.03446  Biso   1.000  C
  C86      1.0000 0.57438  0.69435  0.03442  Biso   1.000  C
  C87      1.0000 0.36796  0.61377  0.94501  Biso   1.000  C
  C88      1.0000 0.38623  0.55499  0.86796  Biso   1.000  C
  C89      1.0000 0.64576  0.43199  0.91338  Biso   1.000  C
  H78      1.0000 0.65398  0.37691  0.97589  Biso   1.000  H
  C90      1.0000 0.64576  0.43199  0.91334  Biso   1.000  C
  H79      1.0000 0.52411  0.34598  0.87691  Biso   1.000  H
  C91      1.0000 0.56801  0.41334  0.85424  Biso   1.000  C
  N21      1.0000 0.72803  0.54670  0.03614  Biso   1.000  N
  H80      1.0000 0.70088  0.50238  0.09570  Biso   1.000  H
  N22      1.0000 0.72803  0.54670  0.03610  Biso   1.000  N
  H81      1.0000 0.65398  0.62309  0.02411  Biso   1.000  H
  N23      1.0000 0.53614  0.72803  0.04674  Biso   1.000  N
  H82      1.0000 0.59570  0.70088  0.00238  Biso   1.000  H
  N24      1.0000 0.53614  0.72803  0.04670  Biso   1.000  N
  H83      1.0000 0.34598  0.62309  0.97589  Biso   1.000  H
  C92      1.0000 0.41334  0.64576  0.93199  Biso   1.000  C
  C93      1.0000 0.43199  0.58662  0.85424  Biso   1.000  C
  H84      1.0000 0.37691  0.52411  0.84598  Biso   1.000  H
  C94      1.0000 0.61377  0.44501  0.86796  Biso   1.000  C
  C95      1.0000 0.69435  0.46554  0.92562  Biso   1.000  C
  C96      1.0000 0.53442  0.42562  0.80565  Biso   1.000  C
  C97      1.0000 0.77526  0.51056  0.02941  Biso   1.000  C
  C98      1.0000 0.52941  0.77526  0.01060  Biso   1.000  C
  C99      1.0000 0.52941  0.77526  0.01056  Biso   1.000  C
  C100     1.0000 0.42562  0.69435  0.96554  Biso   1.000  C
  C101     1.0000 0.44501  0.63204  0.88623  Biso   1.000  C
  C102     1.0000 0.46554  0.57438  0.80565  Biso   1.000  C
  H85      1.0000 0.62309  0.47589  0.84598  Biso   1.000  H
  N25      1.0000 0.72803  0.45326  0.96386  Biso   1.000  N
  H86      1.0000 0.70088  0.49758  0.90430  Biso   1.000  H
  N26      1.0000 0.54670  0.46386  0.77197  Biso   1.000  N
  H87      1.0000 0.50238  0.40430  0.79912  Biso   1.000  H
  H88      1.0000 0.50238  0.40430  0.79908  Biso   1.000  H
  C103     1.0000 0.77526  0.48940  0.97059  Biso   1.000  C
  H89      1.0000 0.77288  0.47951  0.05540  Biso   1.000  H
  H90      1.0000 0.80959  0.53101  0.03688  Biso   1.000  H
  H91      1.0000 0.53688  0.80959  0.03101  Biso   1.000  H
  H92      1.0000 0.55540  0.77288  0.97951  Biso   1.000  H
  C104     1.0000 0.47059  0.77526  0.98940  Biso   1.000  C
  N27      1.0000 0.46386  0.72803  0.95326  Biso   1.000  N
  H93      1.0000 0.40430  0.70088  0.99762  Biso   1.000  H
  H94      1.0000 0.40430  0.70088  0.99758  Biso   1.000  H
  H95      1.0000 0.47589  0.65398  0.87691  Biso   1.000  H
  N28      1.0000 0.45326  0.53614  0.77197  Biso   1.000  N
  H96      1.0000 0.49758  0.59570  0.79912  Biso   1.000  H
  H97      1.0000 0.49758  0.59570  0.79908  Biso   1.000  H
  C105     1.0000 0.51056  0.47059  0.72474  Biso   1.000  C
  H98      1.0000 0.77288  0.52049  0.94460  Biso   1.000  H
  H99      1.0000 0.80959  0.46899  0.96312  Biso   1.000  H
  H100     1.0000 0.80959  0.46899  0.96308  Biso   1.000  H
  H101     1.0000 0.44460  0.77288  0.02049  Biso   1.000  H
  H102     1.0000 0.46308  0.80959  0.96899  Biso   1.000  H
  C106     1.0000 0.48940  0.52941  0.72474  Biso   1.000  C
  H103     1.0000 0.47951  0.44460  0.72708  Biso   1.000  H
  H104     1.0000 0.53101  0.46308  0.69041  Biso   1.000  H
  H105     1.0000 0.52049  0.55540  0.72708  Biso   1.000  H
  H106     1.0000 0.46899  0.53688  0.69041  Biso   1.000  H
  C107     1.0000 0.43199  0.41334  0.14576  Biso   1.000  C
  C108     1.0000 0.44501  0.36796  0.11377  Biso   1.000  C
  C109     1.0000 0.46554  0.42562  0.19435  Biso   1.000  C
  C110     1.0000 0.38623  0.44501  0.13204  Biso   1.000  C
  C111     1.0000 0.38623  0.44501  0.13200  Biso   1.000  C
  H107     1.0000 0.47589  0.34598  0.12309  Biso   1.000  H
  C112     1.0000 0.41334  0.35424  0.06801  Biso   1.000  C
  N29      1.0000 0.45326  0.46386  0.22803  Biso   1.000  N
  H108     1.0000 0.49758  0.40430  0.20088  Biso   1.000  H
  C113     1.0000 0.35424  0.43199  0.08662  Biso   1.000  C
  H109     1.0000 0.37691  0.47589  0.15402  Biso   1.000  H
  H110     1.0000 0.37691  0.47589  0.15398  Biso   1.000  H
  C114     1.0000 0.36796  0.38623  0.05499  Biso   1.000  C
  C115     1.0000 0.42562  0.30565  0.03446  Biso   1.000  C
  C116     1.0000 0.36796  0.38623  0.05495  Biso   1.000  C
  C117     1.0000 0.42562  0.30565  0.03442  Biso   1.000  C
  C118     1.0000 0.48940  0.47059  0.27526  Biso   1.000  C
  C119     1.0000 0.30565  0.46554  0.07438  Biso   1.000  C
  H111     1.0000 0.34598  0.37691  0.02411  Biso   1.000  H
  H112     1.0000 0.40430  0.29908  0.00238  Biso   1.000  H
  N30      1.0000 0.46386  0.27197  0.04674  Biso   1.000  N
  N31      1.0000 0.46386  0.27197  0.04670  Biso   1.000  N
  C120     1.0000 0.51056  0.52941  0.27526  Biso   1.000  C
  H113     1.0000 0.46899  0.46308  0.30959  Biso   1.000  H
  H114     1.0000 0.52049  0.44460  0.27292  Biso   1.000  H
  H115     1.0000 0.52049  0.44460  0.27288  Biso   1.000  H
  H116     1.0000 0.29908  0.49758  0.09570  Biso   1.000  H
  N32      1.0000 0.27197  0.45326  0.03614  Biso   1.000  N
  N33      1.0000 0.27197  0.45326  0.03610  Biso   1.000  N
  C121     1.0000 0.47059  0.22474  0.01060  Biso   1.000  C
  C122     1.0000 0.47059  0.22474  0.01056  Biso   1.000  C
  N34      1.0000 0.54670  0.53614  0.22803  Biso   1.000  N
  H117     1.0000 0.53101  0.53688  0.30959  Biso   1.000  H
  H118     1.0000 0.47951  0.55540  0.27292  Biso   1.000  H
  H119     1.0000 0.47951  0.55540  0.27288  Biso   1.000  H
  C123     1.0000 0.22474  0.48940  0.02941  Biso   1.000  C
  H120     1.0000 0.46308  0.19041  0.03101  Biso   1.000  H
  C124     1.0000 0.52941  0.22474  0.98940  Biso   1.000  C
  H121     1.0000 0.44460  0.22708  0.97951  Biso   1.000  H
  C125     1.0000 0.53442  0.57438  0.19435  Biso   1.000  C
  H122     1.0000 0.22708  0.52049  0.05540  Biso   1.000  H
  H123     1.0000 0.19041  0.46899  0.03688  Biso   1.000  H
  C126     1.0000 0.22474  0.51056  0.97059  Biso   1.000  C
  H124     1.0000 0.55540  0.22708  0.02049  Biso   1.000  H
  N35      1.0000 0.53614  0.27197  0.95326  Biso   1.000  N
  H125     1.0000 0.53688  0.19041  0.96899  Biso   1.000  H
  C127     1.0000 0.56801  0.58662  0.14576  Biso   1.000  C
  H126     1.0000 0.50238  0.59570  0.20088  Biso   1.000  H
  N36      1.0000 0.27197  0.54670  0.96386  Biso   1.000  N
  H127     1.0000 0.22708  0.47951  0.94460  Biso   1.000  H
  H128     1.0000 0.19041  0.53101  0.96312  Biso   1.000  H
  H129     1.0000 0.19041  0.53101  0.96308  Biso   1.000  H
  C128     1.0000 0.57438  0.30565  0.96554  Biso   1.000  C
  C129     1.0000 0.55499  0.63204  0.11377  Biso   1.000  C
  C130     1.0000 0.61377  0.55499  0.13204  Biso   1.000  C
  C131     1.0000 0.61377  0.55499  0.13200  Biso   1.000  C
  C132     1.0000 0.30565  0.53442  0.92562  Biso   1.000  C
  C133     1.0000 0.58662  0.35424  0.93199  Biso   1.000  C
  H130     1.0000 0.59570  0.29908  0.99762  Biso   1.000  H
  H131     1.0000 0.59570  0.29908  0.99758  Biso   1.000  H
  C134     1.0000 0.58662  0.64576  0.06801  Biso   1.000  C
  H132     1.0000 0.52411  0.65398  0.12309  Biso   1.000  H
  C135     1.0000 0.64576  0.56801  0.08662  Biso   1.000  C
  H133     1.0000 0.62309  0.52411  0.15402  Biso   1.000  H
  H134     1.0000 0.62309  0.52411  0.15398  Biso   1.000  H
  C136     1.0000 0.35424  0.56801  0.91338  Biso   1.000  C
  H135     1.0000 0.29908  0.50238  0.90430  Biso   1.000  H
  C137     1.0000 0.35424  0.56801  0.91334  Biso   1.000  C
  C138     1.0000 0.63204  0.38623  0.94501  Biso   1.000  C
  C139     1.0000 0.55499  0.36796  0.88623  Biso   1.000  C
  C140     1.0000 0.63204  0.61377  0.05499  Biso   1.000  C
  C141     1.0000 0.57438  0.69435  0.03446  Biso   1.000  C
  C142     1.0000 0.63204  0.61377  0.05495  Biso   1.000  C
  C143     1.0000 0.57438  0.69435  0.03442  Biso   1.000  C
  C144     1.0000 0.69435  0.53442  0.07438  Biso   1.000  C
  C145     1.0000 0.36796  0.61377  0.94501  Biso   1.000  C
  C146     1.0000 0.38623  0.55499  0.86796  Biso   1.000  C
  C147     1.0000 0.64576  0.43199  0.91338  Biso   1.000  C
  H136     1.0000 0.65398  0.37691  0.97589  Biso   1.000  H
  C148     1.0000 0.64576  0.43199  0.91334  Biso   1.000  C
  H137     1.0000 0.52411  0.34598  0.87691  Biso   1.000  H
  C149     1.0000 0.56801  0.41334  0.85424  Biso   1.000  C
  H138     1.0000 0.65398  0.62309  0.02411  Biso   1.000  H
  H139     1.0000 0.59570  0.70088  0.00238  Biso   1.000  H
  N37      1.0000 0.53614  0.72803  0.04674  Biso   1.000  N
  N38      1.0000 0.53614  0.72803  0.04670  Biso   1.000  N
  H140     1.0000 0.70088  0.50238  0.09570  Biso   1.000  H
  N39      1.0000 0.72803  0.54670  0.03614  Biso   1.000  N
  N40      1.0000 0.72803  0.54670  0.03610  Biso   1.000  N
  H141     1.0000 0.34598  0.62309  0.97589  Biso   1.000  H
  C150     1.0000 0.41334  0.64576  0.93199  Biso   1.000  C
  C151     1.0000 0.43199  0.58662  0.85424  Biso   1.000  C
  H142     1.0000 0.37691  0.52411  0.84598  Biso   1.000  H
  C152     1.0000 0.61377  0.44501  0.86796  Biso   1.000  C
  C153     1.0000 0.69435  0.46554  0.92562  Biso   1.000  C
  C154     1.0000 0.53442  0.42562  0.80565  Biso   1.000  C
  C155     1.0000 0.52941  0.77526  0.01060  Biso   1.000  C
  C156     1.0000 0.52941  0.77526  0.01056  Biso   1.000  C
  C157     1.0000 0.77526  0.51056  0.02941  Biso   1.000  C
  C158     1.0000 0.42562  0.69435  0.96554  Biso   1.000  C
  C159     1.0000 0.44501  0.63204  0.88623  Biso   1.000  C
  C160     1.0000 0.46554  0.57438  0.80565  Biso   1.000  C
  H143     1.0000 0.62309  0.47589  0.84598  Biso   1.000  H
  N41      1.0000 0.72803  0.45326  0.96386  Biso   1.000  N
  H144     1.0000 0.70088  0.49758  0.90430  Biso   1.000  H
  N42      1.0000 0.54670  0.46386  0.77197  Biso   1.000  N
  H145     1.0000 0.50238  0.40430  0.79912  Biso   1.000  H
  H146     1.0000 0.50238  0.40430  0.79908  Biso   1.000  H
  H147     1.0000 0.53688  0.80959  0.03101  Biso   1.000  H
  H148     1.0000 0.55540  0.77288  0.97951  Biso   1.000  H
  C161     1.0000 0.47059  0.77526  0.98940  Biso   1.000  C
  C162     1.0000 0.77526  0.48940  0.97059  Biso   1.000  C
  H149     1.0000 0.77288  0.47951  0.05540  Biso   1.000  H
  H150     1.0000 0.80959  0.53101  0.03688  Biso   1.000  H
  N43      1.0000 0.46386  0.72803  0.95326  Biso   1.000  N
  H151     1.0000 0.40430  0.70088  0.99762  Biso   1.000  H
  H152     1.0000 0.40430  0.70088  0.99758  Biso   1.000  H
  H153     1.0000 0.47589  0.65398  0.87691  Biso   1.000  H
  N44      1.0000 0.45326  0.53614  0.77197  Biso   1.000  N
  H154     1.0000 0.49758  0.59570  0.79912  Biso   1.000  H
  H155     1.0000 0.49758  0.59570  0.79908  Biso   1.000  H
  C163     1.0000 0.51056  0.47059  0.72474  Biso   1.000  C
  H156     1.0000 0.44460  0.77288  0.02049  Biso   1.000  H
  H157     1.0000 0.46308  0.80959  0.96899  Biso   1.000  H
  H158     1.0000 0.77288  0.52049  0.94460  Biso   1.000  H
  H159     1.0000 0.80959  0.46899  0.96312  Biso   1.000  H
  H160     1.0000 0.80959  0.46899  0.96308  Biso   1.000  H
  C164     1.0000 0.48940  0.52941  0.72474  Biso   1.000  C
  H161     1.0000 0.47951  0.44460  0.72708  Biso   1.000  H
  H162     1.0000 0.53101  0.46308  0.69041  Biso   1.000  H
  H163     1.0000 0.52049  0.55540  0.72708  Biso   1.000  H
  H164     1.0000 0.46899  0.53688  0.69041  Biso   1.000  H
  C165     1.0000 0.41334  0.14576  0.43199  Biso   1.000  C
  C166     1.0000 0.44501  0.13204  0.38623  Biso   1.000  C
  C167     1.0000 0.36796  0.11377  0.44501  Biso   1.000  C
  C168     1.0000 0.42562  0.19435  0.46554  Biso   1.000  C
  C169     1.0000 0.44501  0.13200  0.38623  Biso   1.000  C
  H165     1.0000 0.47589  0.15402  0.37691  Biso   1.000  H
  C170     1.0000 0.43199  0.08662  0.35424  Biso   1.000  C
  H166     1.0000 0.47589  0.15398  0.37691  Biso   1.000  H
  H167     1.0000 0.34598  0.12309  0.47589  Biso   1.000  H
  C171     1.0000 0.35424  0.06801  0.41334  Biso   1.000  C
  N45      1.0000 0.46386  0.22803  0.45326  Biso   1.000  N
  H168     1.0000 0.40430  0.20088  0.49758  Biso   1.000  H
  C172     1.0000 0.46554  0.07438  0.30565  Biso   1.000  C
  C173     1.0000 0.38623  0.05499  0.36796  Biso   1.000  C
  C174     1.0000 0.38623  0.05495  0.36796  Biso   1.000  C
  C175     1.0000 0.30565  0.03446  0.42562  Biso   1.000  C
  C176     1.0000 0.30565  0.03442  0.42562  Biso   1.000  C
  C177     1.0000 0.47059  0.27526  0.48940  Biso   1.000  C
  N46      1.0000 0.45326  0.03614  0.27197  Biso   1.000  N
  H169     1.0000 0.49758  0.09570  0.29908  Biso   1.000  H
  N47      1.0000 0.45326  0.03610  0.27197  Biso   1.000  N
  H170     1.0000 0.37691  0.02411  0.34598  Biso   1.000  H
  N48      1.0000 0.27197  0.04674  0.46386  Biso   1.000  N
  H171     1.0000 0.29908  0.00238  0.40430  Biso   1.000  H
  N49      1.0000 0.27197  0.04670  0.46386  Biso   1.000  N
  C178     1.0000 0.52941  0.27526  0.51056  Biso   1.000  C
  H172     1.0000 0.44460  0.27292  0.52049  Biso   1.000  H
  H173     1.0000 0.46308  0.30959  0.46899  Biso   1.000  H
  H174     1.0000 0.44460  0.27288  0.52049  Biso   1.000  H
  C179     1.0000 0.48940  0.02941  0.22474  Biso   1.000  C
  C180     1.0000 0.22474  0.01060  0.47059  Biso   1.000  C
  C181     1.0000 0.22474  0.01056  0.47059  Biso   1.000  C
  N50      1.0000 0.53614  0.22803  0.54670  Biso   1.000  N
  H175     1.0000 0.55540  0.27292  0.47951  Biso   1.000  H
  H176     1.0000 0.53688  0.30959  0.53101  Biso   1.000  H
  H177     1.0000 0.55540  0.27288  0.47951  Biso   1.000  H
  H178     1.0000 0.52049  0.05540  0.22708  Biso   1.000  H
  H179     1.0000 0.46899  0.03688  0.19041  Biso   1.000  H
  C182     1.0000 0.51056  0.97059  0.22474  Biso   1.000  C
  H180     1.0000 0.19041  0.03101  0.46308  Biso   1.000  H
  C183     1.0000 0.22474  0.98940  0.52941  Biso   1.000  C
  H181     1.0000 0.22708  0.97951  0.44460  Biso   1.000  H
  C184     1.0000 0.57438  0.19435  0.53442  Biso   1.000  C
  N51      1.0000 0.54670  0.96386  0.27197  Biso   1.000  N
  H182     1.0000 0.47951  0.94460  0.22708  Biso   1.000  H
  H183     1.0000 0.53101  0.96312  0.19041  Biso   1.000  H
  H184     1.0000 0.53101  0.96308  0.19041  Biso   1.000  H
  H185     1.0000 0.22708  0.02049  0.55540  Biso   1.000  H
  N52      1.0000 0.27197  0.95326  0.53614  Biso   1.000  N
  H186     1.0000 0.19041  0.96899  0.53688  Biso   1.000  H
  C185     1.0000 0.58662  0.14576  0.56801  Biso   1.000  C
  H187     1.0000 0.59570  0.20088  0.50238  Biso   1.000  H
  C186     1.0000 0.53442  0.92562  0.30565  Biso   1.000  C
  C187     1.0000 0.30565  0.96554  0.57438  Biso   1.000  C
  C188     1.0000 0.55499  0.13204  0.61377  Biso   1.000  C
  C189     1.0000 0.63204  0.11377  0.55499  Biso   1.000  C
  C190     1.0000 0.55499  0.13200  0.61377  Biso   1.000  C
  C191     1.0000 0.56801  0.91338  0.35424  Biso   1.000  C
  H188     1.0000 0.50238  0.90430  0.29908  Biso   1.000  H
  C192     1.0000 0.56801  0.91334  0.35424  Biso   1.000  C
  C193     1.0000 0.35424  0.93199  0.58662  Biso   1.000  C
  H189     1.0000 0.29908  0.99762  0.59570  Biso   1.000  H
  H190     1.0000 0.29908  0.99758  0.59570  Biso   1.000  H
  H191     1.0000 0.52411  0.15402  0.62309  Biso   1.000  H
  C194     1.0000 0.56801  0.08662  0.64576  Biso   1.000  C
  H192     1.0000 0.52411  0.15398  0.62309  Biso   1.000  H
  C195     1.0000 0.64576  0.06801  0.58662  Biso   1.000  C
  H193     1.0000 0.65398  0.12309  0.52411  Biso   1.000  H
  C196     1.0000 0.61377  0.94501  0.36796  Biso   1.000  C
  C197     1.0000 0.55499  0.86796  0.38623  Biso   1.000  C
  C198     1.0000 0.38623  0.94501  0.63204  Biso   1.000  C
  C199     1.0000 0.36796  0.88623  0.55499  Biso   1.000  C
  C200     1.0000 0.53442  0.07438  0.69435  Biso   1.000  C
  C201     1.0000 0.61377  0.05499  0.63204  Biso   1.000  C
  C202     1.0000 0.61377  0.05495  0.63204  Biso   1.000  C
  C203     1.0000 0.69435  0.03446  0.57438  Biso   1.000  C
  C204     1.0000 0.69435  0.03442  0.57438  Biso   1.000  C
  H194     1.0000 0.62309  0.97589  0.34598  Biso   1.000  H
  C205     1.0000 0.64576  0.93199  0.41334  Biso   1.000  C
  C206     1.0000 0.58662  0.85424  0.43199  Biso   1.000  C
  H195     1.0000 0.52411  0.84598  0.37691  Biso   1.000  H
  C207     1.0000 0.43199  0.91338  0.64576  Biso   1.000  C
  H196     1.0000 0.37691  0.97589  0.65398  Biso   1.000  H
  C208     1.0000 0.43199  0.91334  0.64576  Biso   1.000  C
  H197     1.0000 0.34598  0.87691  0.52411  Biso   1.000  H
  C209     1.0000 0.41334  0.85424  0.56801  Biso   1.000  C
  N53      1.0000 0.54670  0.03614  0.72803  Biso   1.000  N
  H198     1.0000 0.50238  0.09570  0.70088  Biso   1.000  H
  N54      1.0000 0.54670  0.03610  0.72803  Biso   1.000  N
  H199     1.0000 0.62309  0.02411  0.65398  Biso   1.000  H
  N55      1.0000 0.72803  0.04674  0.53614  Biso   1.000  N
  H200     1.0000 0.70088  0.00238  0.59570  Biso   1.000  H
  N56      1.0000 0.72803  0.04670  0.53614  Biso   1.000  N
  C210     1.0000 0.69435  0.96554  0.42562  Biso   1.000  C
  C211     1.0000 0.63204  0.88623  0.44501  Biso   1.000  C
  C212     1.0000 0.57438  0.80565  0.46554  Biso   1.000  C
  C213     1.0000 0.44501  0.86796  0.61377  Biso   1.000  C
  C214     1.0000 0.46554  0.92562  0.69435  Biso   1.000  C
  C215     1.0000 0.42562  0.80565  0.53442  Biso   1.000  C
  C216     1.0000 0.51056  0.02941  0.77526  Biso   1.000  C
  C217     1.0000 0.77526  0.01060  0.52941  Biso   1.000  C
  C218     1.0000 0.77526  0.01056  0.52941  Biso   1.000  C
  N57      1.0000 0.72803  0.95326  0.46386  Biso   1.000  N
  H201     1.0000 0.70088  0.99762  0.40430  Biso   1.000  H
  H202     1.0000 0.70088  0.99758  0.40430  Biso   1.000  H
  H203     1.0000 0.65398  0.87691  0.47589  Biso   1.000  H
  N58      1.0000 0.53614  0.77197  0.45326  Biso   1.000  N
  H204     1.0000 0.59570  0.79912  0.49758  Biso   1.000  H
  H205     1.0000 0.59570  0.79908  0.49758  Biso   1.000  H
  H206     1.0000 0.47589  0.84598  0.62309  Biso   1.000  H
  N59      1.0000 0.45326  0.96386  0.72803  Biso   1.000  N
  H207     1.0000 0.49758  0.90430  0.70088  Biso   1.000  H
  N60      1.0000 0.46386  0.77197  0.54670  Biso   1.000  N
  H208     1.0000 0.40430  0.79912  0.50238  Biso   1.000  H
  H209     1.0000 0.40430  0.79908  0.50238  Biso   1.000  H
  H210     1.0000 0.47951  0.05540  0.77288  Biso   1.000  H
  H211     1.0000 0.53101  0.03688  0.80959  Biso   1.000  H
  C219     1.0000 0.48940  0.97059  0.77526  Biso   1.000  C
  C220     1.0000 0.77526  0.98940  0.47059  Biso   1.000  C
  H212     1.0000 0.80959  0.03101  0.53688  Biso   1.000  H
  H213     1.0000 0.77288  0.97951  0.55540  Biso   1.000  H
  C221     1.0000 0.52941  0.72474  0.48940  Biso   1.000  C
  C222     1.0000 0.47059  0.72474  0.51056  Biso   1.000  C
  H214     1.0000 0.52049  0.94460  0.77288  Biso   1.000  H
  H215     1.0000 0.46899  0.96312  0.80959  Biso   1.000  H
  H216     1.0000 0.46899  0.96308  0.80959  Biso   1.000  H
  H217     1.0000 0.77288  0.02049  0.44460  Biso   1.000  H
  H218     1.0000 0.80959  0.96899  0.46308  Biso   1.000  H
  H219     1.0000 0.55540  0.72708  0.52049  Biso   1.000  H
  H220     1.0000 0.53688  0.69041  0.46899  Biso   1.000  H
  H221     1.0000 0.44460  0.72708  0.47951  Biso   1.000  H
  H222     1.0000 0.46308  0.69041  0.53101  Biso   1.000  H
  C223     1.0000 0.41334  0.14576  0.43199  Biso   1.000  C
  C224     1.0000 0.44501  0.13204  0.38623  Biso   1.000  C
  C225     1.0000 0.44501  0.13200  0.38623  Biso   1.000  C
  C226     1.0000 0.36796  0.11377  0.44501  Biso   1.000  C
  C227     1.0000 0.42562  0.19435  0.46554  Biso   1.000  C
  C228     1.0000 0.43199  0.08662  0.35424  Biso   1.000  C
  H223     1.0000 0.47589  0.15402  0.37691  Biso   1.000  H
  H224     1.0000 0.47589  0.15398  0.37691  Biso   1.000  H
  C229     1.0000 0.35424  0.06801  0.41334  Biso   1.000  C
  H225     1.0000 0.34598  0.12309  0.47589  Biso   1.000  H
  N61      1.0000 0.46386  0.22803  0.45326  Biso   1.000  N
  H226     1.0000 0.40430  0.20088  0.49758  Biso   1.000  H
  C230     1.0000 0.46554  0.07438  0.30565  Biso   1.000  C
  C231     1.0000 0.38623  0.05499  0.36796  Biso   1.000  C
  C232     1.0000 0.38623  0.05495  0.36796  Biso   1.000  C
  C233     1.0000 0.30565  0.03446  0.42562  Biso   1.000  C
  C234     1.0000 0.30565  0.03442  0.42562  Biso   1.000  C
  C235     1.0000 0.47059  0.27526  0.48940  Biso   1.000  C
  H227     1.0000 0.49758  0.09570  0.29908  Biso   1.000  H
  N62      1.0000 0.45326  0.03614  0.27197  Biso   1.000  N
  N63      1.0000 0.45326  0.03610  0.27197  Biso   1.000  N
  H228     1.0000 0.37691  0.02411  0.34598  Biso   1.000  H
  H229     1.0000 0.29908  0.00238  0.40430  Biso   1.000  H
  N64      1.0000 0.27197  0.04674  0.46386  Biso   1.000  N
  N65      1.0000 0.27197  0.04670  0.46386  Biso   1.000  N
  C236     1.0000 0.52941  0.27526  0.51056  Biso   1.000  C
  H230     1.0000 0.46308  0.30959  0.46899  Biso   1.000  H
  H231     1.0000 0.44460  0.27292  0.52049  Biso   1.000  H
  H232     1.0000 0.44460  0.27288  0.52049  Biso   1.000  H
  C237     1.0000 0.48940  0.02941  0.22474  Biso   1.000  C
  C238     1.0000 0.22474  0.01060  0.47059  Biso   1.000  C
  C239     1.0000 0.22474  0.01056  0.47059  Biso   1.000  C
  N66      1.0000 0.53614  0.22803  0.54670  Biso   1.000  N
  H233     1.0000 0.53688  0.30959  0.53101  Biso   1.000  H
  H234     1.0000 0.55540  0.27292  0.47951  Biso   1.000  H
  H235     1.0000 0.55540  0.27288  0.47951  Biso   1.000  H
  H236     1.0000 0.52049  0.05540  0.22708  Biso   1.000  H
  H237     1.0000 0.46899  0.03688  0.19041  Biso   1.000  H
  C240     1.0000 0.51056  0.97059  0.22474  Biso   1.000  C
  H238     1.0000 0.19041  0.03101  0.46308  Biso   1.000  H
  C241     1.0000 0.22474  0.98940  0.52941  Biso   1.000  C
  H239     1.0000 0.22708  0.97951  0.44460  Biso   1.000  H
  C242     1.0000 0.57438  0.19435  0.53442  Biso   1.000  C
  N67      1.0000 0.54670  0.96386  0.27197  Biso   1.000  N
  H240     1.0000 0.47951  0.94460  0.22708  Biso   1.000  H
  H241     1.0000 0.53101  0.96312  0.19041  Biso   1.000  H
  H242     1.0000 0.53101  0.96308  0.19041  Biso   1.000  H
  H243     1.0000 0.22708  0.02049  0.55540  Biso   1.000  H
  N68      1.0000 0.27197  0.95326  0.53614  Biso   1.000  N
  H244     1.0000 0.19041  0.96899  0.53688  Biso   1.000  H
  C243     1.0000 0.58662  0.14576  0.56801  Biso   1.000  C
  H245     1.0000 0.59570  0.20088  0.50238  Biso   1.000  H
  C244     1.0000 0.53442  0.92562  0.30565  Biso   1.000  C
  C245     1.0000 0.30565  0.96554  0.57438  Biso   1.000  C
  C246     1.0000 0.63204  0.11377  0.55499  Biso   1.000  C
  C247     1.0000 0.55499  0.13204  0.61377  Biso   1.000  C
  C248     1.0000 0.55499  0.13200  0.61377  Biso   1.000  C
  C249     1.0000 0.56801  0.91338  0.35424  Biso   1.000  C
  H246     1.0000 0.50238  0.90430  0.29908  Biso   1.000  H
  C250     1.0000 0.56801  0.91334  0.35424  Biso   1.000  C
  C251     1.0000 0.35424  0.93199  0.58662  Biso   1.000  C
  H247     1.0000 0.29908  0.99762  0.59570  Biso   1.000  H
  H248     1.0000 0.29908  0.99758  0.59570  Biso   1.000  H
  C252     1.0000 0.64576  0.06801  0.58662  Biso   1.000  C
  H249     1.0000 0.65398  0.12309  0.52411  Biso   1.000  H
  C253     1.0000 0.56801  0.08662  0.64576  Biso   1.000  C
  H250     1.0000 0.52411  0.15402  0.62309  Biso   1.000  H
  H251     1.0000 0.52411  0.15398  0.62309  Biso   1.000  H
  C254     1.0000 0.61377  0.94501  0.36796  Biso   1.000  C
  C255     1.0000 0.55499  0.86796  0.38623  Biso   1.000  C
  C256     1.0000 0.38623  0.94501  0.63204  Biso   1.000  C
  C257     1.0000 0.36796  0.88623  0.55499  Biso   1.000  C
  C258     1.0000 0.61377  0.05499  0.63204  Biso   1.000  C
  C259     1.0000 0.69435  0.03446  0.57438  Biso   1.000  C
  C260     1.0000 0.61377  0.05495  0.63204  Biso   1.000  C
  C261     1.0000 0.69435  0.03442  0.57438  Biso   1.000  C
  C262     1.0000 0.53442  0.07438  0.69435  Biso   1.000  C
  H252     1.0000 0.62309  0.97589  0.34598  Biso   1.000  H
  C263     1.0000 0.64576  0.93199  0.41334  Biso   1.000  C
  C264     1.0000 0.58662  0.85424  0.43199  Biso   1.000  C
  H253     1.0000 0.52411  0.84598  0.37691  Biso   1.000  H
  C265     1.0000 0.43199  0.91338  0.64576  Biso   1.000  C
  H254     1.0000 0.37691  0.97589  0.65398  Biso   1.000  H
  C266     1.0000 0.43199  0.91334  0.64576  Biso   1.000  C
  H255     1.0000 0.34598  0.87691  0.52411  Biso   1.000  H
  C267     1.0000 0.41334  0.85424  0.56801  Biso   1.000  C
  H256     1.0000 0.62309  0.02411  0.65398  Biso   1.000  H
  H257     1.0000 0.70088  0.00238  0.59570  Biso   1.000  H
  N69      1.0000 0.72803  0.04674  0.53614  Biso   1.000  N
  N70      1.0000 0.72803  0.04670  0.53614  Biso   1.000  N
  H258     1.0000 0.50238  0.09570  0.70088  Biso   1.000  H
  N71      1.0000 0.54670  0.03614  0.72803  Biso   1.000  N
  N72      1.0000 0.54670  0.03610  0.72803  Biso   1.000  N
  C268     1.0000 0.69435  0.96554  0.42562  Biso   1.000  C
  C269     1.0000 0.63204  0.88623  0.44501  Biso   1.000  C
  C270     1.0000 0.57438  0.80565  0.46554  Biso   1.000  C
  C271     1.0000 0.44501  0.86796  0.61377  Biso   1.000  C
  C272     1.0000 0.46554  0.92562  0.69435  Biso   1.000  C
  C273     1.0000 0.42562  0.80565  0.53442  Biso   1.000  C
  C274     1.0000 0.77526  0.01060  0.52941  Biso   1.000  C
  C275     1.0000 0.77526  0.01056  0.52941  Biso   1.000  C
  C276     1.0000 0.51056  0.02941  0.77526  Biso   1.000  C
  N73      1.0000 0.72803  0.95326  0.46386  Biso   1.000  N
  H259     1.0000 0.70088  0.99762  0.40430  Biso   1.000  H
  H260     1.0000 0.70088  0.99758  0.40430  Biso   1.000  H
  H261     1.0000 0.65398  0.87691  0.47589  Biso   1.000  H
  N74      1.0000 0.53614  0.77197  0.45326  Biso   1.000  N
  H262     1.0000 0.59570  0.79912  0.49758  Biso   1.000  H
  H263     1.0000 0.59570  0.79908  0.49758  Biso   1.000  H
  H264     1.0000 0.47589  0.84598  0.62309  Biso   1.000  H
  N75      1.0000 0.45326  0.96386  0.72803  Biso   1.000  N
  H265     1.0000 0.49758  0.90430  0.70088  Biso   1.000  H
  N76      1.0000 0.46386  0.77197  0.54670  Biso   1.000  N
  H266     1.0000 0.40430  0.79912  0.50238  Biso   1.000  H
  H267     1.0000 0.40430  0.79908  0.50238  Biso   1.000  H
  C277     1.0000 0.77526  0.98940  0.47059  Biso   1.000  C
  H268     1.0000 0.80959  0.03101  0.53688  Biso   1.000  H
  H269     1.0000 0.77288  0.97951  0.55540  Biso   1.000  H
  C278     1.0000 0.48940  0.97059  0.77526  Biso   1.000  C
  H270     1.0000 0.47951  0.05540  0.77288  Biso   1.000  H
  H271     1.0000 0.53101  0.03688  0.80959  Biso   1.000  H
  C279     1.0000 0.52941  0.72474  0.48940  Biso   1.000  C
  C280     1.0000 0.47059  0.72474  0.51056  Biso   1.000  C
  H272     1.0000 0.77288  0.02049  0.44460  Biso   1.000  H
  H273     1.0000 0.80959  0.96899  0.46308  Biso   1.000  H
  H274     1.0000 0.52049  0.94460  0.77288  Biso   1.000  H
  H275     1.0000 0.46899  0.96312  0.80959  Biso   1.000  H
  H276     1.0000 0.46899  0.96308  0.80959  Biso   1.000  H
  H277     1.0000 0.55540  0.72708  0.52049  Biso   1.000  H
  H278     1.0000 0.53688  0.69041  0.46899  Biso   1.000  H
  H279     1.0000 0.44460  0.72708  0.47951  Biso   1.000  H
  H280     1.0000 0.46308  0.69041  0.53101  Biso   1.000  H
  C281     1.0000 0.14576  0.43199  0.41334  Biso   1.000  C
  C282     1.0000 0.11377  0.44501  0.36796  Biso   1.000  C
  C283     1.0000 0.19435  0.46554  0.42562  Biso   1.000  C
  C284     1.0000 0.13204  0.38623  0.44501  Biso   1.000  C
  C285     1.0000 0.13200  0.38623  0.44501  Biso   1.000  C
  H281     1.0000 0.12309  0.47589  0.34598  Biso   1.000  H
  C286     1.0000 0.06801  0.41334  0.35424  Biso   1.000  C
  N77      1.0000 0.22803  0.45326  0.46386  Biso   1.000  N
  H282     1.0000 0.20088  0.49758  0.40430  Biso   1.000  H
  H283     1.0000 0.15402  0.37691  0.47589  Biso   1.000  H
  C287     1.0000 0.08662  0.35424  0.43199  Biso   1.000  C
  H284     1.0000 0.15398  0.37691  0.47589  Biso   1.000  H
  C288     1.0000 0.05499  0.36796  0.38623  Biso   1.000  C
  C289     1.0000 0.03446  0.42562  0.30565  Biso   1.000  C
  C290     1.0000 0.05495  0.36796  0.38623  Biso   1.000  C
  C291     1.0000 0.03442  0.42562  0.30565  Biso   1.000  C
  C292     1.0000 0.27526  0.48940  0.47059  Biso   1.000  C
  C293     1.0000 0.07438  0.30565  0.46554  Biso   1.000  C
  H285     1.0000 0.02411  0.34598  0.37691  Biso   1.000  H
  N78      1.0000 0.04674  0.46386  0.27197  Biso   1.000  N
  H286     1.0000 0.00238  0.40430  0.29908  Biso   1.000  H
  N79      1.0000 0.04670  0.46386  0.27197  Biso   1.000  N
  C294     1.0000 0.27526  0.51056  0.52941  Biso   1.000  C
  H287     1.0000 0.27292  0.52049  0.44460  Biso   1.000  H
  H288     1.0000 0.30959  0.46899  0.46308  Biso   1.000  H
  H289     1.0000 0.27288  0.52049  0.44460  Biso   1.000  H
  N80      1.0000 0.03614  0.27197  0.45326  Biso   1.000  N
  H290     1.0000 0.09570  0.29908  0.49758  Biso   1.000  H
  N81      1.0000 0.03610  0.27197  0.45326  Biso   1.000  N
  C295     1.0000 0.01060  0.47059  0.22474  Biso   1.000  C
  C296     1.0000 0.01056  0.47059  0.22474  Biso   1.000  C
  N82      1.0000 0.22803  0.54670  0.53614  Biso   1.000  N
  H291     1.0000 0.27292  0.47951  0.55540  Biso   1.000  H
  H292     1.0000 0.30959  0.53101  0.53688  Biso   1.000  H
  H293     1.0000 0.27288  0.47951  0.55540  Biso   1.000  H
  C297     1.0000 0.02941  0.22474  0.48940  Biso   1.000  C
  H294     1.0000 0.03101  0.46308  0.19041  Biso   1.000  H
  C298     1.0000 0.98940  0.52941  0.22474  Biso   1.000  C
  H295     1.0000 0.97951  0.44460  0.22708  Biso   1.000  H
  C299     1.0000 0.19435  0.53442  0.57438  Biso   1.000  C
  H296     1.0000 0.05540  0.22708  0.52049  Biso   1.000  H
  H297     1.0000 0.03688  0.19041  0.46899  Biso   1.000  H
  C300     1.0000 0.97059  0.22474  0.51056  Biso   1.000  C
  H298     1.0000 0.02049  0.55540  0.22708  Biso   1.000  H
  N83      1.0000 0.95326  0.53614  0.27197  Biso   1.000  N
  H299     1.0000 0.96899  0.53688  0.19041  Biso   1.000  H
  C301     1.0000 0.14576  0.56801  0.58662  Biso   1.000  C
  H300     1.0000 0.20088  0.50238  0.59570  Biso   1.000  H
  N84      1.0000 0.96386  0.27197  0.54670  Biso   1.000  N
  H301     1.0000 0.94460  0.22708  0.47951  Biso   1.000  H
  H302     1.0000 0.96312  0.19041  0.53101  Biso   1.000  H
  H303     1.0000 0.96308  0.19041  0.53101  Biso   1.000  H
  C302     1.0000 0.96554  0.57438  0.30565  Biso   1.000  C
  C303     1.0000 0.13204  0.61377  0.55499  Biso   1.000  C
  C304     1.0000 0.11377  0.55499  0.63204  Biso   1.000  C
  C305     1.0000 0.13200  0.61377  0.55499  Biso   1.000  C
  C306     1.0000 0.92562  0.30565  0.53442  Biso   1.000  C
  C307     1.0000 0.93199  0.58662  0.35424  Biso   1.000  C
  H304     1.0000 0.99762  0.59570  0.29908  Biso   1.000  H
  H305     1.0000 0.99758  0.59570  0.29908  Biso   1.000  H
  H306     1.0000 0.15402  0.62309  0.52411  Biso   1.000  H
  C308     1.0000 0.08662  0.64576  0.56801  Biso   1.000  C
  H307     1.0000 0.15398  0.62309  0.52411  Biso   1.000  H
  C309     1.0000 0.06801  0.58662  0.64576  Biso   1.000  C
  H308     1.0000 0.12309  0.52411  0.65398  Biso   1.000  H
  C310     1.0000 0.91338  0.35424  0.56801  Biso   1.000  C
  H309     1.0000 0.90430  0.29908  0.50238  Biso   1.000  H
  C311     1.0000 0.91334  0.35424  0.56801  Biso   1.000  C
  C312     1.0000 0.94501  0.63204  0.38623  Biso   1.000  C
  C313     1.0000 0.88623  0.55499  0.36796  Biso   1.000  C
  C314     1.0000 0.07438  0.69435  0.53442  Biso   1.000  C
  C315     1.0000 0.05499  0.63204  0.61377  Biso   1.000  C
  C316     1.0000 0.05495  0.63204  0.61377  Biso   1.000  C
  C317     1.0000 0.03446  0.57438  0.69435  Biso   1.000  C
  C318     1.0000 0.03442  0.57438  0.69435  Biso   1.000  C
  C319     1.0000 0.94501  0.36796  0.61377  Biso   1.000  C
  C320     1.0000 0.86796  0.38623  0.55499  Biso   1.000  C
  C321     1.0000 0.91338  0.64576  0.43199  Biso   1.000  C
  H310     1.0000 0.97589  0.65398  0.37691  Biso   1.000  H
  C322     1.0000 0.91334  0.64576  0.43199  Biso   1.000  C
  H311     1.0000 0.87691  0.52411  0.34598  Biso   1.000  H
  C323     1.0000 0.85424  0.56801  0.41334  Biso   1.000  C
  N85      1.0000 0.03614  0.72803  0.54670  Biso   1.000  N
  H312     1.0000 0.09570  0.70088  0.50238  Biso   1.000  H
  N86      1.0000 0.03610  0.72803  0.54670  Biso   1.000  N
  H313     1.0000 0.02411  0.65398  0.62309  Biso   1.000  H
  N87      1.0000 0.04674  0.53614  0.72803  Biso   1.000  N
  H314     1.0000 0.00238  0.59570  0.70088  Biso   1.000  H
  N88      1.0000 0.04670  0.53614  0.72803  Biso   1.000  N
  H315     1.0000 0.97589  0.34598  0.62309  Biso   1.000  H
  C324     1.0000 0.93199  0.41334  0.64576  Biso   1.000  C
  C325     1.0000 0.85424  0.43199  0.58662  Biso   1.000  C
  H316     1.0000 0.84598  0.37691  0.52411  Biso   1.000  H
  C326     1.0000 0.86796  0.61377  0.44501  Biso   1.000  C
  C327     1.0000 0.92562  0.69435  0.46554  Biso   1.000  C
  C328     1.0000 0.80565  0.53442  0.42562  Biso   1.000  C
  C329     1.0000 0.02941  0.77526  0.51056  Biso   1.000  C
  C330     1.0000 0.01060  0.52941  0.77526  Biso   1.000  C
  C331     1.0000 0.01056  0.52941  0.77526  Biso   1.000  C
  C332     1.0000 0.96554  0.42562  0.69435  Biso   1.000  C
  C333     1.0000 0.88623  0.44501  0.63204  Biso   1.000  C
  C334     1.0000 0.80565  0.46554  0.57438  Biso   1.000  C
  H317     1.0000 0.84598  0.62309  0.47589  Biso   1.000  H
  N89      1.0000 0.96386  0.72803  0.45326  Biso   1.000  N
  H318     1.0000 0.90430  0.70088  0.49758  Biso   1.000  H
  N90      1.0000 0.77197  0.54670  0.46386  Biso   1.000  N
  H319     1.0000 0.79912  0.50238  0.40430  Biso   1.000  H
  H320     1.0000 0.79908  0.50238  0.40430  Biso   1.000  H
  H321     1.0000 0.05540  0.77288  0.47951  Biso   1.000  H
  H322     1.0000 0.03688  0.80959  0.53101  Biso   1.000  H
  C335     1.0000 0.97059  0.77526  0.48940  Biso   1.000  C
  H323     1.0000 0.03101  0.53688  0.80959  Biso   1.000  H
  H324     1.0000 0.97951  0.55540  0.77288  Biso   1.000  H
  C336     1.0000 0.98940  0.47059  0.77526  Biso   1.000  C
  N91      1.0000 0.95326  0.46386  0.72803  Biso   1.000  N
  H325     1.0000 0.99762  0.40430  0.70088  Biso   1.000  H
  H326     1.0000 0.99758  0.40430  0.70088  Biso   1.000  H
  H327     1.0000 0.87691  0.47589  0.65398  Biso   1.000  H
  N92      1.0000 0.77197  0.45326  0.53614  Biso   1.000  N
  H328     1.0000 0.79912  0.49758  0.59570  Biso   1.000  H
  H329     1.0000 0.79908  0.49758  0.59570  Biso   1.000  H
  C337     1.0000 0.72474  0.51056  0.47059  Biso   1.000  C
  H330     1.0000 0.94460  0.77288  0.52049  Biso   1.000  H
  H331     1.0000 0.96312  0.80959  0.46899  Biso   1.000  H
  H332     1.0000 0.96308  0.80959  0.46899  Biso   1.000  H
  H333     1.0000 0.02049  0.44460  0.77288  Biso   1.000  H
  H334     1.0000 0.96899  0.46308  0.80959  Biso   1.000  H
  C338     1.0000 0.72474  0.48940  0.52941  Biso   1.000  C
  H335     1.0000 0.72708  0.47951  0.44460  Biso   1.000  H
  H336     1.0000 0.69041  0.53101  0.46308  Biso   1.000  H
  H337     1.0000 0.72708  0.52049  0.55540  Biso   1.000  H
  H338     1.0000 0.69041  0.46899  0.53688  Biso   1.000  H
  C339     1.0000 0.14576  0.43199  0.41334  Biso   1.000  C
  C340     1.0000 0.11377  0.44501  0.36796  Biso   1.000  C
  C341     1.0000 0.19435  0.46554  0.42562  Biso   1.000  C
  C342     1.0000 0.13204  0.38623  0.44501  Biso   1.000  C
  C343     1.0000 0.13200  0.38623  0.44501  Biso   1.000  C
  H339     1.0000 0.12309  0.47589  0.34598  Biso   1.000  H
  C344     1.0000 0.06801  0.41334  0.35424  Biso   1.000  C
  N93      1.0000 0.22803  0.45326  0.46386  Biso   1.000  N
  H340     1.0000 0.20088  0.49758  0.40430  Biso   1.000  H
  C345     1.0000 0.08662  0.35424  0.43199  Biso   1.000  C
  H341     1.0000 0.15402  0.37691  0.47589  Biso   1.000  H
  H342     1.0000 0.15398  0.37691  0.47589  Biso   1.000  H
  C346     1.0000 0.05499  0.36796  0.38623  Biso   1.000  C
  C347     1.0000 0.03446  0.42562  0.30565  Biso   1.000  C
  C348     1.0000 0.05495  0.36796  0.38623  Biso   1.000  C
  C349     1.0000 0.03442  0.42562  0.30565  Biso   1.000  C
  C350     1.0000 0.27526  0.48940  0.47059  Biso   1.000  C
  C351     1.0000 0.07438  0.30565  0.46554  Biso   1.000  C
  H343     1.0000 0.02411  0.34598  0.37691  Biso   1.000  H
  H344     1.0000 0.00238  0.40430  0.29908  Biso   1.000  H
  N94      1.0000 0.04674  0.46386  0.27197  Biso   1.000  N
  N95      1.0000 0.04670  0.46386  0.27197  Biso   1.000  N
  C352     1.0000 0.27526  0.51056  0.52941  Biso   1.000  C
  H345     1.0000 0.30959  0.46899  0.46308  Biso   1.000  H
  H346     1.0000 0.27292  0.52049  0.44460  Biso   1.000  H
  H347     1.0000 0.27288  0.52049  0.44460  Biso   1.000  H
  H348     1.0000 0.09570  0.29908  0.49758  Biso   1.000  H
  N96      1.0000 0.03614  0.27197  0.45326  Biso   1.000  N
  N97      1.0000 0.03610  0.27197  0.45326  Biso   1.000  N
  C353     1.0000 0.01060  0.47059  0.22474  Biso   1.000  C
  C354     1.0000 0.01056  0.47059  0.22474  Biso   1.000  C
  N98      1.0000 0.22803  0.54670  0.53614  Biso   1.000  N
  H349     1.0000 0.30959  0.53101  0.53688  Biso   1.000  H
  H350     1.0000 0.27292  0.47951  0.55540  Biso   1.000  H
  H351     1.0000 0.27288  0.47951  0.55540  Biso   1.000  H
  C355     1.0000 0.02941  0.22474  0.48940  Biso   1.000  C
  H352     1.0000 0.03101  0.46308  0.19041  Biso   1.000  H
  C356     1.0000 0.98940  0.52941  0.22474  Biso   1.000  C
  H353     1.0000 0.97951  0.44460  0.22708  Biso   1.000  H
  C357     1.0000 0.19435  0.53442  0.57438  Biso   1.000  C
  H354     1.0000 0.05540  0.22708  0.52049  Biso   1.000  H
  H355     1.0000 0.03688  0.19041  0.46899  Biso   1.000  H
  C358     1.0000 0.97059  0.22474  0.51056  Biso   1.000  C
  H356     1.0000 0.02049  0.55540  0.22708  Biso   1.000  H
  N99      1.0000 0.95326  0.53614  0.27197  Biso   1.000  N
  H357     1.0000 0.96899  0.53688  0.19041  Biso   1.000  H
  C359     1.0000 0.14576  0.56801  0.58662  Biso   1.000  C
  H358     1.0000 0.20088  0.50238  0.59570  Biso   1.000  H
  N100     1.0000 0.96386  0.27197  0.54670  Biso   1.000  N
  H359     1.0000 0.94460  0.22708  0.47951  Biso   1.000  H
  H360     1.0000 0.96312  0.19041  0.53101  Biso   1.000  H
  H361     1.0000 0.96308  0.19041  0.53101  Biso   1.000  H
  C360     1.0000 0.96554  0.57438  0.30565  Biso   1.000  C
  C361     1.0000 0.11377  0.55499  0.63204  Biso   1.000  C
  C362     1.0000 0.13204  0.61377  0.55499  Biso   1.000  C
  C363     1.0000 0.13200  0.61377  0.55499  Biso   1.000  C
  C364     1.0000 0.92562  0.30565  0.53442  Biso   1.000  C
  C365     1.0000 0.93199  0.58662  0.35424  Biso   1.000  C
  H362     1.0000 0.99762  0.59570  0.29908  Biso   1.000  H
  H363     1.0000 0.99758  0.59570  0.29908  Biso   1.000  H
  C366     1.0000 0.06801  0.58662  0.64576  Biso   1.000  C
  H364     1.0000 0.12309  0.52411  0.65398  Biso   1.000  H
  C367     1.0000 0.08662  0.64576  0.56801  Biso   1.000  C
  H365     1.0000 0.15402  0.62309  0.52411  Biso   1.000  H
  H366     1.0000 0.15398  0.62309  0.52411  Biso   1.000  H
  C368     1.0000 0.91338  0.35424  0.56801  Biso   1.000  C
  H367     1.0000 0.90430  0.29908  0.50238  Biso   1.000  H
  C369     1.0000 0.91334  0.35424  0.56801  Biso   1.000  C
  C370     1.0000 0.94501  0.63204  0.38623  Biso   1.000  C
  C371     1.0000 0.88623  0.55499  0.36796  Biso   1.000  C
  C372     1.0000 0.05499  0.63204  0.61377  Biso   1.000  C
  C373     1.0000 0.03446  0.57438  0.69435  Biso   1.000  C
  C374     1.0000 0.05495  0.63204  0.61377  Biso   1.000  C
  C375     1.0000 0.03442  0.57438  0.69435  Biso   1.000  C
  C376     1.0000 0.07438  0.69435  0.53442  Biso   1.000  C
  C377     1.0000 0.94501  0.36796  0.61377  Biso   1.000  C
  C378     1.0000 0.86796  0.38623  0.55499  Biso   1.000  C
  C379     1.0000 0.91338  0.64576  0.43199  Biso   1.000  C
  H368     1.0000 0.97589  0.65398  0.37691  Biso   1.000  H
  C380     1.0000 0.91334  0.64576  0.43199  Biso   1.000  C
  H369     1.0000 0.87691  0.52411  0.34598  Biso   1.000  H
  C381     1.0000 0.85424  0.56801  0.41334  Biso   1.000  C
  H370     1.0000 0.02411  0.65398  0.62309  Biso   1.000  H
  H371     1.0000 0.00238  0.59570  0.70088  Biso   1.000  H
  N101     1.0000 0.04674  0.53614  0.72803  Biso   1.000  N
  N102     1.0000 0.04670  0.53614  0.72803  Biso   1.000  N
  H372     1.0000 0.09570  0.70088  0.50238  Biso   1.000  H
  N103     1.0000 0.03614  0.72803  0.54670  Biso   1.000  N
  N104     1.0000 0.03610  0.72803  0.54670  Biso   1.000  N
  H373     1.0000 0.97589  0.34598  0.62309  Biso   1.000  H
  C382     1.0000 0.93199  0.41334  0.64576  Biso   1.000  C
  C383     1.0000 0.85424  0.43199  0.58662  Biso   1.000  C
  H374     1.0000 0.84598  0.37691  0.52411  Biso   1.000  H
  C384     1.0000 0.86796  0.61377  0.44501  Biso   1.000  C
  C385     1.0000 0.92562  0.69435  0.46554  Biso   1.000  C
  C386     1.0000 0.80565  0.53442  0.42562  Biso   1.000  C
  C387     1.0000 0.01060  0.52941  0.77526  Biso   1.000  C
  C388     1.0000 0.01056  0.52941  0.77526  Biso   1.000  C
  C389     1.0000 0.02941  0.77526  0.51056  Biso   1.000  C
  C390     1.0000 0.96554  0.42562  0.69435  Biso   1.000  C
  C391     1.0000 0.88623  0.44501  0.63204  Biso   1.000  C
  C392     1.0000 0.80565  0.46554  0.57438  Biso   1.000  C
  H375     1.0000 0.84598  0.62309  0.47589  Biso   1.000  H
  N105     1.0000 0.96386  0.72803  0.45326  Biso   1.000  N
  H376     1.0000 0.90430  0.70088  0.49758  Biso   1.000  H
  N106     1.0000 0.77197  0.54670  0.46386  Biso   1.000  N
  H377     1.0000 0.79912  0.50238  0.40430  Biso   1.000  H
  H378     1.0000 0.79908  0.50238  0.40430  Biso   1.000  H
  H379     1.0000 0.03101  0.53688  0.80959  Biso   1.000  H
  H380     1.0000 0.97951  0.55540  0.77288  Biso   1.000  H
  C393     1.0000 0.98940  0.47059  0.77526  Biso   1.000  C
  H381     1.0000 0.05540  0.77288  0.47951  Biso   1.000  H
  H382     1.0000 0.03688  0.80959  0.53101  Biso   1.000  H
  C394     1.0000 0.97059  0.77526  0.48940  Biso   1.000  C
  N107     1.0000 0.95326  0.46386  0.72803  Biso   1.000  N
  H383     1.0000 0.99762  0.40430  0.70088  Biso   1.000  H
  H384     1.0000 0.99758  0.40430  0.70088  Biso   1.000  H
  H385     1.0000 0.87691  0.47589  0.65398  Biso   1.000  H
  N108     1.0000 0.77197  0.45326  0.53614  Biso   1.000  N
  H386     1.0000 0.79912  0.49758  0.59570  Biso   1.000  H
  H387     1.0000 0.79908  0.49758  0.59570  Biso   1.000  H
  C395     1.0000 0.72474  0.51056  0.47059  Biso   1.000  C
  H388     1.0000 0.02049  0.44460  0.77288  Biso   1.000  H
  H389     1.0000 0.96899  0.46308  0.80959  Biso   1.000  H
  H390     1.0000 0.94460  0.77288  0.52049  Biso   1.000  H
  H391     1.0000 0.96312  0.80959  0.46899  Biso   1.000  H
  H392     1.0000 0.96308  0.80959  0.46899  Biso   1.000  H
  C396     1.0000 0.72474  0.48940  0.52941  Biso   1.000  C
  H393     1.0000 0.72708  0.47951  0.44460  Biso   1.000  H
  H394     1.0000 0.69041  0.53101  0.46308  Biso   1.000  H
  H395     1.0000 0.72708  0.52049  0.55540  Biso   1.000  H
  H396     1.0000 0.69041  0.46899  0.53688  Biso   1.000  H
  C397     1.0000 0.13204  0.11377  0.05499  Biso   1.000  C
  C398     1.0000 0.14576  0.06801  0.08662  Biso   1.000  C
  H397     1.0000 0.15402  0.12309  0.02411  Biso   1.000  H
  C399     1.0000 0.08662  0.14576  0.06801  Biso   1.000  C
  H398     1.0000 0.15398  0.12309  0.02411  Biso   1.000  H
  C400     1.0000 0.11377  0.05499  0.13204  Biso   1.000  C
  C401     1.0000 0.19435  0.03446  0.07438  Biso   1.000  C
  C402     1.0000 0.13204  0.11377  0.05495  Biso   1.000  C
  C403     1.0000 0.11377  0.05499  0.13200  Biso   1.000  C
  C404     1.0000 0.11377  0.05495  0.13204  Biso   1.000  C
  C405     1.0000 0.19435  0.03442  0.07438  Biso   1.000  C
  C406     1.0000 0.11377  0.05495  0.13200  Biso   1.000  C
  C407     1.0000 0.13200  0.11377  0.05499  Biso   1.000  C
  C408     1.0000 0.13200  0.11377  0.05495  Biso   1.000  C
  C409     1.0000 0.07438  0.19435  0.03446  Biso   1.000  C
  C410     1.0000 0.05499  0.13204  0.11377  Biso   1.000  C
  C411     1.0000 0.07438  0.19435  0.03442  Biso   1.000  C
  C412     1.0000 0.05499  0.13200  0.11377  Biso   1.000  C
  C413     1.0000 0.05495  0.13204  0.11377  Biso   1.000  C
  C414     1.0000 0.05495  0.13200  0.11377  Biso   1.000  C
  C415     1.0000 0.06801  0.08662  0.14576  Biso   1.000  C
  H399     1.0000 0.12309  0.02411  0.15402  Biso   1.000  H
  H400     1.0000 0.12309  0.02411  0.15398  Biso   1.000  H
  N109     1.0000 0.22803  0.04674  0.03614  Biso   1.000  N
  H401     1.0000 0.20088  0.00238  0.09570  Biso   1.000  H
  N110     1.0000 0.22803  0.04674  0.03610  Biso   1.000  N
  N111     1.0000 0.22803  0.04670  0.03614  Biso   1.000  N
  N112     1.0000 0.22803  0.04670  0.03610  Biso   1.000  N
  N113     1.0000 0.03614  0.22803  0.04674  Biso   1.000  N
  H402     1.0000 0.09570  0.20088  0.00238  Biso   1.000  H
  N114     1.0000 0.03614  0.22803  0.04670  Biso   1.000  N
  N115     1.0000 0.03610  0.22803  0.04674  Biso   1.000  N
  N116     1.0000 0.03610  0.22803  0.04670  Biso   1.000  N
  H403     1.0000 0.02411  0.15402  0.12309  Biso   1.000  H
  H404     1.0000 0.02411  0.15398  0.12309  Biso   1.000  H
  C416     1.0000 0.03446  0.07438  0.19435  Biso   1.000  C
  C417     1.0000 0.03442  0.07438  0.19435  Biso   1.000  C
  C418     1.0000 0.27526  0.01060  0.02941  Biso   1.000  C
  C419     1.0000 0.27526  0.01056  0.02941  Biso   1.000  C
  C420     1.0000 0.02941  0.27526  0.01060  Biso   1.000  C
  C421     1.0000 0.02941  0.27526  0.01056  Biso   1.000  C
  N117     1.0000 0.04674  0.03614  0.22803  Biso   1.000  N
  H405     1.0000 0.00238  0.09570  0.20088  Biso   1.000  H
  N118     1.0000 0.04674  0.03610  0.22803  Biso   1.000  N
  N119     1.0000 0.04670  0.03614  0.22803  Biso   1.000  N
  N120     1.0000 0.04670  0.03610  0.22803  Biso   1.000  N
  H406     1.0000 0.30959  0.03101  0.03688  Biso   1.000  H
  C422     1.0000 0.27526  0.98940  0.97059  Biso   1.000  C
  H407     1.0000 0.27292  0.97951  0.05540  Biso   1.000  H
  H408     1.0000 0.27288  0.97951  0.05540  Biso   1.000  H
  H409     1.0000 0.03688  0.30959  0.03101  Biso   1.000  H
  C423     1.0000 0.97059  0.27526  0.98940  Biso   1.000  C
  H410     1.0000 0.05540  0.27292  0.97951  Biso   1.000  H
  H411     1.0000 0.05540  0.27288  0.97951  Biso   1.000  H
  C424     1.0000 0.01060  0.02941  0.27526  Biso   1.000  C
  C425     1.0000 0.01056  0.02941  0.27526  Biso   1.000  C
  N121     1.0000 0.22803  0.95326  0.96386  Biso   1.000  N
  H412     1.0000 0.30959  0.96899  0.96312  Biso   1.000  H
  H413     1.0000 0.30959  0.96899  0.96308  Biso   1.000  H
  H414     1.0000 0.27292  0.02049  0.94460  Biso   1.000  H
  H415     1.0000 0.27288  0.02049  0.94460  Biso   1.000  H
  N122     1.0000 0.96386  0.22803  0.95326  Biso   1.000  N
  H416     1.0000 0.96312  0.30959  0.96899  Biso   1.000  H
  H417     1.0000 0.96308  0.30959  0.96899  Biso   1.000  H
  H418     1.0000 0.94460  0.27292  0.02049  Biso   1.000  H
  H419     1.0000 0.94460  0.27288  0.02049  Biso   1.000  H
  H420     1.0000 0.03101  0.03688  0.30959  Biso   1.000  H
  C426     1.0000 0.98940  0.97059  0.27526  Biso   1.000  C
  H421     1.0000 0.97951  0.05540  0.27292  Biso   1.000  H
  H422     1.0000 0.97951  0.05540  0.27288  Biso   1.000  H
  C427     1.0000 0.19435  0.96554  0.92562  Biso   1.000  C
  C428     1.0000 0.92562  0.19435  0.96554  Biso   1.000  C
  N123     1.0000 0.95326  0.96386  0.22803  Biso   1.000  N
  H423     1.0000 0.96899  0.96312  0.30959  Biso   1.000  H
  H424     1.0000 0.96899  0.96308  0.30959  Biso   1.000  H
  H425     1.0000 0.02049  0.94460  0.27292  Biso   1.000  H
  H426     1.0000 0.02049  0.94460  0.27288  Biso   1.000  H
  C429     1.0000 0.14576  0.93199  0.91338  Biso   1.000  C
  H427     1.0000 0.20088  0.99762  0.90430  Biso   1.000  H
  C430     1.0000 0.14576  0.93199  0.91334  Biso   1.000  C
  H428     1.0000 0.20088  0.99758  0.90430  Biso   1.000  H
  C431     1.0000 0.91338  0.14576  0.93199  Biso   1.000  C
  H429     1.0000 0.90430  0.20088  0.99762  Biso   1.000  H
  H430     1.0000 0.90430  0.20088  0.99758  Biso   1.000  H
  C432     1.0000 0.91334  0.14576  0.93199  Biso   1.000  C
  C433     1.0000 0.96554  0.92562  0.19435  Biso   1.000  C
  C434     1.0000 0.11377  0.94501  0.86796  Biso   1.000  C
  C435     1.0000 0.13204  0.88623  0.94501  Biso   1.000  C
  C436     1.0000 0.13200  0.88623  0.94501  Biso   1.000  C
  C437     1.0000 0.86796  0.11377  0.94501  Biso   1.000  C
  C438     1.0000 0.94501  0.13204  0.88623  Biso   1.000  C
  C439     1.0000 0.94501  0.13200  0.88623  Biso   1.000  C
  C440     1.0000 0.93199  0.91338  0.14576  Biso   1.000  C
  H431     1.0000 0.99762  0.90430  0.20088  Biso   1.000  H
  C441     1.0000 0.93199  0.91334  0.14576  Biso   1.000  C
  H432     1.0000 0.99758  0.90430  0.20088  Biso   1.000  H
  H433     1.0000 0.12309  0.97589  0.84598  Biso   1.000  H
  C442     1.0000 0.06801  0.91338  0.85424  Biso   1.000  C
  C443     1.0000 0.06801  0.91334  0.85424  Biso   1.000  C
  H434     1.0000 0.15402  0.87691  0.97589  Biso   1.000  H
  C444     1.0000 0.08662  0.85424  0.93199  Biso   1.000  C
  H435     1.0000 0.15398  0.87691  0.97589  Biso   1.000  H
  H436     1.0000 0.84598  0.12309  0.97589  Biso   1.000  H
  C445     1.0000 0.85424  0.06801  0.91338  Biso   1.000  C
  C446     1.0000 0.85424  0.06801  0.91334  Biso   1.000  C
  H437     1.0000 0.97589  0.15402  0.87691  Biso   1.000  H
  C447     1.0000 0.93199  0.08662  0.85424  Biso   1.000  C
  H438     1.0000 0.97589  0.15398  0.87691  Biso   1.000  H
  C448     1.0000 0.94501  0.86796  0.11377  Biso   1.000  C
  C449     1.0000 0.88623  0.94501  0.13204  Biso   1.000  C
  C450     1.0000 0.88623  0.94501  0.13200  Biso   1.000  C
  C451     1.0000 0.05499  0.86796  0.88623  Biso   1.000  C
  C452     1.0000 0.03446  0.92562  0.80565  Biso   1.000  C
  C453     1.0000 0.05495  0.86796  0.88623  Biso   1.000  C
  C454     1.0000 0.03442  0.92562  0.80565  Biso   1.000  C
  C455     1.0000 0.07438  0.80565  0.96554  Biso   1.000  C
  C456     1.0000 0.88623  0.05499  0.86796  Biso   1.000  C
  C457     1.0000 0.80565  0.03446  0.92562  Biso   1.000  C
  C458     1.0000 0.88623  0.05495  0.86796  Biso   1.000  C
  C459     1.0000 0.80565  0.03442  0.92562  Biso   1.000  C
  C460     1.0000 0.96554  0.07438  0.80565  Biso   1.000  C
  H439     1.0000 0.97589  0.84598  0.12309  Biso   1.000  H
  C461     1.0000 0.91338  0.85424  0.06801  Biso   1.000  C
  C462     1.0000 0.91334  0.85424  0.06801  Biso   1.000  C
  H440     1.0000 0.87691  0.97589  0.15402  Biso   1.000  H
  C463     1.0000 0.85424  0.93199  0.08662  Biso   1.000  C
  H441     1.0000 0.87691  0.97589  0.15398  Biso   1.000  H
  H442     1.0000 0.02411  0.84598  0.87691  Biso   1.000  H
  N124     1.0000 0.04674  0.96386  0.77197  Biso   1.000  N
  H443     1.0000 0.00238  0.90430  0.79912  Biso   1.000  H
  H444     1.0000 0.00238  0.90430  0.79908  Biso   1.000  H
  N125     1.0000 0.04670  0.96386  0.77197  Biso   1.000  N
  N126     1.0000 0.03614  0.77197  0.95326  Biso   1.000  N
  H445     1.0000 0.09570  0.79912  0.99762  Biso   1.000  H
  H446     1.0000 0.09570  0.79912  0.99758  Biso   1.000  H
  H447     1.0000 0.09570  0.79908  0.99762  Biso   1.000  H
  H448     1.0000 0.09570  0.79908  0.99758  Biso   1.000  H
  N127     1.0000 0.03610  0.77197  0.95326  Biso   1.000  N
  H449     1.0000 0.87691  0.02411  0.84598  Biso   1.000  H
  N128     1.0000 0.77197  0.04674  0.96386  Biso   1.000  N
  H450     1.0000 0.79912  0.00238  0.90430  Biso   1.000  H
  N129     1.0000 0.77197  0.04670  0.96386  Biso   1.000  N
  H451     1.0000 0.79908  0.00238  0.90430  Biso   1.000  H
  N130     1.0000 0.95326  0.03614  0.77197  Biso   1.000  N
  H452     1.0000 0.99762  0.09570  0.79912  Biso   1.000  H
  H453     1.0000 0.99762  0.09570  0.79908  Biso   1.000  H
  N131     1.0000 0.95326  0.03610  0.77197  Biso   1.000  N
  H454     1.0000 0.99758  0.09570  0.79912  Biso   1.000  H
  H455     1.0000 0.99758  0.09570  0.79908  Biso   1.000  H
  C464     1.0000 0.86796  0.88623  0.05499  Biso   1.000  C
  C465     1.0000 0.92562  0.80565  0.03446  Biso   1.000  C
  C466     1.0000 0.86796  0.88623  0.05495  Biso   1.000  C
  C467     1.0000 0.92562  0.80565  0.03442  Biso   1.000  C
  C468     1.0000 0.80565  0.96554  0.07438  Biso   1.000  C
  C469     1.0000 0.01060  0.97059  0.72474  Biso   1.000  C
  C470     1.0000 0.01056  0.97059  0.72474  Biso   1.000  C
  C471     1.0000 0.02941  0.72474  0.98940  Biso   1.000  C
  C472     1.0000 0.72474  0.01060  0.97059  Biso   1.000  C
  C473     1.0000 0.72474  0.01056  0.97059  Biso   1.000  C
  C474     1.0000 0.98940  0.02941  0.72474  Biso   1.000  C
  H456     1.0000 0.84598  0.87691  0.02411  Biso   1.000  H
  N132     1.0000 0.96386  0.77197  0.04674  Biso   1.000  N
  H457     1.0000 0.90430  0.79912  0.00238  Biso   1.000  H
  N133     1.0000 0.96386  0.77197  0.04670  Biso   1.000  N
  H458     1.0000 0.90430  0.79908  0.00238  Biso   1.000  H
  N134     1.0000 0.77197  0.95326  0.03614  Biso   1.000  N
  H459     1.0000 0.79912  0.99762  0.09570  Biso   1.000  H
  N135     1.0000 0.77197  0.95326  0.03610  Biso   1.000  N
  H460     1.0000 0.79912  0.99758  0.09570  Biso   1.000  H
  H461     1.0000 0.79908  0.99762  0.09570  Biso   1.000  H
  H462     1.0000 0.79908  0.99758  0.09570  Biso   1.000  H
  H463     1.0000 0.97951  0.94460  0.72708  Biso   1.000  H
  H464     1.0000 0.03101  0.96312  0.69041  Biso   1.000  H
  H465     1.0000 0.03101  0.96308  0.69041  Biso   1.000  H
  C475     1.0000 0.97059  0.72474  0.01060  Biso   1.000  C
  C476     1.0000 0.97059  0.72474  0.01056  Biso   1.000  C
  H466     1.0000 0.03688  0.69041  0.96899  Biso   1.000  H
  H467     1.0000 0.05540  0.72708  0.02049  Biso   1.000  H
  C477     1.0000 0.72474  0.98940  0.02941  Biso   1.000  C
  H468     1.0000 0.72708  0.97951  0.94460  Biso   1.000  H
  H469     1.0000 0.69041  0.03101  0.96312  Biso   1.000  H
  H470     1.0000 0.69041  0.03101  0.96308  Biso   1.000  H
  H471     1.0000 0.96899  0.03688  0.69041  Biso   1.000  H
  H472     1.0000 0.02049  0.05540  0.72708  Biso   1.000  H
  H473     1.0000 0.94460  0.72708  0.97951  Biso   1.000  H
  H474     1.0000 0.96312  0.69041  0.03101  Biso   1.000  H
  H475     1.0000 0.96308  0.69041  0.03101  Biso   1.000  H
  H476     1.0000 0.69041  0.96899  0.03688  Biso   1.000  H
  H477     1.0000 0.72708  0.02049  0.05540  Biso   1.000  H
  C478     1.0000 0.13204  0.11377  0.05499  Biso   1.000  C
  C479     1.0000 0.14576  0.06801  0.08662  Biso   1.000  C
  H478     1.0000 0.15402  0.12309  0.02411  Biso   1.000  H
  C480     1.0000 0.08662  0.14576  0.06801  Biso   1.000  C
  H479     1.0000 0.15398  0.12309  0.02411  Biso   1.000  H
  C481     1.0000 0.19435  0.03446  0.07438  Biso   1.000  C
  C482     1.0000 0.13204  0.11377  0.05495  Biso   1.000  C
  C483     1.0000 0.19435  0.03442  0.07438  Biso   1.000  C
  C484     1.0000 0.11377  0.05499  0.13204  Biso   1.000  C
  C485     1.0000 0.11377  0.05499  0.13200  Biso   1.000  C
  C486     1.0000 0.13200  0.11377  0.05499  Biso   1.000  C
  C487     1.0000 0.11377  0.05495  0.13204  Biso   1.000  C
  C488     1.0000 0.13200  0.11377  0.05495  Biso   1.000  C
  C489     1.0000 0.11377  0.05495  0.13200  Biso   1.000  C
  C490     1.0000 0.05499  0.13204  0.11377  Biso   1.000  C
  C491     1.0000 0.07438  0.19435  0.03446  Biso   1.000  C
  C492     1.0000 0.07438  0.19435  0.03442  Biso   1.000  C
  C493     1.0000 0.05499  0.13200  0.11377  Biso   1.000  C
  C494     1.0000 0.05495  0.13204  0.11377  Biso   1.000  C
  C495     1.0000 0.05495  0.13200  0.11377  Biso   1.000  C
  H480     1.0000 0.20088  0.00238  0.09570  Biso   1.000  H
  N136     1.0000 0.22803  0.04674  0.03614  Biso   1.000  N
  N137     1.0000 0.22803  0.04674  0.03610  Biso   1.000  N
  N138     1.0000 0.22803  0.04670  0.03614  Biso   1.000  N
  N139     1.0000 0.22803  0.04670  0.03610  Biso   1.000  N
  C496     1.0000 0.06801  0.08662  0.14576  Biso   1.000  C
  H481     1.0000 0.12309  0.02411  0.15402  Biso   1.000  H
  H482     1.0000 0.12309  0.02411  0.15398  Biso   1.000  H
  H483     1.0000 0.02411  0.15402  0.12309  Biso   1.000  H
  H484     1.0000 0.02411  0.15398  0.12309  Biso   1.000  H
  H485     1.0000 0.09570  0.20088  0.00238  Biso   1.000  H
  N140     1.0000 0.03614  0.22803  0.04674  Biso   1.000  N
  N141     1.0000 0.03614  0.22803  0.04670  Biso   1.000  N
  N142     1.0000 0.03610  0.22803  0.04674  Biso   1.000  N
  N143     1.0000 0.03610  0.22803  0.04670  Biso   1.000  N
  C497     1.0000 0.27526  0.01060  0.02941  Biso   1.000  C
  C498     1.0000 0.27526  0.01056  0.02941  Biso   1.000  C
  C499     1.0000 0.03446  0.07438  0.19435  Biso   1.000  C
  C500     1.0000 0.03442  0.07438  0.19435  Biso   1.000  C
  C501     1.0000 0.02941  0.27526  0.01060  Biso   1.000  C
  C502     1.0000 0.02941  0.27526  0.01056  Biso   1.000  C
  H486     1.0000 0.30959  0.03101  0.03688  Biso   1.000  H
  C503     1.0000 0.27526  0.98940  0.97059  Biso   1.000  C
  H487     1.0000 0.27292  0.97951  0.05540  Biso   1.000  H
  H488     1.0000 0.27288  0.97951  0.05540  Biso   1.000  H
  N144     1.0000 0.04674  0.03614  0.22803  Biso   1.000  N
  H489     1.0000 0.00238  0.09570  0.20088  Biso   1.000  H
  N145     1.0000 0.04674  0.03610  0.22803  Biso   1.000  N
  N146     1.0000 0.04670  0.03614  0.22803  Biso   1.000  N
  N147     1.0000 0.04670  0.03610  0.22803  Biso   1.000  N
  H490     1.0000 0.03688  0.30959  0.03101  Biso   1.000  H
  C504     1.0000 0.97059  0.27526  0.98940  Biso   1.000  C
  H491     1.0000 0.05540  0.27292  0.97951  Biso   1.000  H
  H492     1.0000 0.05540  0.27288  0.97951  Biso   1.000  H
  N148     1.0000 0.22803  0.95326  0.96386  Biso   1.000  N
  H493     1.0000 0.30959  0.96899  0.96312  Biso   1.000  H
  H494     1.0000 0.30959  0.96899  0.96308  Biso   1.000  H
  H495     1.0000 0.27292  0.02049  0.94460  Biso   1.000  H
  H496     1.0000 0.27288  0.02049  0.94460  Biso   1.000  H
  C505     1.0000 0.01060  0.02941  0.27526  Biso   1.000  C
  C506     1.0000 0.01056  0.02941  0.27526  Biso   1.000  C
  N149     1.0000 0.96386  0.22803  0.95326  Biso   1.000  N
  H497     1.0000 0.96312  0.30959  0.96899  Biso   1.000  H
  H498     1.0000 0.96308  0.30959  0.96899  Biso   1.000  H
  H499     1.0000 0.94460  0.27292  0.02049  Biso   1.000  H
  H500     1.0000 0.94460  0.27288  0.02049  Biso   1.000  H
  C507     1.0000 0.19435  0.96554  0.92562  Biso   1.000  C
  H501     1.0000 0.03101  0.03688  0.30959  Biso   1.000  H
  C508     1.0000 0.98940  0.97059  0.27526  Biso   1.000  C
  H502     1.0000 0.97951  0.05540  0.27292  Biso   1.000  H
  H503     1.0000 0.97951  0.05540  0.27288  Biso   1.000  H
  C509     1.0000 0.92562  0.19435  0.96554  Biso   1.000  C
  C510     1.0000 0.14576  0.93199  0.91338  Biso   1.000  C
  H504     1.0000 0.20088  0.99762  0.90430  Biso   1.000  H
  C511     1.0000 0.14576  0.93199  0.91334  Biso   1.000  C
  H505     1.0000 0.20088  0.99758  0.90430  Biso   1.000  H
  N150     1.0000 0.95326  0.96386  0.22803  Biso   1.000  N
  H506     1.0000 0.96899  0.96312  0.30959  Biso   1.000  H
  H507     1.0000 0.96899  0.96308  0.30959  Biso   1.000  H
  H508     1.0000 0.02049  0.94460  0.27292  Biso   1.000  H
  H509     1.0000 0.02049  0.94460  0.27288  Biso   1.000  H
  C512     1.0000 0.91338  0.14576  0.93199  Biso   1.000  C
  H510     1.0000 0.90430  0.20088  0.99762  Biso   1.000  H
  H511     1.0000 0.90430  0.20088  0.99758  Biso   1.000  H
  C513     1.0000 0.91334  0.14576  0.93199  Biso   1.000  C
  C514     1.0000 0.11377  0.94501  0.86796  Biso   1.000  C
  C515     1.0000 0.13204  0.88623  0.94501  Biso   1.000  C
  C516     1.0000 0.13200  0.88623  0.94501  Biso   1.000  C
  C517     1.0000 0.96554  0.92562  0.19435  Biso   1.000  C
  C518     1.0000 0.86796  0.11377  0.94501  Biso   1.000  C
  C519     1.0000 0.94501  0.13204  0.88623  Biso   1.000  C
  C520     1.0000 0.94501  0.13200  0.88623  Biso   1.000  C
  H512     1.0000 0.12309  0.97589  0.84598  Biso   1.000  H
  C521     1.0000 0.06801  0.91338  0.85424  Biso   1.000  C
  C522     1.0000 0.06801  0.91334  0.85424  Biso   1.000  C
  H513     1.0000 0.15402  0.87691  0.97589  Biso   1.000  H
  C523     1.0000 0.08662  0.85424  0.93199  Biso   1.000  C
  H514     1.0000 0.15398  0.87691  0.97589  Biso   1.000  H
  C524     1.0000 0.93199  0.91338  0.14576  Biso   1.000  C
  H515     1.0000 0.99762  0.90430  0.20088  Biso   1.000  H
  C525     1.0000 0.93199  0.91334  0.14576  Biso   1.000  C
  H516     1.0000 0.99758  0.90430  0.20088  Biso   1.000  H
  H517     1.0000 0.84598  0.12309  0.97589  Biso   1.000  H
  C526     1.0000 0.85424  0.06801  0.91338  Biso   1.000  C
  C527     1.0000 0.85424  0.06801  0.91334  Biso   1.000  C
  H518     1.0000 0.97589  0.15402  0.87691  Biso   1.000  H
  C528     1.0000 0.93199  0.08662  0.85424  Biso   1.000  C
  H519     1.0000 0.97589  0.15398  0.87691  Biso   1.000  H
  C529     1.0000 0.05499  0.86796  0.88623  Biso   1.000  C
  C530     1.0000 0.03446  0.92562  0.80565  Biso   1.000  C
  C531     1.0000 0.05495  0.86796  0.88623  Biso   1.000  C
  C532     1.0000 0.03442  0.92562  0.80565  Biso   1.000  C
  C533     1.0000 0.07438  0.80565  0.96554  Biso   1.000  C
  C534     1.0000 0.94501  0.86796  0.11377  Biso   1.000  C
  C535     1.0000 0.88623  0.94501  0.13204  Biso   1.000  C
  C536     1.0000 0.88623  0.94501  0.13200  Biso   1.000  C
  C537     1.0000 0.88623  0.05499  0.86796  Biso   1.000  C
  C538     1.0000 0.80565  0.03446  0.92562  Biso   1.000  C
  C539     1.0000 0.88623  0.05495  0.86796  Biso   1.000  C
  C540     1.0000 0.80565  0.03442  0.92562  Biso   1.000  C
  C541     1.0000 0.96554  0.07438  0.80565  Biso   1.000  C
  H520     1.0000 0.02411  0.84598  0.87691  Biso   1.000  H
  N151     1.0000 0.04674  0.96386  0.77197  Biso   1.000  N
  H521     1.0000 0.00238  0.90430  0.79912  Biso   1.000  H
  H522     1.0000 0.00238  0.90430  0.79908  Biso   1.000  H
  N152     1.0000 0.04670  0.96386  0.77197  Biso   1.000  N
  N153     1.0000 0.03614  0.77197  0.95326  Biso   1.000  N
  H523     1.0000 0.09570  0.79912  0.99762  Biso   1.000  H
  H524     1.0000 0.09570  0.79912  0.99758  Biso   1.000  H
  H525     1.0000 0.09570  0.79908  0.99762  Biso   1.000  H
  H526     1.0000 0.09570  0.79908  0.99758  Biso   1.000  H
  N154     1.0000 0.03610  0.77197  0.95326  Biso   1.000  N
  H527     1.0000 0.97589  0.84598  0.12309  Biso   1.000  H
  C542     1.0000 0.91338  0.85424  0.06801  Biso   1.000  C
  C543     1.0000 0.91334  0.85424  0.06801  Biso   1.000  C
  H528     1.0000 0.87691  0.97589  0.15402  Biso   1.000  H
  C544     1.0000 0.85424  0.93199  0.08662  Biso   1.000  C
  H529     1.0000 0.87691  0.97589  0.15398  Biso   1.000  H
  H530     1.0000 0.87691  0.02411  0.84598  Biso   1.000  H
  N155     1.0000 0.77197  0.04674  0.96386  Biso   1.000  N
  H531     1.0000 0.79912  0.00238  0.90430  Biso   1.000  H
  N156     1.0000 0.77197  0.04670  0.96386  Biso   1.000  N
  H532     1.0000 0.79908  0.00238  0.90430  Biso   1.000  H
  N157     1.0000 0.95326  0.03614  0.77197  Biso   1.000  N
  H533     1.0000 0.99762  0.09570  0.79912  Biso   1.000  H
  H534     1.0000 0.99762  0.09570  0.79908  Biso   1.000  H
  N158     1.0000 0.95326  0.03610  0.77197  Biso   1.000  N
  H535     1.0000 0.99758  0.09570  0.79912  Biso   1.000  H
  H536     1.0000 0.99758  0.09570  0.79908  Biso   1.000  H
  C545     1.0000 0.01060  0.97059  0.72474  Biso   1.000  C
  C546     1.0000 0.01056  0.97059  0.72474  Biso   1.000  C
  C547     1.0000 0.02941  0.72474  0.98940  Biso   1.000  C
  C548     1.0000 0.86796  0.88623  0.05499  Biso   1.000  C
  C549     1.0000 0.92562  0.80565  0.03446  Biso   1.000  C
  C550     1.0000 0.86796  0.88623  0.05495  Biso   1.000  C
  C551     1.0000 0.92562  0.80565  0.03442  Biso   1.000  C
  C552     1.0000 0.80565  0.96554  0.07438  Biso   1.000  C
  C553     1.0000 0.72474  0.01060  0.97059  Biso   1.000  C
  C554     1.0000 0.72474  0.01056  0.97059  Biso   1.000  C
  C555     1.0000 0.98940  0.02941  0.72474  Biso   1.000  C
  H537     1.0000 0.97951  0.94460  0.72708  Biso   1.000  H
  H538     1.0000 0.03101  0.96312  0.69041  Biso   1.000  H
  H539     1.0000 0.03101  0.96308  0.69041  Biso   1.000  H
  C556     1.0000 0.97059  0.72474  0.01060  Biso   1.000  C
  C557     1.0000 0.97059  0.72474  0.01056  Biso   1.000  C
  H540     1.0000 0.03688  0.69041  0.96899  Biso   1.000  H
  H541     1.0000 0.05540  0.72708  0.02049  Biso   1.000  H
  H542     1.0000 0.84598  0.87691  0.02411  Biso   1.000  H
  N159     1.0000 0.96386  0.77197  0.04674  Biso   1.000  N
  H543     1.0000 0.90430  0.79912  0.00238  Biso   1.000  H
  N160     1.0000 0.96386  0.77197  0.04670  Biso   1.000  N
  H544     1.0000 0.90430  0.79908  0.00238  Biso   1.000  H
  N161     1.0000 0.77197  0.95326  0.03614  Biso   1.000  N
  H545     1.0000 0.79912  0.99762  0.09570  Biso   1.000  H
  N162     1.0000 0.77197  0.95326  0.03610  Biso   1.000  N
  H546     1.0000 0.79912  0.99758  0.09570  Biso   1.000  H
  H547     1.0000 0.79908  0.99762  0.09570  Biso   1.000  H
  H548     1.0000 0.79908  0.99758  0.09570  Biso   1.000  H
  C558     1.0000 0.72474  0.98940  0.02941  Biso   1.000  C
  H549     1.0000 0.72708  0.97951  0.94460  Biso   1.000  H
  H550     1.0000 0.69041  0.03101  0.96312  Biso   1.000  H
  H551     1.0000 0.69041  0.03101  0.96308  Biso   1.000  H
  H552     1.0000 0.96899  0.03688  0.69041  Biso   1.000  H
  H553     1.0000 0.02049  0.05540  0.72708  Biso   1.000  H
  H554     1.0000 0.94460  0.72708  0.97951  Biso   1.000  H
  H555     1.0000 0.96312  0.69041  0.03101  Biso   1.000  H
  H556     1.0000 0.96308  0.69041  0.03101  Biso   1.000  H
  H557     1.0000 0.69041  0.96899  0.03688  Biso   1.000  H
  H558     1.0000 0.72708  0.02049  0.05540  Biso   1.000  H
  C559     1.0000 0.13204  0.11377  0.05499  Biso   1.000  C
  C560     1.0000 0.14576  0.06801  0.08662  Biso   1.000  C
  H559     1.0000 0.15402  0.12309  0.02411  Biso   1.000  H
  C561     1.0000 0.08662  0.14576  0.06801  Biso   1.000  C
  H560     1.0000 0.15398  0.12309  0.02411  Biso   1.000  H
  C562     1.0000 0.19435  0.03446  0.07438  Biso   1.000  C
  C563     1.0000 0.19435  0.03442  0.07438  Biso   1.000  C
  C564     1.0000 0.11377  0.05499  0.13204  Biso   1.000  C
  C565     1.0000 0.13204  0.11377  0.05495  Biso   1.000  C
  C566     1.0000 0.11377  0.05499  0.13200  Biso   1.000  C
  C567     1.0000 0.11377  0.05495  0.13204  Biso   1.000  C
  C568     1.0000 0.11377  0.05495  0.13200  Biso   1.000  C
  C569     1.0000 0.13200  0.11377  0.05499  Biso   1.000  C
  C570     1.0000 0.13200  0.11377  0.05495  Biso   1.000  C
  C571     1.0000 0.07438  0.19435  0.03446  Biso   1.000  C
  C572     1.0000 0.07438  0.19435  0.03442  Biso   1.000  C
  C573     1.0000 0.05499  0.13204  0.11377  Biso   1.000  C
  C574     1.0000 0.05499  0.13200  0.11377  Biso   1.000  C
  C575     1.0000 0.05495  0.13204  0.11377  Biso   1.000  C
  C576     1.0000 0.05495  0.13200  0.11377  Biso   1.000  C
  H561     1.0000 0.20088  0.00238  0.09570  Biso   1.000  H
  N163     1.0000 0.22803  0.04674  0.03614  Biso   1.000  N
  N164     1.0000 0.22803  0.04674  0.03610  Biso   1.000  N
  N165     1.0000 0.22803  0.04670  0.03614  Biso   1.000  N
  N166     1.0000 0.22803  0.04670  0.03610  Biso   1.000  N
  C577     1.0000 0.06801  0.08662  0.14576  Biso   1.000  C
  H562     1.0000 0.12309  0.02411  0.15402  Biso   1.000  H
  H563     1.0000 0.12309  0.02411  0.15398  Biso   1.000  H
  H564     1.0000 0.09570  0.20088  0.00238  Biso   1.000  H
  N167     1.0000 0.03614  0.22803  0.04674  Biso   1.000  N
  N168     1.0000 0.03614  0.22803  0.04670  Biso   1.000  N
  N169     1.0000 0.03610  0.22803  0.04674  Biso   1.000  N
  N170     1.0000 0.03610  0.22803  0.04670  Biso   1.000  N
  H565     1.0000 0.02411  0.15402  0.12309  Biso   1.000  H
  H566     1.0000 0.02411  0.15398  0.12309  Biso   1.000  H
  C578     1.0000 0.27526  0.01060  0.02941  Biso   1.000  C
  C579     1.0000 0.27526  0.01056  0.02941  Biso   1.000  C
  C580     1.0000 0.03446  0.07438  0.19435  Biso   1.000  C
  C581     1.0000 0.03442  0.07438  0.19435  Biso   1.000  C
  C582     1.0000 0.02941  0.27526  0.01060  Biso   1.000  C
  C583     1.0000 0.02941  0.27526  0.01056  Biso   1.000  C
  H567     1.0000 0.30959  0.03101  0.03688  Biso   1.000  H
  C584     1.0000 0.27526  0.98940  0.97059  Biso   1.000  C
  H568     1.0000 0.27292  0.97951  0.05540  Biso   1.000  H
  H569     1.0000 0.27288  0.97951  0.05540  Biso   1.000  H
  H570     1.0000 0.00238  0.09570  0.20088  Biso   1.000  H
  N171     1.0000 0.04674  0.03614  0.22803  Biso   1.000  N
  N172     1.0000 0.04674  0.03610  0.22803  Biso   1.000  N
  N173     1.0000 0.04670  0.03614  0.22803  Biso   1.000  N
  N174     1.0000 0.04670  0.03610  0.22803  Biso   1.000  N
  H571     1.0000 0.03688  0.30959  0.03101  Biso   1.000  H
  C585     1.0000 0.97059  0.27526  0.98940  Biso   1.000  C
  H572     1.0000 0.05540  0.27292  0.97951  Biso   1.000  H
  H573     1.0000 0.05540  0.27288  0.97951  Biso   1.000  H
  N175     1.0000 0.22803  0.95326  0.96386  Biso   1.000  N
  H574     1.0000 0.30959  0.96899  0.96312  Biso   1.000  H
  H575     1.0000 0.30959  0.96899  0.96308  Biso   1.000  H
  H576     1.0000 0.27292  0.02049  0.94460  Biso   1.000  H
  H577     1.0000 0.27288  0.02049  0.94460  Biso   1.000  H
  C586     1.0000 0.01060  0.02941  0.27526  Biso   1.000  C
  C587     1.0000 0.01056  0.02941  0.27526  Biso   1.000  C
  N176     1.0000 0.96386  0.22803  0.95326  Biso   1.000  N
  H578     1.0000 0.96312  0.30959  0.96899  Biso   1.000  H
  H579     1.0000 0.96308  0.30959  0.96899  Biso   1.000  H
  H580     1.0000 0.94460  0.27292  0.02049  Biso   1.000  H
  H581     1.0000 0.94460  0.27288  0.02049  Biso   1.000  H
  C588     1.0000 0.19435  0.96554  0.92562  Biso   1.000  C
  H582     1.0000 0.03101  0.03688  0.30959  Biso   1.000  H
  C589     1.0000 0.98940  0.97059  0.27526  Biso   1.000  C
  H583     1.0000 0.97951  0.05540  0.27292  Biso   1.000  H
  H584     1.0000 0.97951  0.05540  0.27288  Biso   1.000  H
  C590     1.0000 0.92562  0.19435  0.96554  Biso   1.000  C
  C591     1.0000 0.14576  0.93199  0.91338  Biso   1.000  C
  H585     1.0000 0.20088  0.99762  0.90430  Biso   1.000  H
  C592     1.0000 0.14576  0.93199  0.91334  Biso   1.000  C
  H586     1.0000 0.20088  0.99758  0.90430  Biso   1.000  H
  N177     1.0000 0.95326  0.96386  0.22803  Biso   1.000  N
  H587     1.0000 0.96899  0.96312  0.30959  Biso   1.000  H
  H588     1.0000 0.96899  0.96308  0.30959  Biso   1.000  H
  H589     1.0000 0.02049  0.94460  0.27292  Biso   1.000  H
  H590     1.0000 0.02049  0.94460  0.27288  Biso   1.000  H
  C593     1.0000 0.91338  0.14576  0.93199  Biso   1.000  C
  H591     1.0000 0.90430  0.20088  0.99762  Biso   1.000  H
  H592     1.0000 0.90430  0.20088  0.99758  Biso   1.000  H
  C594     1.0000 0.91334  0.14576  0.93199  Biso   1.000  C
  C595     1.0000 0.11377  0.94501  0.86796  Biso   1.000  C
  C596     1.0000 0.13204  0.88623  0.94501  Biso   1.000  C
  C597     1.0000 0.13200  0.88623  0.94501  Biso   1.000  C
  C598     1.0000 0.96554  0.92562  0.19435  Biso   1.000  C
  C599     1.0000 0.86796  0.11377  0.94501  Biso   1.000  C
  C600     1.0000 0.94501  0.13204  0.88623  Biso   1.000  C
  C601     1.0000 0.94501  0.13200  0.88623  Biso   1.000  C
  H593     1.0000 0.12309  0.97589  0.84598  Biso   1.000  H
  C602     1.0000 0.06801  0.91338  0.85424  Biso   1.000  C
  C603     1.0000 0.06801  0.91334  0.85424  Biso   1.000  C
  H594     1.0000 0.15402  0.87691  0.97589  Biso   1.000  H
  C604     1.0000 0.08662  0.85424  0.93199  Biso   1.000  C
  H595     1.0000 0.15398  0.87691  0.97589  Biso   1.000  H
  C605     1.0000 0.93199  0.91338  0.14576  Biso   1.000  C
  H596     1.0000 0.99762  0.90430  0.20088  Biso   1.000  H
  C606     1.0000 0.93199  0.91334  0.14576  Biso   1.000  C
  H597     1.0000 0.99758  0.90430  0.20088  Biso   1.000  H
  H598     1.0000 0.84598  0.12309  0.97589  Biso   1.000  H
  C607     1.0000 0.85424  0.06801  0.91338  Biso   1.000  C
  C608     1.0000 0.85424  0.06801  0.91334  Biso   1.000  C
  H599     1.0000 0.97589  0.15402  0.87691  Biso   1.000  H
  C609     1.0000 0.93199  0.08662  0.85424  Biso   1.000  C
  H600     1.0000 0.97589  0.15398  0.87691  Biso   1.000  H
  C610     1.0000 0.05499  0.86796  0.88623  Biso   1.000  C
  C611     1.0000 0.03446  0.92562  0.80565  Biso   1.000  C
  C612     1.0000 0.05495  0.86796  0.88623  Biso   1.000  C
  C613     1.0000 0.03442  0.92562  0.80565  Biso   1.000  C
  C614     1.0000 0.07438  0.80565  0.96554  Biso   1.000  C
  C615     1.0000 0.94501  0.86796  0.11377  Biso   1.000  C
  C616     1.0000 0.88623  0.94501  0.13204  Biso   1.000  C
  C617     1.0000 0.88623  0.94501  0.13200  Biso   1.000  C
  C618     1.0000 0.88623  0.05499  0.86796  Biso   1.000  C
  C619     1.0000 0.80565  0.03446  0.92562  Biso   1.000  C
  C620     1.0000 0.88623  0.05495  0.86796  Biso   1.000  C
  C621     1.0000 0.80565  0.03442  0.92562  Biso   1.000  C
  C622     1.0000 0.96554  0.07438  0.80565  Biso   1.000  C
  H601     1.0000 0.02411  0.84598  0.87691  Biso   1.000  H
  N178     1.0000 0.04674  0.96386  0.77197  Biso   1.000  N
  H602     1.0000 0.00238  0.90430  0.79912  Biso   1.000  H
  H603     1.0000 0.00238  0.90430  0.79908  Biso   1.000  H
  N179     1.0000 0.04670  0.96386  0.77197  Biso   1.000  N
  N180     1.0000 0.03614  0.77197  0.95326  Biso   1.000  N
  H604     1.0000 0.09570  0.79912  0.99762  Biso   1.000  H
  H605     1.0000 0.09570  0.79912  0.99758  Biso   1.000  H
  H606     1.0000 0.09570  0.79908  0.99762  Biso   1.000  H
  H607     1.0000 0.09570  0.79908  0.99758  Biso   1.000  H
  N181     1.0000 0.03610  0.77197  0.95326  Biso   1.000  N
  H608     1.0000 0.97589  0.84598  0.12309  Biso   1.000  H
  C623     1.0000 0.91338  0.85424  0.06801  Biso   1.000  C
  C624     1.0000 0.91334  0.85424  0.06801  Biso   1.000  C
  H609     1.0000 0.87691  0.97589  0.15402  Biso   1.000  H
  C625     1.0000 0.85424  0.93199  0.08662  Biso   1.000  C
  H610     1.0000 0.87691  0.97589  0.15398  Biso   1.000  H
  H611     1.0000 0.87691  0.02411  0.84598  Biso   1.000  H
  N182     1.0000 0.77197  0.04674  0.96386  Biso   1.000  N
  H612     1.0000 0.79912  0.00238  0.90430  Biso   1.000  H
  N183     1.0000 0.77197  0.04670  0.96386  Biso   1.000  N
  H613     1.0000 0.79908  0.00238  0.90430  Biso   1.000  H
  N184     1.0000 0.95326  0.03614  0.77197  Biso   1.000  N
  H614     1.0000 0.99762  0.09570  0.79912  Biso   1.000  H
  H615     1.0000 0.99762  0.09570  0.79908  Biso   1.000  H
  N185     1.0000 0.95326  0.03610  0.77197  Biso   1.000  N
  H616     1.0000 0.99758  0.09570  0.79912  Biso   1.000  H
  H617     1.0000 0.99758  0.09570  0.79908  Biso   1.000  H
  C626     1.0000 0.01060  0.97059  0.72474  Biso   1.000  C
  C627     1.0000 0.01056  0.97059  0.72474  Biso   1.000  C
  C628     1.0000 0.02941  0.72474  0.98940  Biso   1.000  C
  C629     1.0000 0.86796  0.88623  0.05499  Biso   1.000  C
  C630     1.0000 0.92562  0.80565  0.03446  Biso   1.000  C
  C631     1.0000 0.86796  0.88623  0.05495  Biso   1.000  C
  C632     1.0000 0.92562  0.80565  0.03442  Biso   1.000  C
  C633     1.0000 0.80565  0.96554  0.07438  Biso   1.000  C
  C634     1.0000 0.72474  0.01060  0.97059  Biso   1.000  C
  C635     1.0000 0.72474  0.01056  0.97059  Biso   1.000  C
  C636     1.0000 0.98940  0.02941  0.72474  Biso   1.000  C
  H618     1.0000 0.97951  0.94460  0.72708  Biso   1.000  H
  H619     1.0000 0.03101  0.96312  0.69041  Biso   1.000  H
  H620     1.0000 0.03101  0.96308  0.69041  Biso   1.000  H
  C637     1.0000 0.97059  0.72474  0.01060  Biso   1.000  C
  C638     1.0000 0.97059  0.72474  0.01056  Biso   1.000  C
  H621     1.0000 0.03688  0.69041  0.96899  Biso   1.000  H
  H622     1.0000 0.05540  0.72708  0.02049  Biso   1.000  H
  H623     1.0000 0.84598  0.87691  0.02411  Biso   1.000  H
  N186     1.0000 0.96386  0.77197  0.04674  Biso   1.000  N
  H624     1.0000 0.90430  0.79912  0.00238  Biso   1.000  H
  N187     1.0000 0.96386  0.77197  0.04670  Biso   1.000  N
  H625     1.0000 0.90430  0.79908  0.00238  Biso   1.000  H
  N188     1.0000 0.77197  0.95326  0.03614  Biso   1.000  N
  H626     1.0000 0.79912  0.99762  0.09570  Biso   1.000  H
  N189     1.0000 0.77197  0.95326  0.03610  Biso   1.000  N
  H627     1.0000 0.79912  0.99758  0.09570  Biso   1.000  H
  H628     1.0000 0.79908  0.99762  0.09570  Biso   1.000  H
  H629     1.0000 0.79908  0.99758  0.09570  Biso   1.000  H
  C639     1.0000 0.72474  0.98940  0.02941  Biso   1.000  C
  H630     1.0000 0.72708  0.97951  0.94460  Biso   1.000  H
  H631     1.0000 0.69041  0.03101  0.96312  Biso   1.000  H
  H632     1.0000 0.69041  0.03101  0.96308  Biso   1.000  H
  H633     1.0000 0.96899  0.03688  0.69041  Biso   1.000  H
  H634     1.0000 0.02049  0.05540  0.72708  Biso   1.000  H
  H635     1.0000 0.94460  0.72708  0.97951  Biso   1.000  H
  H636     1.0000 0.96312  0.69041  0.03101  Biso   1.000  H
  H637     1.0000 0.96308  0.69041  0.03101  Biso   1.000  H
  H638     1.0000 0.69041  0.96899  0.03688  Biso   1.000  H
  H639     1.0000 0.72708  0.02049  0.05540  Biso   1.000  H
  C640     1.0000 0.13204  0.11377  0.05499  Biso   1.000  C
  C641     1.0000 0.14576  0.06801  0.08662  Biso   1.000  C
  H640     1.0000 0.15402  0.12309  0.02411  Biso   1.000  H
  C642     1.0000 0.08662  0.14576  0.06801  Biso   1.000  C
  H641     1.0000 0.15398  0.12309  0.02411  Biso   1.000  H
  C643     1.0000 0.19435  0.03446  0.07438  Biso   1.000  C
  C644     1.0000 0.19435  0.03442  0.07438  Biso   1.000  C
  C645     1.0000 0.11377  0.05499  0.13204  Biso   1.000  C
  C646     1.0000 0.13204  0.11377  0.05495  Biso   1.000  C
  C647     1.0000 0.11377  0.05499  0.13200  Biso   1.000  C
  C648     1.0000 0.11377  0.05495  0.13204  Biso   1.000  C
  C649     1.0000 0.11377  0.05495  0.13200  Biso   1.000  C
  C650     1.0000 0.13200  0.11377  0.05499  Biso   1.000  C
  C651     1.0000 0.13200  0.11377  0.05495  Biso   1.000  C
  C652     1.0000 0.07438  0.19435  0.03446  Biso   1.000  C
  C653     1.0000 0.07438  0.19435  0.03442  Biso   1.000  C
  C654     1.0000 0.05499  0.13204  0.11377  Biso   1.000  C
  C655     1.0000 0.05499  0.13200  0.11377  Biso   1.000  C
  C656     1.0000 0.05495  0.13204  0.11377  Biso   1.000  C
  C657     1.0000 0.05495  0.13200  0.11377  Biso   1.000  C
  H642     1.0000 0.20088  0.00238  0.09570  Biso   1.000  H
  N190     1.0000 0.22803  0.04674  0.03614  Biso   1.000  N
  N191     1.0000 0.22803  0.04674  0.03610  Biso   1.000  N
  N192     1.0000 0.22803  0.04670  0.03614  Biso   1.000  N
  N193     1.0000 0.22803  0.04670  0.03610  Biso   1.000  N
  C658     1.0000 0.06801  0.08662  0.14576  Biso   1.000  C
  H643     1.0000 0.12309  0.02411  0.15402  Biso   1.000  H
  H644     1.0000 0.12309  0.02411  0.15398  Biso   1.000  H
  H645     1.0000 0.09570  0.20088  0.00238  Biso   1.000  H
  N194     1.0000 0.03614  0.22803  0.04674  Biso   1.000  N
  N195     1.0000 0.03614  0.22803  0.04670  Biso   1.000  N
  N196     1.0000 0.03610  0.22803  0.04674  Biso   1.000  N
  N197     1.0000 0.03610  0.22803  0.04670  Biso   1.000  N
  H646     1.0000 0.02411  0.15402  0.12309  Biso   1.000  H
  H647     1.0000 0.02411  0.15398  0.12309  Biso   1.000  H
  C659     1.0000 0.27526  0.01060  0.02941  Biso   1.000  C
  C660     1.0000 0.27526  0.01056  0.02941  Biso   1.000  C
  C661     1.0000 0.03446  0.07438  0.19435  Biso   1.000  C
  C662     1.0000 0.03442  0.07438  0.19435  Biso   1.000  C
  C663     1.0000 0.02941  0.27526  0.01060  Biso   1.000  C
  C664     1.0000 0.02941  0.27526  0.01056  Biso   1.000  C
  H648     1.0000 0.30959  0.03101  0.03688  Biso   1.000  H
  C665     1.0000 0.27526  0.98940  0.97059  Biso   1.000  C
  H649     1.0000 0.27292  0.97951  0.05540  Biso   1.000  H
  H650     1.0000 0.27288  0.97951  0.05540  Biso   1.000  H
  H651     1.0000 0.00238  0.09570  0.20088  Biso   1.000  H
  N198     1.0000 0.04674  0.03614  0.22803  Biso   1.000  N
  N199     1.0000 0.04674  0.03610  0.22803  Biso   1.000  N
  N200     1.0000 0.04670  0.03614  0.22803  Biso   1.000  N
  N201     1.0000 0.04670  0.03610  0.22803  Biso   1.000  N
  H652     1.0000 0.03688  0.30959  0.03101  Biso   1.000  H
  C666     1.0000 0.97059  0.27526  0.98940  Biso   1.000  C
  H653     1.0000 0.05540  0.27292  0.97951  Biso   1.000  H
  H654     1.0000 0.05540  0.27288  0.97951  Biso   1.000  H
  N202     1.0000 0.22803  0.95326  0.96386  Biso   1.000  N
  H655     1.0000 0.30959  0.96899  0.96312  Biso   1.000  H
  H656     1.0000 0.30959  0.96899  0.96308  Biso   1.000  H
  H657     1.0000 0.27292  0.02049  0.94460  Biso   1.000  H
  H658     1.0000 0.27288  0.02049  0.94460  Biso   1.000  H
  C667     1.0000 0.01060  0.02941  0.27526  Biso   1.000  C
  C668     1.0000 0.01056  0.02941  0.27526  Biso   1.000  C
  N203     1.0000 0.96386  0.22803  0.95326  Biso   1.000  N
  H659     1.0000 0.96312  0.30959  0.96899  Biso   1.000  H
  H660     1.0000 0.96308  0.30959  0.96899  Biso   1.000  H
  H661     1.0000 0.94460  0.27292  0.02049  Biso   1.000  H
  H662     1.0000 0.94460  0.27288  0.02049  Biso   1.000  H
  C669     1.0000 0.19435  0.96554  0.92562  Biso   1.000  C
  H663     1.0000 0.03101  0.03688  0.30959  Biso   1.000  H
  C670     1.0000 0.98940  0.97059  0.27526  Biso   1.000  C
  H664     1.0000 0.97951  0.05540  0.27292  Biso   1.000  H
  H665     1.0000 0.97951  0.05540  0.27288  Biso   1.000  H
  C671     1.0000 0.92562  0.19435  0.96554  Biso   1.000  C
  C672     1.0000 0.14576  0.93199  0.91338  Biso   1.000  C
  H666     1.0000 0.20088  0.99762  0.90430  Biso   1.000  H
  C673     1.0000 0.14576  0.93199  0.91334  Biso   1.000  C
  H667     1.0000 0.20088  0.99758  0.90430  Biso   1.000  H
  N204     1.0000 0.95326  0.96386  0.22803  Biso   1.000  N
  H668     1.0000 0.96899  0.96312  0.30959  Biso   1.000  H
  H669     1.0000 0.96899  0.96308  0.30959  Biso   1.000  H
  H670     1.0000 0.02049  0.94460  0.27292  Biso   1.000  H
  H671     1.0000 0.02049  0.94460  0.27288  Biso   1.000  H
  C674     1.0000 0.91338  0.14576  0.93199  Biso   1.000  C
  H672     1.0000 0.90430  0.20088  0.99762  Biso   1.000  H
  H673     1.0000 0.90430  0.20088  0.99758  Biso   1.000  H
  C675     1.0000 0.91334  0.14576  0.93199  Biso   1.000  C
  C676     1.0000 0.11377  0.94501  0.86796  Biso   1.000  C
  C677     1.0000 0.13204  0.88623  0.94501  Biso   1.000  C
  C678     1.0000 0.13200  0.88623  0.94501  Biso   1.000  C
  C679     1.0000 0.96554  0.92562  0.19435  Biso   1.000  C
  C680     1.0000 0.86796  0.11377  0.94501  Biso   1.000  C
  C681     1.0000 0.94501  0.13204  0.88623  Biso   1.000  C
  C682     1.0000 0.94501  0.13200  0.88623  Biso   1.000  C
  H674     1.0000 0.12309  0.97589  0.84598  Biso   1.000  H
  C683     1.0000 0.06801  0.91338  0.85424  Biso   1.000  C
  C684     1.0000 0.06801  0.91334  0.85424  Biso   1.000  C
  H675     1.0000 0.15402  0.87691  0.97589  Biso   1.000  H
  C685     1.0000 0.08662  0.85424  0.93199  Biso   1.000  C
  H676     1.0000 0.15398  0.87691  0.97589  Biso   1.000  H
  C686     1.0000 0.93199  0.91338  0.14576  Biso   1.000  C
  H677     1.0000 0.99762  0.90430  0.20088  Biso   1.000  H
  C687     1.0000 0.93199  0.91334  0.14576  Biso   1.000  C
  H678     1.0000 0.99758  0.90430  0.20088  Biso   1.000  H
  H679     1.0000 0.84598  0.12309  0.97589  Biso   1.000  H
  C688     1.0000 0.85424  0.06801  0.91338  Biso   1.000  C
  C689     1.0000 0.85424  0.06801  0.91334  Biso   1.000  C
  H680     1.0000 0.97589  0.15402  0.87691  Biso   1.000  H
  C690     1.0000 0.93199  0.08662  0.85424  Biso   1.000  C
  H681     1.0000 0.97589  0.15398  0.87691  Biso   1.000  H
  C691     1.0000 0.05499  0.86796  0.88623  Biso   1.000  C
  C692     1.0000 0.03446  0.92562  0.80565  Biso   1.000  C
  C693     1.0000 0.05495  0.86796  0.88623  Biso   1.000  C
  C694     1.0000 0.03442  0.92562  0.80565  Biso   1.000  C
  C695     1.0000 0.07438  0.80565  0.96554  Biso   1.000  C
  C696     1.0000 0.94501  0.86796  0.11377  Biso   1.000  C
  C697     1.0000 0.88623  0.94501  0.13204  Biso   1.000  C
  C698     1.0000 0.88623  0.94501  0.13200  Biso   1.000  C
  C699     1.0000 0.88623  0.05499  0.86796  Biso   1.000  C
  C700     1.0000 0.80565  0.03446  0.92562  Biso   1.000  C
  C701     1.0000 0.88623  0.05495  0.86796  Biso   1.000  C
  C702     1.0000 0.80565  0.03442  0.92562  Biso   1.000  C
  C703     1.0000 0.96554  0.07438  0.80565  Biso   1.000  C
  H682     1.0000 0.02411  0.84598  0.87691  Biso   1.000  H
  N205     1.0000 0.04674  0.96386  0.77197  Biso   1.000  N
  H683     1.0000 0.00238  0.90430  0.79912  Biso   1.000  H
  H684     1.0000 0.00238  0.90430  0.79908  Biso   1.000  H
  N206     1.0000 0.04670  0.96386  0.77197  Biso   1.000  N
  N207     1.0000 0.03614  0.77197  0.95326  Biso   1.000  N
  H685     1.0000 0.09570  0.79912  0.99762  Biso   1.000  H
  H686     1.0000 0.09570  0.79912  0.99758  Biso   1.000  H
  H687     1.0000 0.09570  0.79908  0.99762  Biso   1.000  H
  H688     1.0000 0.09570  0.79908  0.99758  Biso   1.000  H
  N208     1.0000 0.03610  0.77197  0.95326  Biso   1.000  N
  H689     1.0000 0.97589  0.84598  0.12309  Biso   1.000  H
  C704     1.0000 0.91338  0.85424  0.06801  Biso   1.000  C
  C705     1.0000 0.91334  0.85424  0.06801  Biso   1.000  C
  H690     1.0000 0.87691  0.97589  0.15402  Biso   1.000  H
  C706     1.0000 0.85424  0.93199  0.08662  Biso   1.000  C
  H691     1.0000 0.87691  0.97589  0.15398  Biso   1.000  H
  H692     1.0000 0.87691  0.02411  0.84598  Biso   1.000  H
  N209     1.0000 0.77197  0.04674  0.96386  Biso   1.000  N
  H693     1.0000 0.79912  0.00238  0.90430  Biso   1.000  H
  N210     1.0000 0.77197  0.04670  0.96386  Biso   1.000  N
  H694     1.0000 0.79908  0.00238  0.90430  Biso   1.000  H
  N211     1.0000 0.95326  0.03614  0.77197  Biso   1.000  N
  H695     1.0000 0.99762  0.09570  0.79912  Biso   1.000  H
  H696     1.0000 0.99762  0.09570  0.79908  Biso   1.000  H
  N212     1.0000 0.95326  0.03610  0.77197  Biso   1.000  N
  H697     1.0000 0.99758  0.09570  0.79912  Biso   1.000  H
  H698     1.0000 0.99758  0.09570  0.79908  Biso   1.000  H
  C707     1.0000 0.01060  0.97059  0.72474  Biso   1.000  C
  C708     1.0000 0.01056  0.97059  0.72474  Biso   1.000  C
  C709     1.0000 0.02941  0.72474  0.98940  Biso   1.000  C
  C710     1.0000 0.86796  0.88623  0.05499  Biso   1.000  C
  C711     1.0000 0.92562  0.80565  0.03446  Biso   1.000  C
  C712     1.0000 0.86796  0.88623  0.05495  Biso   1.000  C
  C713     1.0000 0.92562  0.80565  0.03442  Biso   1.000  C
  C714     1.0000 0.80565  0.96554  0.07438  Biso   1.000  C
  C715     1.0000 0.72474  0.01060  0.97059  Biso   1.000  C
  C716     1.0000 0.72474  0.01056  0.97059  Biso   1.000  C
  C717     1.0000 0.98940  0.02941  0.72474  Biso   1.000  C
  H699     1.0000 0.97951  0.94460  0.72708  Biso   1.000  H
  H700     1.0000 0.03101  0.96312  0.69041  Biso   1.000  H
  H701     1.0000 0.03101  0.96308  0.69041  Biso   1.000  H
  C718     1.0000 0.97059  0.72474  0.01060  Biso   1.000  C
  C719     1.0000 0.97059  0.72474  0.01056  Biso   1.000  C
  H702     1.0000 0.03688  0.69041  0.96899  Biso   1.000  H
  H703     1.0000 0.05540  0.72708  0.02049  Biso   1.000  H
  H704     1.0000 0.84598  0.87691  0.02411  Biso   1.000  H
  N213     1.0000 0.96386  0.77197  0.04674  Biso   1.000  N
  H705     1.0000 0.90430  0.79912  0.00238  Biso   1.000  H
  N214     1.0000 0.96386  0.77197  0.04670  Biso   1.000  N
  H706     1.0000 0.90430  0.79908  0.00238  Biso   1.000  H
  N215     1.0000 0.77197  0.95326  0.03614  Biso   1.000  N
  H707     1.0000 0.79912  0.99762  0.09570  Biso   1.000  H
  N216     1.0000 0.77197  0.95326  0.03610  Biso   1.000  N
  H708     1.0000 0.79912  0.99758  0.09570  Biso   1.000  H
  H709     1.0000 0.79908  0.99762  0.09570  Biso   1.000  H
  H710     1.0000 0.79908  0.99758  0.09570  Biso   1.000  H
  C720     1.0000 0.72474  0.98940  0.02941  Biso   1.000  C
  H711     1.0000 0.72708  0.97951  0.94460  Biso   1.000  H
  H712     1.0000 0.69041  0.03101  0.96312  Biso   1.000  H
  H713     1.0000 0.69041  0.03101  0.96308  Biso   1.000  H
  H714     1.0000 0.96899  0.03688  0.69041  Biso   1.000  H
  H715     1.0000 0.02049  0.05540  0.72708  Biso   1.000  H
  H716     1.0000 0.94460  0.72708  0.97951  Biso   1.000  H
  H717     1.0000 0.96312  0.69041  0.03101  Biso   1.000  H
  H718     1.0000 0.96308  0.69041  0.03101  Biso   1.000  H
  H719     1.0000 0.69041  0.96899  0.03688  Biso   1.000  H
  H720     1.0000 0.72708  0.02049  0.05540  Biso   1.000  H
  C721     1.0000 0.13204  0.11377  0.05499  Biso   1.000  C
  C722     1.0000 0.14576  0.06801  0.08662  Biso   1.000  C
  C723     1.0000 0.08662  0.14576  0.06801  Biso   1.000  C
  H721     1.0000 0.15402  0.12309  0.02411  Biso   1.000  H
  H722     1.0000 0.15398  0.12309  0.02411  Biso   1.000  H
  C724     1.0000 0.11377  0.05499  0.13204  Biso   1.000  C
  C725     1.0000 0.19435  0.03446  0.07438  Biso   1.000  C
  C726     1.0000 0.13204  0.11377  0.05495  Biso   1.000  C
  C727     1.0000 0.11377  0.05499  0.13200  Biso   1.000  C
  C728     1.0000 0.11377  0.05495  0.13204  Biso   1.000  C
  C729     1.0000 0.19435  0.03442  0.07438  Biso   1.000  C
  C730     1.0000 0.11377  0.05495  0.13200  Biso   1.000  C
  C731     1.0000 0.13200  0.11377  0.05499  Biso   1.000  C
  C732     1.0000 0.13200  0.11377  0.05495  Biso   1.000  C
  C733     1.0000 0.07438  0.19435  0.03446  Biso   1.000  C
  C734     1.0000 0.05499  0.13204  0.11377  Biso   1.000  C
  C735     1.0000 0.07438  0.19435  0.03442  Biso   1.000  C
  C736     1.0000 0.05499  0.13200  0.11377  Biso   1.000  C
  C737     1.0000 0.05495  0.13204  0.11377  Biso   1.000  C
  C738     1.0000 0.05495  0.13200  0.11377  Biso   1.000  C
  C739     1.0000 0.06801  0.08662  0.14576  Biso   1.000  C
  H723     1.0000 0.12309  0.02411  0.15402  Biso   1.000  H
  H724     1.0000 0.12309  0.02411  0.15398  Biso   1.000  H
  H725     1.0000 0.20088  0.00238  0.09570  Biso   1.000  H
  N217     1.0000 0.22803  0.04674  0.03614  Biso   1.000  N
  N218     1.0000 0.22803  0.04674  0.03610  Biso   1.000  N
  N219     1.0000 0.22803  0.04670  0.03614  Biso   1.000  N
  N220     1.0000 0.22803  0.04670  0.03610  Biso   1.000  N
  H726     1.0000 0.09570  0.20088  0.00238  Biso   1.000  H
  N221     1.0000 0.03614  0.22803  0.04674  Biso   1.000  N
  N222     1.0000 0.03614  0.22803  0.04670  Biso   1.000  N
  N223     1.0000 0.03610  0.22803  0.04674  Biso   1.000  N
  N224     1.0000 0.03610  0.22803  0.04670  Biso   1.000  N
  H727     1.0000 0.02411  0.15402  0.12309  Biso   1.000  H
  H728     1.0000 0.02411  0.15398  0.12309  Biso   1.000  H
  C740     1.0000 0.03446  0.07438  0.19435  Biso   1.000  C
  C741     1.0000 0.03442  0.07438  0.19435  Biso   1.000  C
  C742     1.0000 0.27526  0.01060  0.02941  Biso   1.000  C
  C743     1.0000 0.27526  0.01056  0.02941  Biso   1.000  C
  C744     1.0000 0.02941  0.27526  0.01060  Biso   1.000  C
  C745     1.0000 0.02941  0.27526  0.01056  Biso   1.000  C
  H729     1.0000 0.00238  0.09570  0.20088  Biso   1.000  H
  N225     1.0000 0.04674  0.03614  0.22803  Biso   1.000  N
  N226     1.0000 0.04674  0.03610  0.22803  Biso   1.000  N
  N227     1.0000 0.04670  0.03614  0.22803  Biso   1.000  N
  N228     1.0000 0.04670  0.03610  0.22803  Biso   1.000  N
  H730     1.0000 0.30959  0.03101  0.03688  Biso   1.000  H
  C746     1.0000 0.27526  0.98940  0.97059  Biso   1.000  C
  H731     1.0000 0.27292  0.97951  0.05540  Biso   1.000  H
  H732     1.0000 0.27288  0.97951  0.05540  Biso   1.000  H
  H733     1.0000 0.03688  0.30959  0.03101  Biso   1.000  H
  C747     1.0000 0.97059  0.27526  0.98940  Biso   1.000  C
  H734     1.0000 0.05540  0.27292  0.97951  Biso   1.000  H
  H735     1.0000 0.05540  0.27288  0.97951  Biso   1.000  H
  C748     1.0000 0.01060  0.02941  0.27526  Biso   1.000  C
  C749     1.0000 0.01056  0.02941  0.27526  Biso   1.000  C
  N229     1.0000 0.22803  0.95326  0.96386  Biso   1.000  N
  H736     1.0000 0.30959  0.96899  0.96312  Biso   1.000  H
  H737     1.0000 0.30959  0.96899  0.96308  Biso   1.000  H
  H738     1.0000 0.27292  0.02049  0.94460  Biso   1.000  H
  H739     1.0000 0.27288  0.02049  0.94460  Biso   1.000  H
  N230     1.0000 0.96386  0.22803  0.95326  Biso   1.000  N
  H740     1.0000 0.96312  0.30959  0.96899  Biso   1.000  H
  H741     1.0000 0.96308  0.30959  0.96899  Biso   1.000  H
  H742     1.0000 0.94460  0.27292  0.02049  Biso   1.000  H
  H743     1.0000 0.94460  0.27288  0.02049  Biso   1.000  H
  H744     1.0000 0.03101  0.03688  0.30959  Biso   1.000  H
  C750     1.0000 0.98940  0.97059  0.27526  Biso   1.000  C
  H745     1.0000 0.97951  0.05540  0.27292  Biso   1.000  H
  H746     1.0000 0.97951  0.05540  0.27288  Biso   1.000  H
  C751     1.0000 0.19435  0.96554  0.92562  Biso   1.000  C
  C752     1.0000 0.92562  0.19435  0.96554  Biso   1.000  C
  N231     1.0000 0.95326  0.96386  0.22803  Biso   1.000  N
  H747     1.0000 0.96899  0.96312  0.30959  Biso   1.000  H
  H748     1.0000 0.96899  0.96308  0.30959  Biso   1.000  H
  H749     1.0000 0.02049  0.94460  0.27292  Biso   1.000  H
  H750     1.0000 0.02049  0.94460  0.27288  Biso   1.000  H
  C753     1.0000 0.14576  0.93199  0.91338  Biso   1.000  C
  H751     1.0000 0.20088  0.99762  0.90430  Biso   1.000  H
  C754     1.0000 0.14576  0.93199  0.91334  Biso   1.000  C
  H752     1.0000 0.20088  0.99758  0.90430  Biso   1.000  H
  C755     1.0000 0.91338  0.14576  0.93199  Biso   1.000  C
  H753     1.0000 0.90430  0.20088  0.99762  Biso   1.000  H
  H754     1.0000 0.90430  0.20088  0.99758  Biso   1.000  H
  C756     1.0000 0.91334  0.14576  0.93199  Biso   1.000  C
  C757     1.0000 0.96554  0.92562  0.19435  Biso   1.000  C
  C758     1.0000 0.11377  0.94501  0.86796  Biso   1.000  C
  C759     1.0000 0.13204  0.88623  0.94501  Biso   1.000  C
  C760     1.0000 0.13200  0.88623  0.94501  Biso   1.000  C
  C761     1.0000 0.86796  0.11377  0.94501  Biso   1.000  C
  C762     1.0000 0.94501  0.13204  0.88623  Biso   1.000  C
  C763     1.0000 0.94501  0.13200  0.88623  Biso   1.000  C
  C764     1.0000 0.93199  0.91338  0.14576  Biso   1.000  C
  H755     1.0000 0.99762  0.90430  0.20088  Biso   1.000  H
  C765     1.0000 0.93199  0.91334  0.14576  Biso   1.000  C
  H756     1.0000 0.99758  0.90430  0.20088  Biso   1.000  H
  H757     1.0000 0.12309  0.97589  0.84598  Biso   1.000  H
  C766     1.0000 0.06801  0.91338  0.85424  Biso   1.000  C
  C767     1.0000 0.06801  0.91334  0.85424  Biso   1.000  C
  H758     1.0000 0.15402  0.87691  0.97589  Biso   1.000  H
  C768     1.0000 0.08662  0.85424  0.93199  Biso   1.000  C
  H759     1.0000 0.15398  0.87691  0.97589  Biso   1.000  H
  H760     1.0000 0.84598  0.12309  0.97589  Biso   1.000  H
  C769     1.0000 0.85424  0.06801  0.91338  Biso   1.000  C
  C770     1.0000 0.85424  0.06801  0.91334  Biso   1.000  C
  H761     1.0000 0.97589  0.15402  0.87691  Biso   1.000  H
  C771     1.0000 0.93199  0.08662  0.85424  Biso   1.000  C
  H762     1.0000 0.97589  0.15398  0.87691  Biso   1.000  H
  C772     1.0000 0.94501  0.86796  0.11377  Biso   1.000  C
  C773     1.0000 0.88623  0.94501  0.13204  Biso   1.000  C
  C774     1.0000 0.88623  0.94501  0.13200  Biso   1.000  C
  C775     1.0000 0.05499  0.86796  0.88623  Biso   1.000  C
  C776     1.0000 0.03446  0.92562  0.80565  Biso   1.000  C
  C777     1.0000 0.05495  0.86796  0.88623  Biso   1.000  C
  C778     1.0000 0.03442  0.92562  0.80565  Biso   1.000  C
  C779     1.0000 0.07438  0.80565  0.96554  Biso   1.000  C
  C780     1.0000 0.88623  0.05499  0.86796  Biso   1.000  C
  C781     1.0000 0.80565  0.03446  0.92562  Biso   1.000  C
  C782     1.0000 0.88623  0.05495  0.86796  Biso   1.000  C
  C783     1.0000 0.80565  0.03442  0.92562  Biso   1.000  C
  C784     1.0000 0.96554  0.07438  0.80565  Biso   1.000  C
  H763     1.0000 0.97589  0.84598  0.12309  Biso   1.000  H
  C785     1.0000 0.91338  0.85424  0.06801  Biso   1.000  C
  C786     1.0000 0.91334  0.85424  0.06801  Biso   1.000  C
  H764     1.0000 0.87691  0.97589  0.15402  Biso   1.000  H
  C787     1.0000 0.85424  0.93199  0.08662  Biso   1.000  C
  H765     1.0000 0.87691  0.97589  0.15398  Biso   1.000  H
  H766     1.0000 0.02411  0.84598  0.87691  Biso   1.000  H
  N232     1.0000 0.04674  0.96386  0.77197  Biso   1.000  N
  H767     1.0000 0.00238  0.90430  0.79912  Biso   1.000  H
  H768     1.0000 0.00238  0.90430  0.79908  Biso   1.000  H
  N233     1.0000 0.04670  0.96386  0.77197  Biso   1.000  N
  N234     1.0000 0.03614  0.77197  0.95326  Biso   1.000  N
  H769     1.0000 0.09570  0.79912  0.99762  Biso   1.000  H
  H770     1.0000 0.09570  0.79912  0.99758  Biso   1.000  H
  H771     1.0000 0.09570  0.79908  0.99762  Biso   1.000  H
  H772     1.0000 0.09570  0.79908  0.99758  Biso   1.000  H
  N235     1.0000 0.03610  0.77197  0.95326  Biso   1.000  N
  H773     1.0000 0.87691  0.02411  0.84598  Biso   1.000  H
  N236     1.0000 0.77197  0.04674  0.96386  Biso   1.000  N
  H774     1.0000 0.79912  0.00238  0.90430  Biso   1.000  H
  N237     1.0000 0.77197  0.04670  0.96386  Biso   1.000  N
  H775     1.0000 0.79908  0.00238  0.90430  Biso   1.000  H
  N238     1.0000 0.95326  0.03614  0.77197  Biso   1.000  N
  H776     1.0000 0.99762  0.09570  0.79912  Biso   1.000  H
  H777     1.0000 0.99762  0.09570  0.79908  Biso   1.000  H
  N239     1.0000 0.95326  0.03610  0.77197  Biso   1.000  N
  H778     1.0000 0.99758  0.09570  0.79912  Biso   1.000  H
  H779     1.0000 0.99758  0.09570  0.79908  Biso   1.000  H
  C788     1.0000 0.86796  0.88623  0.05499  Biso   1.000  C
  C789     1.0000 0.92562  0.80565  0.03446  Biso   1.000  C
  C790     1.0000 0.86796  0.88623  0.05495  Biso   1.000  C
  C791     1.0000 0.92562  0.80565  0.03442  Biso   1.000  C
  C792     1.0000 0.80565  0.96554  0.07438  Biso   1.000  C
  C793     1.0000 0.01060  0.97059  0.72474  Biso   1.000  C
  C794     1.0000 0.01056  0.97059  0.72474  Biso   1.000  C
  C795     1.0000 0.02941  0.72474  0.98940  Biso   1.000  C
  C796     1.0000 0.72474  0.01060  0.97059  Biso   1.000  C
  C797     1.0000 0.72474  0.01056  0.97059  Biso   1.000  C
  C798     1.0000 0.98940  0.02941  0.72474  Biso   1.000  C
  H780     1.0000 0.84598  0.87691  0.02411  Biso   1.000  H
  N240     1.0000 0.96386  0.77197  0.04674  Biso   1.000  N
  H781     1.0000 0.90430  0.79912  0.00238  Biso   1.000  H
  N241     1.0000 0.96386  0.77197  0.04670  Biso   1.000  N
  H782     1.0000 0.90430  0.79908  0.00238  Biso   1.000  H
  N242     1.0000 0.77197  0.95326  0.03614  Biso   1.000  N
  H783     1.0000 0.79912  0.99762  0.09570  Biso   1.000  H
  N243     1.0000 0.77197  0.95326  0.03610  Biso   1.000  N
  H784     1.0000 0.79912  0.99758  0.09570  Biso   1.000  H
  H785     1.0000 0.79908  0.99762  0.09570  Biso   1.000  H
  H786     1.0000 0.79908  0.99758  0.09570  Biso   1.000  H
  H787     1.0000 0.97951  0.94460  0.72708  Biso   1.000  H
  H788     1.0000 0.03101  0.96312  0.69041  Biso   1.000  H
  H789     1.0000 0.03101  0.96308  0.69041  Biso   1.000  H
  C799     1.0000 0.97059  0.72474  0.01060  Biso   1.000  C
  C800     1.0000 0.97059  0.72474  0.01056  Biso   1.000  C
  H790     1.0000 0.03688  0.69041  0.96899  Biso   1.000  H
  H791     1.0000 0.05540  0.72708  0.02049  Biso   1.000  H
  C801     1.0000 0.72474  0.98940  0.02941  Biso   1.000  C
  H792     1.0000 0.72708  0.97951  0.94460  Biso   1.000  H
  H793     1.0000 0.69041  0.03101  0.96312  Biso   1.000  H
  H794     1.0000 0.69041  0.03101  0.96308  Biso   1.000  H
  H795     1.0000 0.96899  0.03688  0.69041  Biso   1.000  H
  H796     1.0000 0.02049  0.05540  0.72708  Biso   1.000  H
  H797     1.0000 0.94460  0.72708  0.97951  Biso   1.000  H
  H798     1.0000 0.96312  0.69041  0.03101  Biso   1.000  H
  H799     1.0000 0.96308  0.69041  0.03101  Biso   1.000  H
  H800     1.0000 0.69041  0.96899  0.03688  Biso   1.000  H
  H801     1.0000 0.72708  0.02049  0.05540  Biso   1.000  H
  C802     1.0000 0.13204  0.11377  0.05499  Biso   1.000  C
  C803     1.0000 0.14576  0.06801  0.08662  Biso   1.000  C
  C804     1.0000 0.08662  0.14576  0.06801  Biso   1.000  C
  H802     1.0000 0.15402  0.12309  0.02411  Biso   1.000  H
  H803     1.0000 0.15398  0.12309  0.02411  Biso   1.000  H
  C805     1.0000 0.11377  0.05499  0.13204  Biso   1.000  C
  C806     1.0000 0.19435  0.03446  0.07438  Biso   1.000  C
  C807     1.0000 0.13204  0.11377  0.05495  Biso   1.000  C
  C808     1.0000 0.11377  0.05499  0.13200  Biso   1.000  C
  C809     1.0000 0.11377  0.05495  0.13204  Biso   1.000  C
  C810     1.0000 0.19435  0.03442  0.07438  Biso   1.000  C
  C811     1.0000 0.11377  0.05495  0.13200  Biso   1.000  C
  C812     1.0000 0.13200  0.11377  0.05499  Biso   1.000  C
  C813     1.0000 0.13200  0.11377  0.05495  Biso   1.000  C
  C814     1.0000 0.07438  0.19435  0.03446  Biso   1.000  C
  C815     1.0000 0.05499  0.13204  0.11377  Biso   1.000  C
  C816     1.0000 0.07438  0.19435  0.03442  Biso   1.000  C
  C817     1.0000 0.05499  0.13200  0.11377  Biso   1.000  C
  C818     1.0000 0.05495  0.13204  0.11377  Biso   1.000  C
  C819     1.0000 0.05495  0.13200  0.11377  Biso   1.000  C
  C820     1.0000 0.06801  0.08662  0.14576  Biso   1.000  C
  H804     1.0000 0.12309  0.02411  0.15402  Biso   1.000  H
  H805     1.0000 0.12309  0.02411  0.15398  Biso   1.000  H
  H806     1.0000 0.20088  0.00238  0.09570  Biso   1.000  H
  N244     1.0000 0.22803  0.04674  0.03614  Biso   1.000  N
  N245     1.0000 0.22803  0.04674  0.03610  Biso   1.000  N
  N246     1.0000 0.22803  0.04670  0.03614  Biso   1.000  N
  N247     1.0000 0.22803  0.04670  0.03610  Biso   1.000  N
  H807     1.0000 0.09570  0.20088  0.00238  Biso   1.000  H
  N248     1.0000 0.03614  0.22803  0.04674  Biso   1.000  N
  N249     1.0000 0.03614  0.22803  0.04670  Biso   1.000  N
  N250     1.0000 0.03610  0.22803  0.04674  Biso   1.000  N
  N251     1.0000 0.03610  0.22803  0.04670  Biso   1.000  N
  H808     1.0000 0.02411  0.15402  0.12309  Biso   1.000  H
  H809     1.0000 0.02411  0.15398  0.12309  Biso   1.000  H
  C821     1.0000 0.03446  0.07438  0.19435  Biso   1.000  C
  C822     1.0000 0.03442  0.07438  0.19435  Biso   1.000  C
  C823     1.0000 0.27526  0.01060  0.02941  Biso   1.000  C
  C824     1.0000 0.27526  0.01056  0.02941  Biso   1.000  C
  C825     1.0000 0.02941  0.27526  0.01060  Biso   1.000  C
  C826     1.0000 0.02941  0.27526  0.01056  Biso   1.000  C
  H810     1.0000 0.00238  0.09570  0.20088  Biso   1.000  H
  N252     1.0000 0.04674  0.03614  0.22803  Biso   1.000  N
  N253     1.0000 0.04674  0.03610  0.22803  Biso   1.000  N
  N254     1.0000 0.04670  0.03614  0.22803  Biso   1.000  N
  N255     1.0000 0.04670  0.03610  0.22803  Biso   1.000  N
  H811     1.0000 0.30959  0.03101  0.03688  Biso   1.000  H
  C827     1.0000 0.27526  0.98940  0.97059  Biso   1.000  C
  H812     1.0000 0.27292  0.97951  0.05540  Biso   1.000  H
  H813     1.0000 0.27288  0.97951  0.05540  Biso   1.000  H
  H814     1.0000 0.03688  0.30959  0.03101  Biso   1.000  H
  C828     1.0000 0.97059  0.27526  0.98940  Biso   1.000  C
  H815     1.0000 0.05540  0.27292  0.97951  Biso   1.000  H
  H816     1.0000 0.05540  0.27288  0.97951  Biso   1.000  H
  C829     1.0000 0.01060  0.02941  0.27526  Biso   1.000  C
  C830     1.0000 0.01056  0.02941  0.27526  Biso   1.000  C
  N256     1.0000 0.22803  0.95326  0.96386  Biso   1.000  N
  H817     1.0000 0.30959  0.96899  0.96312  Biso   1.000  H
  H818     1.0000 0.30959  0.96899  0.96308  Biso   1.000  H
  H819     1.0000 0.27292  0.02049  0.94460  Biso   1.000  H
  H820     1.0000 0.27288  0.02049  0.94460  Biso   1.000  H
  N257     1.0000 0.96386  0.22803  0.95326  Biso   1.000  N
  H821     1.0000 0.96312  0.30959  0.96899  Biso   1.000  H
  H822     1.0000 0.96308  0.30959  0.96899  Biso   1.000  H
  H823     1.0000 0.94460  0.27292  0.02049  Biso   1.000  H
  H824     1.0000 0.94460  0.27288  0.02049  Biso   1.000  H
  H825     1.0000 0.03101  0.03688  0.30959  Biso   1.000  H
  C831     1.0000 0.98940  0.97059  0.27526  Biso   1.000  C
  H826     1.0000 0.97951  0.05540  0.27292  Biso   1.000  H
  H827     1.0000 0.97951  0.05540  0.27288  Biso   1.000  H
  C832     1.0000 0.19435  0.96554  0.92562  Biso   1.000  C
  C833     1.0000 0.92562  0.19435  0.96554  Biso   1.000  C
  N258     1.0000 0.95326  0.96386  0.22803  Biso   1.000  N
  H828     1.0000 0.96899  0.96312  0.30959  Biso   1.000  H
  H829     1.0000 0.96899  0.96308  0.30959  Biso   1.000  H
  H830     1.0000 0.02049  0.94460  0.27292  Biso   1.000  H
  H831     1.0000 0.02049  0.94460  0.27288  Biso   1.000  H
  C834     1.0000 0.14576  0.93199  0.91338  Biso   1.000  C
  H832     1.0000 0.20088  0.99762  0.90430  Biso   1.000  H
  C835     1.0000 0.14576  0.93199  0.91334  Biso   1.000  C
  H833     1.0000 0.20088  0.99758  0.90430  Biso   1.000  H
  C836     1.0000 0.91338  0.14576  0.93199  Biso   1.000  C
  H834     1.0000 0.90430  0.20088  0.99762  Biso   1.000  H
  H835     1.0000 0.90430  0.20088  0.99758  Biso   1.000  H
  C837     1.0000 0.91334  0.14576  0.93199  Biso   1.000  C
  C838     1.0000 0.96554  0.92562  0.19435  Biso   1.000  C
  C839     1.0000 0.11377  0.94501  0.86796  Biso   1.000  C
  C840     1.0000 0.13204  0.88623  0.94501  Biso   1.000  C
  C841     1.0000 0.13200  0.88623  0.94501  Biso   1.000  C
  C842     1.0000 0.86796  0.11377  0.94501  Biso   1.000  C
  C843     1.0000 0.94501  0.13204  0.88623  Biso   1.000  C
  C844     1.0000 0.94501  0.13200  0.88623  Biso   1.000  C
  C845     1.0000 0.93199  0.91338  0.14576  Biso   1.000  C
  H836     1.0000 0.99762  0.90430  0.20088  Biso   1.000  H
  C846     1.0000 0.93199  0.91334  0.14576  Biso   1.000  C
  H837     1.0000 0.99758  0.90430  0.20088  Biso   1.000  H
  H838     1.0000 0.12309  0.97589  0.84598  Biso   1.000  H
  C847     1.0000 0.06801  0.91338  0.85424  Biso   1.000  C
  C848     1.0000 0.06801  0.91334  0.85424  Biso   1.000  C
  H839     1.0000 0.15402  0.87691  0.97589  Biso   1.000  H
  C849     1.0000 0.08662  0.85424  0.93199  Biso   1.000  C
  H840     1.0000 0.15398  0.87691  0.97589  Biso   1.000  H
  H841     1.0000 0.84598  0.12309  0.97589  Biso   1.000  H
  C850     1.0000 0.85424  0.06801  0.91338  Biso   1.000  C
  C851     1.0000 0.85424  0.06801  0.91334  Biso   1.000  C
  H842     1.0000 0.97589  0.15402  0.87691  Biso   1.000  H
  C852     1.0000 0.93199  0.08662  0.85424  Biso   1.000  C
  H843     1.0000 0.97589  0.15398  0.87691  Biso   1.000  H
  C853     1.0000 0.94501  0.86796  0.11377  Biso   1.000  C
  C854     1.0000 0.88623  0.94501  0.13204  Biso   1.000  C
  C855     1.0000 0.88623  0.94501  0.13200  Biso   1.000  C
  C856     1.0000 0.05499  0.86796  0.88623  Biso   1.000  C
  C857     1.0000 0.03446  0.92562  0.80565  Biso   1.000  C
  C858     1.0000 0.05495  0.86796  0.88623  Biso   1.000  C
  C859     1.0000 0.03442  0.92562  0.80565  Biso   1.000  C
  C860     1.0000 0.07438  0.80565  0.96554  Biso   1.000  C
  C861     1.0000 0.88623  0.05499  0.86796  Biso   1.000  C
  C862     1.0000 0.80565  0.03446  0.92562  Biso   1.000  C
  C863     1.0000 0.88623  0.05495  0.86796  Biso   1.000  C
  C864     1.0000 0.80565  0.03442  0.92562  Biso   1.000  C
  C865     1.0000 0.96554  0.07438  0.80565  Biso   1.000  C
  H844     1.0000 0.97589  0.84598  0.12309  Biso   1.000  H
  C866     1.0000 0.91338  0.85424  0.06801  Biso   1.000  C
  C867     1.0000 0.91334  0.85424  0.06801  Biso   1.000  C
  H845     1.0000 0.87691  0.97589  0.15402  Biso   1.000  H
  C868     1.0000 0.85424  0.93199  0.08662  Biso   1.000  C
  H846     1.0000 0.87691  0.97589  0.15398  Biso   1.000  H
  H847     1.0000 0.02411  0.84598  0.87691  Biso   1.000  H
  N259     1.0000 0.04674  0.96386  0.77197  Biso   1.000  N
  H848     1.0000 0.00238  0.90430  0.79912  Biso   1.000  H
  H849     1.0000 0.00238  0.90430  0.79908  Biso   1.000  H
  N260     1.0000 0.04670  0.96386  0.77197  Biso   1.000  N
  N261     1.0000 0.03614  0.77197  0.95326  Biso   1.000  N
  H850     1.0000 0.09570  0.79912  0.99762  Biso   1.000  H
  H851     1.0000 0.09570  0.79912  0.99758  Biso   1.000  H
  H852     1.0000 0.09570  0.79908  0.99762  Biso   1.000  H
  H853     1.0000 0.09570  0.79908  0.99758  Biso   1.000  H
  N262     1.0000 0.03610  0.77197  0.95326  Biso   1.000  N
  H854     1.0000 0.87691  0.02411  0.84598  Biso   1.000  H
  N263     1.0000 0.77197  0.04674  0.96386  Biso   1.000  N
  H855     1.0000 0.79912  0.00238  0.90430  Biso   1.000  H
  N264     1.0000 0.77197  0.04670  0.96386  Biso   1.000  N
  H856     1.0000 0.79908  0.00238  0.90430  Biso   1.000  H
  N265     1.0000 0.95326  0.03614  0.77197  Biso   1.000  N
  H857     1.0000 0.99762  0.09570  0.79912  Biso   1.000  H
  H858     1.0000 0.99762  0.09570  0.79908  Biso   1.000  H
  N266     1.0000 0.95326  0.03610  0.77197  Biso   1.000  N
  H859     1.0000 0.99758  0.09570  0.79912  Biso   1.000  H
  H860     1.0000 0.99758  0.09570  0.79908  Biso   1.000  H
  C869     1.0000 0.86796  0.88623  0.05499  Biso   1.000  C
  C870     1.0000 0.92562  0.80565  0.03446  Biso   1.000  C
  C871     1.0000 0.86796  0.88623  0.05495  Biso   1.000  C
  C872     1.0000 0.92562  0.80565  0.03442  Biso   1.000  C
  C873     1.0000 0.80565  0.96554  0.07438  Biso   1.000  C
  C874     1.0000 0.01060  0.97059  0.72474  Biso   1.000  C
  C875     1.0000 0.01056  0.97059  0.72474  Biso   1.000  C
  C876     1.0000 0.02941  0.72474  0.98940  Biso   1.000  C
  C877     1.0000 0.72474  0.01060  0.97059  Biso   1.000  C
  C878     1.0000 0.72474  0.01056  0.97059  Biso   1.000  C
  C879     1.0000 0.98940  0.02941  0.72474  Biso   1.000  C
  H861     1.0000 0.84598  0.87691  0.02411  Biso   1.000  H
  N267     1.0000 0.96386  0.77197  0.04674  Biso   1.000  N
  H862     1.0000 0.90430  0.79912  0.00238  Biso   1.000  H
  N268     1.0000 0.96386  0.77197  0.04670  Biso   1.000  N
  H863     1.0000 0.90430  0.79908  0.00238  Biso   1.000  H
  N269     1.0000 0.77197  0.95326  0.03614  Biso   1.000  N
  H864     1.0000 0.79912  0.99762  0.09570  Biso   1.000  H
  N270     1.0000 0.77197  0.95326  0.03610  Biso   1.000  N
  H865     1.0000 0.79912  0.99758  0.09570  Biso   1.000  H
  H866     1.0000 0.79908  0.99762  0.09570  Biso   1.000  H
  H867     1.0000 0.79908  0.99758  0.09570  Biso   1.000  H
  H868     1.0000 0.97951  0.94460  0.72708  Biso   1.000  H
  H869     1.0000 0.03101  0.96312  0.69041  Biso   1.000  H
  H870     1.0000 0.03101  0.96308  0.69041  Biso   1.000  H
  C880     1.0000 0.97059  0.72474  0.01060  Biso   1.000  C
  C881     1.0000 0.97059  0.72474  0.01056  Biso   1.000  C
  H871     1.0000 0.03688  0.69041  0.96899  Biso   1.000  H
  H872     1.0000 0.05540  0.72708  0.02049  Biso   1.000  H
  C882     1.0000 0.72474  0.98940  0.02941  Biso   1.000  C
  H873     1.0000 0.72708  0.97951  0.94460  Biso   1.000  H
  H874     1.0000 0.69041  0.03101  0.96312  Biso   1.000  H
  H875     1.0000 0.69041  0.03101  0.96308  Biso   1.000  H
  H876     1.0000 0.96899  0.03688  0.69041  Biso   1.000  H
  H877     1.0000 0.02049  0.05540  0.72708  Biso   1.000  H
  H878     1.0000 0.94460  0.72708  0.97951  Biso   1.000  H
  H879     1.0000 0.96312  0.69041  0.03101  Biso   1.000  H
  H880     1.0000 0.96308  0.69041  0.03101  Biso   1.000  H
  H881     1.0000 0.69041  0.96899  0.03688  Biso   1.000  H
  H882     1.0000 0.72708  0.02049  0.05540  Biso   1.000  H
  C883     1.0000 0.13204  0.11377  0.05499  Biso   1.000  C
  C884     1.0000 0.14576  0.06801  0.08662  Biso   1.000  C
  C885     1.0000 0.08662  0.14576  0.06801  Biso   1.000  C
  H883     1.0000 0.15402  0.12309  0.02411  Biso   1.000  H
  H884     1.0000 0.15398  0.12309  0.02411  Biso   1.000  H
  C886     1.0000 0.11377  0.05499  0.13204  Biso   1.000  C
  C887     1.0000 0.19435  0.03446  0.07438  Biso   1.000  C
  C888     1.0000 0.13204  0.11377  0.05495  Biso   1.000  C
  C889     1.0000 0.11377  0.05499  0.13200  Biso   1.000  C
  C890     1.0000 0.11377  0.05495  0.13204  Biso   1.000  C
  C891     1.0000 0.19435  0.03442  0.07438  Biso   1.000  C
  C892     1.0000 0.11377  0.05495  0.13200  Biso   1.000  C
  C893     1.0000 0.13200  0.11377  0.05499  Biso   1.000  C
  C894     1.0000 0.13200  0.11377  0.05495  Biso   1.000  C
  C895     1.0000 0.07438  0.19435  0.03446  Biso   1.000  C
  C896     1.0000 0.05499  0.13204  0.11377  Biso   1.000  C
  C897     1.0000 0.07438  0.19435  0.03442  Biso   1.000  C
  C898     1.0000 0.05499  0.13200  0.11377  Biso   1.000  C
  C899     1.0000 0.05495  0.13204  0.11377  Biso   1.000  C
  C900     1.0000 0.05495  0.13200  0.11377  Biso   1.000  C
  C901     1.0000 0.06801  0.08662  0.14576  Biso   1.000  C
  H885     1.0000 0.12309  0.02411  0.15402  Biso   1.000  H
  H886     1.0000 0.12309  0.02411  0.15398  Biso   1.000  H
  H887     1.0000 0.20088  0.00238  0.09570  Biso   1.000  H
  N271     1.0000 0.22803  0.04674  0.03614  Biso   1.000  N
  N272     1.0000 0.22803  0.04674  0.03610  Biso   1.000  N
  N273     1.0000 0.22803  0.04670  0.03614  Biso   1.000  N
  N274     1.0000 0.22803  0.04670  0.03610  Biso   1.000  N
  H888     1.0000 0.09570  0.20088  0.00238  Biso   1.000  H
  N275     1.0000 0.03614  0.22803  0.04674  Biso   1.000  N
  N276     1.0000 0.03614  0.22803  0.04670  Biso   1.000  N
  N277     1.0000 0.03610  0.22803  0.04674  Biso   1.000  N
  N278     1.0000 0.03610  0.22803  0.04670  Biso   1.000  N
  H889     1.0000 0.02411  0.15402  0.12309  Biso   1.000  H
  H890     1.0000 0.02411  0.15398  0.12309  Biso   1.000  H
  C902     1.0000 0.03446  0.07438  0.19435  Biso   1.000  C
  C903     1.0000 0.03442  0.07438  0.19435  Biso   1.000  C
  C904     1.0000 0.27526  0.01060  0.02941  Biso   1.000  C
  C905     1.0000 0.27526  0.01056  0.02941  Biso   1.000  C
  C906     1.0000 0.02941  0.27526  0.01060  Biso   1.000  C
  C907     1.0000 0.02941  0.27526  0.01056  Biso   1.000  C
  H891     1.0000 0.00238  0.09570  0.20088  Biso   1.000  H
  N279     1.0000 0.04674  0.03614  0.22803  Biso   1.000  N
  N280     1.0000 0.04674  0.03610  0.22803  Biso   1.000  N
  N281     1.0000 0.04670  0.03614  0.22803  Biso   1.000  N
  N282     1.0000 0.04670  0.03610  0.22803  Biso   1.000  N
  H892     1.0000 0.30959  0.03101  0.03688  Biso   1.000  H
  C908     1.0000 0.27526  0.98940  0.97059  Biso   1.000  C
  H893     1.0000 0.27292  0.97951  0.05540  Biso   1.000  H
  H894     1.0000 0.27288  0.97951  0.05540  Biso   1.000  H
  H895     1.0000 0.03688  0.30959  0.03101  Biso   1.000  H
  C909     1.0000 0.97059  0.27526  0.98940  Biso   1.000  C
  H896     1.0000 0.05540  0.27292  0.97951  Biso   1.000  H
  H897     1.0000 0.05540  0.27288  0.97951  Biso   1.000  H
  C910     1.0000 0.01060  0.02941  0.27526  Biso   1.000  C
  C911     1.0000 0.01056  0.02941  0.27526  Biso   1.000  C
  N283     1.0000 0.22803  0.95326  0.96386  Biso   1.000  N
  H898     1.0000 0.30959  0.96899  0.96312  Biso   1.000  H
  H899     1.0000 0.30959  0.96899  0.96308  Biso   1.000  H
  H900     1.0000 0.27292  0.02049  0.94460  Biso   1.000  H
  H901     1.0000 0.27288  0.02049  0.94460  Biso   1.000  H
  N284     1.0000 0.96386  0.22803  0.95326  Biso   1.000  N
  H902     1.0000 0.96312  0.30959  0.96899  Biso   1.000  H
  H903     1.0000 0.96308  0.30959  0.96899  Biso   1.000  H
  H904     1.0000 0.94460  0.27292  0.02049  Biso   1.000  H
  H905     1.0000 0.94460  0.27288  0.02049  Biso   1.000  H
  H906     1.0000 0.03101  0.03688  0.30959  Biso   1.000  H
  C912     1.0000 0.98940  0.97059  0.27526  Biso   1.000  C
  H907     1.0000 0.97951  0.05540  0.27292  Biso   1.000  H
  H908     1.0000 0.97951  0.05540  0.27288  Biso   1.000  H
  C913     1.0000 0.19435  0.96554  0.92562  Biso   1.000  C
  C914     1.0000 0.92562  0.19435  0.96554  Biso   1.000  C
  N285     1.0000 0.95326  0.96386  0.22803  Biso   1.000  N
  H909     1.0000 0.96899  0.96312  0.30959  Biso   1.000  H
  H910     1.0000 0.96899  0.96308  0.30959  Biso   1.000  H
  H911     1.0000 0.02049  0.94460  0.27292  Biso   1.000  H
  H912     1.0000 0.02049  0.94460  0.27288  Biso   1.000  H
  C915     1.0000 0.14576  0.93199  0.91338  Biso   1.000  C
  H913     1.0000 0.20088  0.99762  0.90430  Biso   1.000  H
  C916     1.0000 0.14576  0.93199  0.91334  Biso   1.000  C
  H914     1.0000 0.20088  0.99758  0.90430  Biso   1.000  H
  C917     1.0000 0.91338  0.14576  0.93199  Biso   1.000  C
  H915     1.0000 0.90430  0.20088  0.99762  Biso   1.000  H
  H916     1.0000 0.90430  0.20088  0.99758  Biso   1.000  H
  C918     1.0000 0.91334  0.14576  0.93199  Biso   1.000  C
  C919     1.0000 0.96554  0.92562  0.19435  Biso   1.000  C
  C920     1.0000 0.11377  0.94501  0.86796  Biso   1.000  C
  C921     1.0000 0.13204  0.88623  0.94501  Biso   1.000  C
  C922     1.0000 0.13200  0.88623  0.94501  Biso   1.000  C
  C923     1.0000 0.86796  0.11377  0.94501  Biso   1.000  C
  C924     1.0000 0.94501  0.13204  0.88623  Biso   1.000  C
  C925     1.0000 0.94501  0.13200  0.88623  Biso   1.000  C
  C926     1.0000 0.93199  0.91338  0.14576  Biso   1.000  C
  H917     1.0000 0.99762  0.90430  0.20088  Biso   1.000  H
  C927     1.0000 0.93199  0.91334  0.14576  Biso   1.000  C
  H918     1.0000 0.99758  0.90430  0.20088  Biso   1.000  H
  H919     1.0000 0.12309  0.97589  0.84598  Biso   1.000  H
  C928     1.0000 0.06801  0.91338  0.85424  Biso   1.000  C
  C929     1.0000 0.06801  0.91334  0.85424  Biso   1.000  C
  H920     1.0000 0.15402  0.87691  0.97589  Biso   1.000  H
  C930     1.0000 0.08662  0.85424  0.93199  Biso   1.000  C
  H921     1.0000 0.15398  0.87691  0.97589  Biso   1.000  H
  H922     1.0000 0.84598  0.12309  0.97589  Biso   1.000  H
  C931     1.0000 0.85424  0.06801  0.91338  Biso   1.000  C
  C932     1.0000 0.85424  0.06801  0.91334  Biso   1.000  C
  H923     1.0000 0.97589  0.15402  0.87691  Biso   1.000  H
  C933     1.0000 0.93199  0.08662  0.85424  Biso   1.000  C
  H924     1.0000 0.97589  0.15398  0.87691  Biso   1.000  H
  C934     1.0000 0.94501  0.86796  0.11377  Biso   1.000  C
  C935     1.0000 0.88623  0.94501  0.13204  Biso   1.000  C
  C936     1.0000 0.88623  0.94501  0.13200  Biso   1.000  C
  C937     1.0000 0.05499  0.86796  0.88623  Biso   1.000  C
  C938     1.0000 0.03446  0.92562  0.80565  Biso   1.000  C
  C939     1.0000 0.05495  0.86796  0.88623  Biso   1.000  C
  C940     1.0000 0.03442  0.92562  0.80565  Biso   1.000  C
  C941     1.0000 0.07438  0.80565  0.96554  Biso   1.000  C
  C942     1.0000 0.88623  0.05499  0.86796  Biso   1.000  C
  C943     1.0000 0.80565  0.03446  0.92562  Biso   1.000  C
  C944     1.0000 0.88623  0.05495  0.86796  Biso   1.000  C
  C945     1.0000 0.80565  0.03442  0.92562  Biso   1.000  C
  C946     1.0000 0.96554  0.07438  0.80565  Biso   1.000  C
  H925     1.0000 0.97589  0.84598  0.12309  Biso   1.000  H
  C947     1.0000 0.91338  0.85424  0.06801  Biso   1.000  C
  C948     1.0000 0.91334  0.85424  0.06801  Biso   1.000  C
  H926     1.0000 0.87691  0.97589  0.15402  Biso   1.000  H
  C949     1.0000 0.85424  0.93199  0.08662  Biso   1.000  C
  H927     1.0000 0.87691  0.97589  0.15398  Biso   1.000  H
  H928     1.0000 0.02411  0.84598  0.87691  Biso   1.000  H
  N286     1.0000 0.04674  0.96386  0.77197  Biso   1.000  N
  H929     1.0000 0.00238  0.90430  0.79912  Biso   1.000  H
  H930     1.0000 0.00238  0.90430  0.79908  Biso   1.000  H
  N287     1.0000 0.04670  0.96386  0.77197  Biso   1.000  N
  N288     1.0000 0.03614  0.77197  0.95326  Biso   1.000  N
  H931     1.0000 0.09570  0.79912  0.99762  Biso   1.000  H
  H932     1.0000 0.09570  0.79912  0.99758  Biso   1.000  H
  H933     1.0000 0.09570  0.79908  0.99762  Biso   1.000  H
  H934     1.0000 0.09570  0.79908  0.99758  Biso   1.000  H
  N289     1.0000 0.03610  0.77197  0.95326  Biso   1.000  N
  H935     1.0000 0.87691  0.02411  0.84598  Biso   1.000  H
  N290     1.0000 0.77197  0.04674  0.96386  Biso   1.000  N
  H936     1.0000 0.79912  0.00238  0.90430  Biso   1.000  H
  N291     1.0000 0.77197  0.04670  0.96386  Biso   1.000  N
  H937     1.0000 0.79908  0.00238  0.90430  Biso   1.000  H
  N292     1.0000 0.95326  0.03614  0.77197  Biso   1.000  N
  H938     1.0000 0.99762  0.09570  0.79912  Biso   1.000  H
  H939     1.0000 0.99762  0.09570  0.79908  Biso   1.000  H
  N293     1.0000 0.95326  0.03610  0.77197  Biso   1.000  N
  H940     1.0000 0.99758  0.09570  0.79912  Biso   1.000  H
  H941     1.0000 0.99758  0.09570  0.79908  Biso   1.000  H
  C950     1.0000 0.86796  0.88623  0.05499  Biso   1.000  C
  C951     1.0000 0.92562  0.80565  0.03446  Biso   1.000  C
  C952     1.0000 0.86796  0.88623  0.05495  Biso   1.000  C
  C953     1.0000 0.92562  0.80565  0.03442  Biso   1.000  C
  C954     1.0000 0.80565  0.96554  0.07438  Biso   1.000  C
  C955     1.0000 0.01060  0.97059  0.72474  Biso   1.000  C
  C956     1.0000 0.01056  0.97059  0.72474  Biso   1.000  C
  C957     1.0000 0.02941  0.72474  0.98940  Biso   1.000  C
  C958     1.0000 0.72474  0.01060  0.97059  Biso   1.000  C
  C959     1.0000 0.72474  0.01056  0.97059  Biso   1.000  C
  C960     1.0000 0.98940  0.02941  0.72474  Biso   1.000  C
  H942     1.0000 0.84598  0.87691  0.02411  Biso   1.000  H
  N294     1.0000 0.96386  0.77197  0.04674  Biso   1.000  N
  H943     1.0000 0.90430  0.79912  0.00238  Biso   1.000  H
  N295     1.0000 0.96386  0.77197  0.04670  Biso   1.000  N
  H944     1.0000 0.90430  0.79908  0.00238  Biso   1.000  H
  N296     1.0000 0.77197  0.95326  0.03614  Biso   1.000  N
  H945     1.0000 0.79912  0.99762  0.09570  Biso   1.000  H
  N297     1.0000 0.77197  0.95326  0.03610  Biso   1.000  N
  H946     1.0000 0.79912  0.99758  0.09570  Biso   1.000  H
  H947     1.0000 0.79908  0.99762  0.09570  Biso   1.000  H
  H948     1.0000 0.79908  0.99758  0.09570  Biso   1.000  H
  H949     1.0000 0.97951  0.94460  0.72708  Biso   1.000  H
  H950     1.0000 0.03101  0.96312  0.69041  Biso   1.000  H
  H951     1.0000 0.03101  0.96308  0.69041  Biso   1.000  H
  C961     1.0000 0.97059  0.72474  0.01060  Biso   1.000  C
  C962     1.0000 0.97059  0.72474  0.01056  Biso   1.000  C
  H952     1.0000 0.03688  0.69041  0.96899  Biso   1.000  H
  H953     1.0000 0.05540  0.72708  0.02049  Biso   1.000  H
  C963     1.0000 0.72474  0.98940  0.02941  Biso   1.000  C
  H954     1.0000 0.72708  0.97951  0.94460  Biso   1.000  H
  H955     1.0000 0.69041  0.03101  0.96312  Biso   1.000  H
  H956     1.0000 0.69041  0.03101  0.96308  Biso   1.000  H
  H957     1.0000 0.96899  0.03688  0.69041  Biso   1.000  H
  H958     1.0000 0.02049  0.05540  0.72708  Biso   1.000  H
  H959     1.0000 0.94460  0.72708  0.97951  Biso   1.000  H
  H960     1.0000 0.96312  0.69041  0.03101  Biso   1.000  H
  H961     1.0000 0.96308  0.69041  0.03101  Biso   1.000  H
  H962     1.0000 0.69041  0.96899  0.03688  Biso   1.000  H
  H963     1.0000 0.72708  0.02049  0.05540  Biso   1.000  H
  C964     1.0000 0.13204  0.11377  0.05499  Biso   1.000  C
  C965     1.0000 0.14576  0.06801  0.08662  Biso   1.000  C
  C966     1.0000 0.08662  0.14576  0.06801  Biso   1.000  C
  H964     1.0000 0.15402  0.12309  0.02411  Biso   1.000  H
  H965     1.0000 0.15398  0.12309  0.02411  Biso   1.000  H
  C967     1.0000 0.11377  0.05499  0.13204  Biso   1.000  C
  C968     1.0000 0.19435  0.03446  0.07438  Biso   1.000  C
  C969     1.0000 0.13204  0.11377  0.05495  Biso   1.000  C
  C970     1.0000 0.11377  0.05499  0.13200  Biso   1.000  C
  C971     1.0000 0.11377  0.05495  0.13204  Biso   1.000  C
  C972     1.0000 0.19435  0.03442  0.07438  Biso   1.000  C
  C973     1.0000 0.11377  0.05495  0.13200  Biso   1.000  C
  C974     1.0000 0.13200  0.11377  0.05499  Biso   1.000  C
  C975     1.0000 0.13200  0.11377  0.05495  Biso   1.000  C
  C976     1.0000 0.07438  0.19435  0.03446  Biso   1.000  C
  C977     1.0000 0.05499  0.13204  0.11377  Biso   1.000  C
  C978     1.0000 0.07438  0.19435  0.03442  Biso   1.000  C
  C979     1.0000 0.05499  0.13200  0.11377  Biso   1.000  C
  C980     1.0000 0.05495  0.13204  0.11377  Biso   1.000  C
  C981     1.0000 0.05495  0.13200  0.11377  Biso   1.000  C
  C982     1.0000 0.06801  0.08662  0.14576  Biso   1.000  C
  H966     1.0000 0.12309  0.02411  0.15402  Biso   1.000  H
  H967     1.0000 0.12309  0.02411  0.15398  Biso   1.000  H
  H968     1.0000 0.20088  0.00238  0.09570  Biso   1.000  H
  N298     1.0000 0.22803  0.04674  0.03614  Biso   1.000  N
  N299     1.0000 0.22803  0.04674  0.03610  Biso   1.000  N
  N300     1.0000 0.22803  0.04670  0.03614  Biso   1.000  N
  N301     1.0000 0.22803  0.04670  0.03610  Biso   1.000  N
  H969     1.0000 0.09570  0.20088  0.00238  Biso   1.000  H
  N302     1.0000 0.03614  0.22803  0.04674  Biso   1.000  N
  N303     1.0000 0.03614  0.22803  0.04670  Biso   1.000  N
  N304     1.0000 0.03610  0.22803  0.04674  Biso   1.000  N
  N305     1.0000 0.03610  0.22803  0.04670  Biso   1.000  N
  H970     1.0000 0.02411  0.15402  0.12309  Biso   1.000  H
  H971     1.0000 0.02411  0.15398  0.12309  Biso   1.000  H
  C983     1.0000 0.03446  0.07438  0.19435  Biso   1.000  C
  C984     1.0000 0.03442  0.07438  0.19435  Biso   1.000  C
  C985     1.0000 0.27526  0.01060  0.02941  Biso   1.000  C
  C986     1.0000 0.27526  0.01056  0.02941  Biso   1.000  C
  C987     1.0000 0.02941  0.27526  0.01060  Biso   1.000  C
  C988     1.0000 0.02941  0.27526  0.01056  Biso   1.000  C
  H972     1.0000 0.00238  0.09570  0.20088  Biso   1.000  H
  N306     1.0000 0.04674  0.03614  0.22803  Biso   1.000  N
  N307     1.0000 0.04674  0.03610  0.22803  Biso   1.000  N
  N308     1.0000 0.04670  0.03614  0.22803  Biso   1.000  N
  N309     1.0000 0.04670  0.03610  0.22803  Biso   1.000  N
  H973     1.0000 0.30959  0.03101  0.03688  Biso   1.000  H
  C989     1.0000 0.27526  0.98940  0.97059  Biso   1.000  C
  H974     1.0000 0.27292  0.97951  0.05540  Biso   1.000  H
  H975     1.0000 0.27288  0.97951  0.05540  Biso   1.000  H
  H976     1.0000 0.03688  0.30959  0.03101  Biso   1.000  H
  C990     1.0000 0.97059  0.27526  0.98940  Biso   1.000  C
  H977     1.0000 0.05540  0.27292  0.97951  Biso   1.000  H
  H978     1.0000 0.05540  0.27288  0.97951  Biso   1.000  H
  C991     1.0000 0.01060  0.02941  0.27526  Biso   1.000  C
  C992     1.0000 0.01056  0.02941  0.27526  Biso   1.000  C
  N310     1.0000 0.22803  0.95326  0.96386  Biso   1.000  N
  H979     1.0000 0.30959  0.96899  0.96312  Biso   1.000  H
  H980     1.0000 0.30959  0.96899  0.96308  Biso   1.000  H
  H981     1.0000 0.27292  0.02049  0.94460  Biso   1.000  H
  H982     1.0000 0.27288  0.02049  0.94460  Biso   1.000  H
  N311     1.0000 0.96386  0.22803  0.95326  Biso   1.000  N
  H983     1.0000 0.96312  0.30959  0.96899  Biso   1.000  H
  H984     1.0000 0.96308  0.30959  0.96899  Biso   1.000  H
  H985     1.0000 0.94460  0.27292  0.02049  Biso   1.000  H
  H986     1.0000 0.94460  0.27288  0.02049  Biso   1.000  H
  H987     1.0000 0.03101  0.03688  0.30959  Biso   1.000  H
  C993     1.0000 0.98940  0.97059  0.27526  Biso   1.000  C
  H988     1.0000 0.97951  0.05540  0.27292  Biso   1.000  H
  H989     1.0000 0.97951  0.05540  0.27288  Biso   1.000  H
  C994     1.0000 0.19435  0.96554  0.92562  Biso   1.000  C
  C995     1.0000 0.92562  0.19435  0.96554  Biso   1.000  C
  N312     1.0000 0.95326  0.96386  0.22803  Biso   1.000  N
  H990     1.0000 0.96899  0.96312  0.30959  Biso   1.000  H
  H991     1.0000 0.96899  0.96308  0.30959  Biso   1.000  H
  H992     1.0000 0.02049  0.94460  0.27292  Biso   1.000  H
  H993     1.0000 0.02049  0.94460  0.27288  Biso   1.000  H
  C996     1.0000 0.14576  0.93199  0.91338  Biso   1.000  C
  H994     1.0000 0.20088  0.99762  0.90430  Biso   1.000  H
  C997     1.0000 0.14576  0.93199  0.91334  Biso   1.000  C
  H995     1.0000 0.20088  0.99758  0.90430  Biso   1.000  H
  C998     1.0000 0.91338  0.14576  0.93199  Biso   1.000  C
  H996     1.0000 0.90430  0.20088  0.99762  Biso   1.000  H
  H997     1.0000 0.90430  0.20088  0.99758  Biso   1.000  H
  C999     1.0000 0.91334  0.14576  0.93199  Biso   1.000  C
  C1000    1.0000 0.96554  0.92562  0.19435  Biso   1.000  C
  C1001    1.0000 0.11377  0.94501  0.86796  Biso   1.000  C
  C1002    1.0000 0.13204  0.88623  0.94501  Biso   1.000  C
  C1003    1.0000 0.13200  0.88623  0.94501  Biso   1.000  C
  C1004    1.0000 0.86796  0.11377  0.94501  Biso   1.000  C
  C1005    1.0000 0.94501  0.13204  0.88623  Biso   1.000  C
  C1006    1.0000 0.94501  0.13200  0.88623  Biso   1.000  C
  C1007    1.0000 0.93199  0.91338  0.14576  Biso   1.000  C
  H998     1.0000 0.99762  0.90430  0.20088  Biso   1.000  H
  C1008    1.0000 0.93199  0.91334  0.14576  Biso   1.000  C
  H999     1.0000 0.99758  0.90430  0.20088  Biso   1.000  H
  H1000    1.0000 0.12309  0.97589  0.84598  Biso   1.000  H
  C1009    1.0000 0.06801  0.91338  0.85424  Biso   1.000  C
  C1010    1.0000 0.06801  0.91334  0.85424  Biso   1.000  C
  H1001    1.0000 0.15402  0.87691  0.97589  Biso   1.000  H
  C1011    1.0000 0.08662  0.85424  0.93199  Biso   1.000  C
  H1002    1.0000 0.15398  0.87691  0.97589  Biso   1.000  H
  H1003    1.0000 0.84598  0.12309  0.97589  Biso   1.000  H
  C1012    1.0000 0.85424  0.06801  0.91338  Biso   1.000  C
  C1013    1.0000 0.85424  0.06801  0.91334  Biso   1.000  C
  H1004    1.0000 0.97589  0.15402  0.87691  Biso   1.000  H
  C1014    1.0000 0.93199  0.08662  0.85424  Biso   1.000  C
  H1005    1.0000 0.97589  0.15398  0.87691  Biso   1.000  H
  C1015    1.0000 0.94501  0.86796  0.11377  Biso   1.000  C
  C1016    1.0000 0.88623  0.94501  0.13204  Biso   1.000  C
  C1017    1.0000 0.88623  0.94501  0.13200  Biso   1.000  C
  C1018    1.0000 0.05499  0.86796  0.88623  Biso   1.000  C
  C1019    1.0000 0.03446  0.92562  0.80565  Biso   1.000  C
  C1020    1.0000 0.05495  0.86796  0.88623  Biso   1.000  C
  C1021    1.0000 0.03442  0.92562  0.80565  Biso   1.000  C
  C1022    1.0000 0.07438  0.80565  0.96554  Biso   1.000  C
  C1023    1.0000 0.88623  0.05499  0.86796  Biso   1.000  C
  C1024    1.0000 0.80565  0.03446  0.92562  Biso   1.000  C
  C1025    1.0000 0.88623  0.05495  0.86796  Biso   1.000  C
  C1026    1.0000 0.80565  0.03442  0.92562  Biso   1.000  C
  C1027    1.0000 0.96554  0.07438  0.80565  Biso   1.000  C
  H1006    1.0000 0.97589  0.84598  0.12309  Biso   1.000  H
  C1028    1.0000 0.91338  0.85424  0.06801  Biso   1.000  C
  C1029    1.0000 0.91334  0.85424  0.06801  Biso   1.000  C
  H1007    1.0000 0.87691  0.97589  0.15402  Biso   1.000  H
  C1030    1.0000 0.85424  0.93199  0.08662  Biso   1.000  C
  H1008    1.0000 0.87691  0.97589  0.15398  Biso   1.000  H
  H1009    1.0000 0.02411  0.84598  0.87691  Biso   1.000  H
  N313     1.0000 0.04674  0.96386  0.77197  Biso   1.000  N
  H1010    1.0000 0.00238  0.90430  0.79912  Biso   1.000  H
  H1011    1.0000 0.00238  0.90430  0.79908  Biso   1.000  H
  N314     1.0000 0.04670  0.96386  0.77197  Biso   1.000  N
  N315     1.0000 0.03614  0.77197  0.95326  Biso   1.000  N
  H1012    1.0000 0.09570  0.79912  0.99762  Biso   1.000  H
  H1013    1.0000 0.09570  0.79912  0.99758  Biso   1.000  H
  H1014    1.0000 0.09570  0.79908  0.99762  Biso   1.000  H
  H1015    1.0000 0.09570  0.79908  0.99758  Biso   1.000  H
  N316     1.0000 0.03610  0.77197  0.95326  Biso   1.000  N
  H1016    1.0000 0.87691  0.02411  0.84598  Biso   1.000  H
  N317     1.0000 0.77197  0.04674  0.96386  Biso   1.000  N
  H1017    1.0000 0.79912  0.00238  0.90430  Biso   1.000  H
  N318     1.0000 0.77197  0.04670  0.96386  Biso   1.000  N
  H1018    1.0000 0.79908  0.00238  0.90430  Biso   1.000  H
  N319     1.0000 0.95326  0.03614  0.77197  Biso   1.000  N
  H1019    1.0000 0.99762  0.09570  0.79912  Biso   1.000  H
  H1020    1.0000 0.99762  0.09570  0.79908  Biso   1.000  H
  N320     1.0000 0.95326  0.03610  0.77197  Biso   1.000  N
  H1021    1.0000 0.99758  0.09570  0.79912  Biso   1.000  H
  H1022    1.0000 0.99758  0.09570  0.79908  Biso   1.000  H
  C1031    1.0000 0.86796  0.88623  0.05499  Biso   1.000  C
  C1032    1.0000 0.92562  0.80565  0.03446  Biso   1.000  C
  C1033    1.0000 0.86796  0.88623  0.05495  Biso   1.000  C
  C1034    1.0000 0.92562  0.80565  0.03442  Biso   1.000  C
  C1035    1.0000 0.80565  0.96554  0.07438  Biso   1.000  C
  C1036    1.0000 0.01060  0.97059  0.72474  Biso   1.000  C
  C1037    1.0000 0.01056  0.97059  0.72474  Biso   1.000  C
  C1038    1.0000 0.02941  0.72474  0.98940  Biso   1.000  C
  C1039    1.0000 0.72474  0.01060  0.97059  Biso   1.000  C
  C1040    1.0000 0.72474  0.01056  0.97059  Biso   1.000  C
  C1041    1.0000 0.98940  0.02941  0.72474  Biso   1.000  C
  H1023    1.0000 0.84598  0.87691  0.02411  Biso   1.000  H
  N321     1.0000 0.96386  0.77197  0.04674  Biso   1.000  N
  H1024    1.0000 0.90430  0.79912  0.00238  Biso   1.000  H
  N322     1.0000 0.96386  0.77197  0.04670  Biso   1.000  N
  H1025    1.0000 0.90430  0.79908  0.00238  Biso   1.000  H
  N323     1.0000 0.77197  0.95326  0.03614  Biso   1.000  N
  H1026    1.0000 0.79912  0.99762  0.09570  Biso   1.000  H
  N324     1.0000 0.77197  0.95326  0.03610  Biso   1.000  N
  H1027    1.0000 0.79912  0.99758  0.09570  Biso   1.000  H
  H1028    1.0000 0.79908  0.99762  0.09570  Biso   1.000  H
  H1029    1.0000 0.79908  0.99758  0.09570  Biso   1.000  H
  H1030    1.0000 0.97951  0.94460  0.72708  Biso   1.000  H
  H1031    1.0000 0.03101  0.96312  0.69041  Biso   1.000  H
  H1032    1.0000 0.03101  0.96308  0.69041  Biso   1.000  H
  C1042    1.0000 0.97059  0.72474  0.01060  Biso   1.000  C
  C1043    1.0000 0.97059  0.72474  0.01056  Biso   1.000  C
  H1033    1.0000 0.03688  0.69041  0.96899  Biso   1.000  H
  H1034    1.0000 0.05540  0.72708  0.02049  Biso   1.000  H
  C1044    1.0000 0.72474  0.98940  0.02941  Biso   1.000  C
  H1035    1.0000 0.72708  0.97951  0.94460  Biso   1.000  H
  H1036    1.0000 0.69041  0.03101  0.96312  Biso   1.000  H
  H1037    1.0000 0.69041  0.03101  0.96308  Biso   1.000  H
  H1038    1.0000 0.96899  0.03688  0.69041  Biso   1.000  H
  H1039    1.0000 0.02049  0.05540  0.72708  Biso   1.000  H
  H1040    1.0000 0.94460  0.72708  0.97951  Biso   1.000  H
  H1041    1.0000 0.96312  0.69041  0.03101  Biso   1.000  H
  H1042    1.0000 0.96308  0.69041  0.03101  Biso   1.000  H
  H1043    1.0000 0.69041  0.96899  0.03688  Biso   1.000  H
  H1044    1.0000 0.72708  0.02049  0.05540  Biso   1.000  H
  C1045    1.0000 0.67611  0.55561  0.28429  Biso   1.000  C
  N325     1.0000 0.71271  0.52045  0.29830  Biso   1.000  N
  C1046    1.0000 0.66227  0.60375  0.31838  Biso   1.000  C
  H1045    1.0000 0.65710  0.55039  0.25062  Biso   1.000  H
  C1047    1.0000 0.72068  0.47462  0.26068  Biso   1.000  C
  C1048    1.0000 0.61750  0.63541  0.30512  Biso   1.000  C
  C1049    1.0000 0.69488  0.61750  0.36455  Biso   1.000  C
  H1046    1.0000 0.69468  0.47778  0.22959  Biso   1.000  H
  H1047    1.0000 0.71308  0.43958  0.27998  Biso   1.000  H
  C1050    1.0000 0.77928  0.47462  0.23928  Biso   1.000  C
  C1051    1.0000 0.60375  0.68162  0.33769  Biso   1.000  C
  H1048    1.0000 0.59578  0.62629  0.27399  Biso   1.000  H
  H1049    1.0000 0.72601  0.59578  0.37371  Biso   1.000  H
  C1052    1.0000 0.68162  0.66227  0.39621  Biso   1.000  C
  N326     1.0000 0.78729  0.52045  0.20170  Biso   1.000  N
  H1050    1.0000 0.80528  0.47778  0.27041  Biso   1.000  H
  H1051    1.0000 0.78688  0.43958  0.22002  Biso   1.000  H
  C1053    1.0000 0.63541  0.69488  0.38250  Biso   1.000  C
  C1054    1.0000 0.55561  0.71571  0.32389  Biso   1.000  C
  C1055    1.0000 0.71571  0.67611  0.44439  Biso   1.000  C
  C1056    1.0000 0.82389  0.55561  0.21571  Biso   1.000  C
  H1052    1.0000 0.62629  0.72601  0.40418  Biso   1.000  H
  N327     1.0000 0.52045  0.70170  0.28729  Biso   1.000  N
  H1053    1.0000 0.55039  0.74938  0.34290  Biso   1.000  H
  N328     1.0000 0.70170  0.71271  0.47955  Biso   1.000  N
  H1054    1.0000 0.74938  0.65710  0.44961  Biso   1.000  H
  C1057    1.0000 0.83769  0.60375  0.18162  Biso   1.000  C
  H1055    1.0000 0.84290  0.55039  0.24938  Biso   1.000  H
  C1058    1.0000 0.47462  0.73928  0.27928  Biso   1.000  C
  C1059    1.0000 0.73928  0.72068  0.52538  Biso   1.000  C
  C1060    1.0000 0.80508  0.61750  0.13541  Biso   1.000  C
  C1061    1.0000 0.88245  0.63541  0.19488  Biso   1.000  C
  C1062    1.0000 0.47462  0.76068  0.22072  Biso   1.000  C
  H1056    1.0000 0.47778  0.77041  0.30528  Biso   1.000  H
  H1057    1.0000 0.43958  0.71998  0.28688  Biso   1.000  H
  H1058    1.0000 0.77041  0.69468  0.52218  Biso   1.000  H
  H1059    1.0000 0.71998  0.71308  0.56042  Biso   1.000  H
  C1063    1.0000 0.76068  0.77928  0.52538  Biso   1.000  C
  H1060    1.0000 0.77399  0.59578  0.12629  Biso   1.000  H
  C1064    1.0000 0.81838  0.66227  0.10379  Biso   1.000  C
  H1061    1.0000 0.90418  0.62629  0.22601  Biso   1.000  H
  C1065    1.0000 0.89621  0.68162  0.16227  Biso   1.000  C
  N329     1.0000 0.52045  0.79830  0.21271  Biso   1.000  N
  H1062    1.0000 0.47778  0.72959  0.19472  Biso   1.000  H
  H1063    1.0000 0.43958  0.77998  0.21312  Biso   1.000  H
  N330     1.0000 0.79830  0.78729  0.47955  Biso   1.000  N
  H1064    1.0000 0.72959  0.80528  0.52218  Biso   1.000  H
  H1065    1.0000 0.77998  0.78688  0.56042  Biso   1.000  H
  C1066    1.0000 0.78429  0.67611  0.05561  Biso   1.000  C
  C1067    1.0000 0.86455  0.69488  0.11750  Biso   1.000  C
  C1068    1.0000 0.94439  0.71571  0.17611  Biso   1.000  C
  C1069    1.0000 0.55561  0.78429  0.17611  Biso   1.000  C
  C1070    1.0000 0.78429  0.82389  0.44439  Biso   1.000  C
  N331     1.0000 0.79830  0.71271  0.02045  Biso   1.000  N
  H1066    1.0000 0.75057  0.65710  0.05039  Biso   1.000  H
  H1067    1.0000 0.87371  0.72601  0.09582  Biso   1.000  H
  N332     1.0000 0.97955  0.70170  0.21271  Biso   1.000  N
  H1068    1.0000 0.94961  0.74938  0.15710  Biso   1.000  H
  C1071    1.0000 0.60375  0.81838  0.16227  Biso   1.000  C
  H1069    1.0000 0.55039  0.75057  0.15710  Biso   1.000  H
  C1072    1.0000 0.81838  0.83769  0.39621  Biso   1.000  C
  H1070    1.0000 0.75057  0.84290  0.44961  Biso   1.000  H
  C1073    1.0000 0.76068  0.72068  0.97462  Biso   1.000  C
  C1074    1.0000 0.02538  0.73928  0.22072  Biso   1.000  C
  C1075    1.0000 0.63541  0.80508  0.11750  Biso   1.000  C
  C1076    1.0000 0.61750  0.86455  0.19488  Biso   1.000  C
  C1077    1.0000 0.80508  0.88245  0.36455  Biso   1.000  C
  C1078    1.0000 0.86455  0.80508  0.38250  Biso   1.000  C
  C1079    1.0000 0.73928  0.77928  0.97462  Biso   1.000  C
  H1071    1.0000 0.72959  0.69468  0.97778  Biso   1.000  H
  H1072    1.0000 0.77998  0.71308  0.93958  Biso   1.000  H
  C1080    1.0000 0.02538  0.76068  0.27928  Biso   1.000  C
  H1073    1.0000 0.02218  0.77041  0.19472  Biso   1.000  H
  H1074    1.0000 0.06037  0.71998  0.21312  Biso   1.000  H
  C1081    1.0000 0.68162  0.83769  0.10379  Biso   1.000  C
  H1075    1.0000 0.62629  0.77399  0.09582  Biso   1.000  H
  H1076    1.0000 0.59578  0.87371  0.22601  Biso   1.000  H
  C1082    1.0000 0.66227  0.89621  0.18162  Biso   1.000  C
  C1083    1.0000 0.83769  0.89621  0.31838  Biso   1.000  C
  H1077    1.0000 0.77399  0.90418  0.37371  Biso   1.000  H
  C1084    1.0000 0.89621  0.81838  0.33769  Biso   1.000  C
  H1078    1.0000 0.87371  0.77399  0.40418  Biso   1.000  H
  N333     1.0000 0.70170  0.78729  0.02045  Biso   1.000  N
  H1079    1.0000 0.77041  0.80528  0.97778  Biso   1.000  H
  H1080    1.0000 0.71998  0.78688  0.93958  Biso   1.000  H
  N334     1.0000 0.97955  0.79830  0.28729  Biso   1.000  N
  H1081    1.0000 0.02218  0.72959  0.30528  Biso   1.000  H
  H1082    1.0000 0.06037  0.77998  0.28688  Biso   1.000  H
  C1085    1.0000 0.71571  0.82389  0.05561  Biso   1.000  C
  C1086    1.0000 0.69488  0.88245  0.13541  Biso   1.000  C
  C1087    1.0000 0.67611  0.94439  0.21571  Biso   1.000  C
  C1088    1.0000 0.88245  0.86455  0.30512  Biso   1.000  C
  C1089    1.0000 0.82389  0.94439  0.28429  Biso   1.000  C
  C1090    1.0000 0.94439  0.78429  0.32389  Biso   1.000  C
  H1083    1.0000 0.74938  0.84290  0.05039  Biso   1.000  H
  H1084    1.0000 0.72601  0.90418  0.12629  Biso   1.000  H
  N335     1.0000 0.71271  0.97955  0.20170  Biso   1.000  N
  H1085    1.0000 0.65710  0.94961  0.24938  Biso   1.000  H
  H1086    1.0000 0.90418  0.87371  0.27399  Biso   1.000  H
  N336     1.0000 0.78729  0.97955  0.29830  Biso   1.000  N
  H1087    1.0000 0.84290  0.94961  0.25062  Biso   1.000  H
  H1088    1.0000 0.94961  0.75057  0.34290  Biso   1.000  H
  C1091    1.0000 0.72068  0.02538  0.23928  Biso   1.000  C
  C1092    1.0000 0.77928  0.02538  0.26068  Biso   1.000  C
  H1089    1.0000 0.69468  0.02218  0.27041  Biso   1.000  H
  H1090    1.0000 0.71308  0.06037  0.22002  Biso   1.000  H
  H1091    1.0000 0.80528  0.02218  0.22959  Biso   1.000  H
  H1092    1.0000 0.78688  0.06037  0.27998  Biso   1.000  H
  C1093    1.0000 0.55561  0.28429  0.67611  Biso   1.000  C
  N337     1.0000 0.52045  0.29830  0.71271  Biso   1.000  N
  C1094    1.0000 0.60375  0.31838  0.66227  Biso   1.000  C
  H1093    1.0000 0.55039  0.25062  0.65710  Biso   1.000  H
  C1095    1.0000 0.47462  0.26068  0.72068  Biso   1.000  C
  C1096    1.0000 0.63541  0.30512  0.61750  Biso   1.000  C
  C1097    1.0000 0.61750  0.36455  0.69488  Biso   1.000  C
  C1098    1.0000 0.47462  0.23928  0.77928  Biso   1.000  C
  H1094    1.0000 0.47778  0.22959  0.69468  Biso   1.000  H
  H1095    1.0000 0.43958  0.27998  0.71308  Biso   1.000  H
  H1096    1.0000 0.62629  0.27399  0.59578  Biso   1.000  H
  C1099    1.0000 0.68162  0.33769  0.60375  Biso   1.000  C
  H1097    1.0000 0.59578  0.37371  0.72601  Biso   1.000  H
  C1100    1.0000 0.66227  0.39621  0.68162  Biso   1.000  C
  N338     1.0000 0.52045  0.20170  0.78729  Biso   1.000  N
  H1098    1.0000 0.47778  0.27041  0.80528  Biso   1.000  H
  H1099    1.0000 0.43958  0.22002  0.78688  Biso   1.000  H
  C1101    1.0000 0.69488  0.38250  0.63541  Biso   1.000  C
  C1102    1.0000 0.71571  0.32389  0.55561  Biso   1.000  C
  C1103    1.0000 0.67611  0.44439  0.71571  Biso   1.000  C
  C1104    1.0000 0.55561  0.21571  0.82389  Biso   1.000  C
  H1100    1.0000 0.72601  0.40418  0.62629  Biso   1.000  H
  N339     1.0000 0.70170  0.28729  0.52045  Biso   1.000  N
  H1101    1.0000 0.74938  0.34290  0.55039  Biso   1.000  H
  N340     1.0000 0.71271  0.47955  0.70170  Biso   1.000  N
  H1102    1.0000 0.65710  0.44961  0.74938  Biso   1.000  H
  C1105    1.0000 0.60375  0.18162  0.83769  Biso   1.000  C
  H1103    1.0000 0.55039  0.24938  0.84290  Biso   1.000  H
  C1106    1.0000 0.73928  0.27928  0.47462  Biso   1.000  C
  C1107    1.0000 0.72068  0.52538  0.73928  Biso   1.000  C
  C1108    1.0000 0.63541  0.19488  0.88245  Biso   1.000  C
  C1109    1.0000 0.61750  0.13541  0.80508  Biso   1.000  C
  H1104    1.0000 0.77041  0.30528  0.47778  Biso   1.000  H
  H1105    1.0000 0.71998  0.28688  0.43958  Biso   1.000  H
  C1110    1.0000 0.76068  0.22072  0.47462  Biso   1.000  C
  H1106    1.0000 0.69468  0.52218  0.77041  Biso   1.000  H
  H1107    1.0000 0.71308  0.56042  0.71998  Biso   1.000  H
  C1111    1.0000 0.77928  0.52538  0.76068  Biso   1.000  C
  H1108    1.0000 0.62629  0.22601  0.90418  Biso   1.000  H
  C1112    1.0000 0.68162  0.16227  0.89621  Biso   1.000  C
  H1109    1.0000 0.59578  0.12629  0.77399  Biso   1.000  H
  C1113    1.0000 0.66227  0.10379  0.81838  Biso   1.000  C
  N341     1.0000 0.79830  0.21271  0.52045  Biso   1.000  N
  H1110    1.0000 0.72959  0.19472  0.47778  Biso   1.000  H
  H1111    1.0000 0.77998  0.21312  0.43958  Biso   1.000  H
  N342     1.0000 0.78729  0.47955  0.79830  Biso   1.000  N
  H1112    1.0000 0.80528  0.52218  0.72959  Biso   1.000  H
  H1113    1.0000 0.78688  0.56042  0.77998  Biso   1.000  H
  C1114    1.0000 0.69488  0.11750  0.86455  Biso   1.000  C
  C1115    1.0000 0.71571  0.17611  0.94439  Biso   1.000  C
  C1116    1.0000 0.67611  0.05561  0.78429  Biso   1.000  C
  C1117    1.0000 0.78429  0.17611  0.55561  Biso   1.000  C
  C1118    1.0000 0.82389  0.44439  0.78429  Biso   1.000  C
  H1114    1.0000 0.72601  0.09582  0.87371  Biso   1.000  H
  N343     1.0000 0.70170  0.21271  0.97955  Biso   1.000  N
  H1115    1.0000 0.74938  0.15710  0.94961  Biso   1.000  H
  N344     1.0000 0.71271  0.02045  0.79830  Biso   1.000  N
  H1116    1.0000 0.65710  0.05039  0.75057  Biso   1.000  H
  C1119    1.0000 0.81838  0.16227  0.60375  Biso   1.000  C
  H1117    1.0000 0.75057  0.15710  0.55039  Biso   1.000  H
  C1120    1.0000 0.83769  0.39621  0.81838  Biso   1.000  C
  H1118    1.0000 0.84290  0.44961  0.75057  Biso   1.000  H
  C1121    1.0000 0.73928  0.22072  0.02538  Biso   1.000  C
  C1122    1.0000 0.72068  0.97462  0.76068  Biso   1.000  C
  C1123    1.0000 0.80508  0.11750  0.63541  Biso   1.000  C
  C1124    1.0000 0.86455  0.19488  0.61750  Biso   1.000  C
  C1125    1.0000 0.80508  0.38250  0.86455  Biso   1.000  C
  C1126    1.0000 0.88245  0.36455  0.80508  Biso   1.000  C
  H1119    1.0000 0.77041  0.19472  0.02218  Biso   1.000  H
  H1120    1.0000 0.71998  0.21312  0.06037  Biso   1.000  H
  C1127    1.0000 0.76068  0.27928  0.02538  Biso   1.000  C
  H1121    1.0000 0.69468  0.97778  0.72959  Biso   1.000  H
  H1122    1.0000 0.71308  0.93958  0.77998  Biso   1.000  H
  C1128    1.0000 0.77928  0.97462  0.73928  Biso   1.000  C
  C1129    1.0000 0.83769  0.10379  0.68162  Biso   1.000  C
  H1123    1.0000 0.77399  0.09582  0.62629  Biso   1.000  H
  H1124    1.0000 0.87371  0.22601  0.59578  Biso   1.000  H
  C1130    1.0000 0.89621  0.18162  0.66227  Biso   1.000  C
  C1131    1.0000 0.81838  0.33769  0.89621  Biso   1.000  C
  H1125    1.0000 0.77399  0.40418  0.87371  Biso   1.000  H
  H1126    1.0000 0.90418  0.37371  0.77399  Biso   1.000  H
  C1132    1.0000 0.89621  0.31838  0.83769  Biso   1.000  C
  N345     1.0000 0.79830  0.28729  0.97955  Biso   1.000  N
  H1127    1.0000 0.72959  0.30528  0.02218  Biso   1.000  H
  H1128    1.0000 0.77998  0.28688  0.06037  Biso   1.000  H
  N346     1.0000 0.78729  0.02045  0.70170  Biso   1.000  N
  H1129    1.0000 0.80528  0.97778  0.77041  Biso   1.000  H
  H1130    1.0000 0.78688  0.93958  0.71998  Biso   1.000  H
  C1133    1.0000 0.82389  0.05561  0.71571  Biso   1.000  C
  C1134    1.0000 0.88245  0.13541  0.69488  Biso   1.000  C
  C1135    1.0000 0.94439  0.21571  0.67611  Biso   1.000  C
  C1136    1.0000 0.78429  0.32389  0.94439  Biso   1.000  C
  C1137    1.0000 0.86455  0.30512  0.88245  Biso   1.000  C
  C1138    1.0000 0.94439  0.28429  0.82389  Biso   1.000  C
  H1131    1.0000 0.84290  0.05039  0.74938  Biso   1.000  H
  H1132    1.0000 0.90418  0.12629  0.72601  Biso   1.000  H
  N347     1.0000 0.97955  0.20170  0.71271  Biso   1.000  N
  H1133    1.0000 0.94961  0.24938  0.65710  Biso   1.000  H
  H1134    1.0000 0.75057  0.34290  0.94961  Biso   1.000  H
  H1135    1.0000 0.87371  0.27399  0.90418  Biso   1.000  H
  N348     1.0000 0.97955  0.29830  0.78729  Biso   1.000  N
  H1136    1.0000 0.94961  0.25062  0.84290  Biso   1.000  H
  C1139    1.0000 0.02538  0.23928  0.72068  Biso   1.000  C
  C1140    1.0000 0.02538  0.26068  0.77928  Biso   1.000  C
  H1137    1.0000 0.02218  0.27041  0.69468  Biso   1.000  H
  H1138    1.0000 0.06037  0.22002  0.71308  Biso   1.000  H
  H1139    1.0000 0.02218  0.22959  0.80528  Biso   1.000  H
  H1140    1.0000 0.06037  0.27998  0.78688  Biso   1.000  H
  C1141    1.0000 0.28429  0.67611  0.55561  Biso   1.000  C
  N349     1.0000 0.29830  0.71271  0.52045  Biso   1.000  N
  C1142    1.0000 0.31838  0.66227  0.60375  Biso   1.000  C
  H1141    1.0000 0.25062  0.65710  0.55039  Biso   1.000  H
  C1143    1.0000 0.26068  0.72068  0.47462  Biso   1.000  C
  C1144    1.0000 0.36455  0.69488  0.61750  Biso   1.000  C
  C1145    1.0000 0.30512  0.61750  0.63541  Biso   1.000  C
  H1142    1.0000 0.22959  0.69468  0.47778  Biso   1.000  H
  H1143    1.0000 0.27998  0.71308  0.43958  Biso   1.000  H
  C1146    1.0000 0.23928  0.77928  0.47462  Biso   1.000  C
  H1144    1.0000 0.37371  0.72601  0.59578  Biso   1.000  H
  C1147    1.0000 0.39621  0.68162  0.66227  Biso   1.000  C
  C1148    1.0000 0.33769  0.60375  0.68162  Biso   1.000  C
  H1145    1.0000 0.27399  0.59578  0.62629  Biso   1.000  H
  N350     1.0000 0.20170  0.78729  0.52045  Biso   1.000  N
  H1146    1.0000 0.27041  0.80528  0.47778  Biso   1.000  H
  H1147    1.0000 0.22002  0.78688  0.43958  Biso   1.000  H
  C1149    1.0000 0.44439  0.71571  0.67611  Biso   1.000  C
  C1150    1.0000 0.38250  0.63541  0.69488  Biso   1.000  C
  C1151    1.0000 0.32389  0.55561  0.71571  Biso   1.000  C
  C1152    1.0000 0.21571  0.82389  0.55561  Biso   1.000  C
  N351     1.0000 0.47955  0.70170  0.71271  Biso   1.000  N
  H1148    1.0000 0.44961  0.74938  0.65710  Biso   1.000  H
  H1149    1.0000 0.40418  0.62629  0.72601  Biso   1.000  H
  N352     1.0000 0.28729  0.52045  0.70170  Biso   1.000  N
  H1150    1.0000 0.34290  0.55039  0.74938  Biso   1.000  H
  C1153    1.0000 0.18162  0.83769  0.60375  Biso   1.000  C
  H1151    1.0000 0.24938  0.84290  0.55039  Biso   1.000  H
  C1154    1.0000 0.52538  0.73928  0.72068  Biso   1.000  C
  C1155    1.0000 0.27928  0.47462  0.73928  Biso   1.000  C
  C1156    1.0000 0.19488  0.88245  0.63541  Biso   1.000  C
  C1157    1.0000 0.13541  0.80508  0.61750  Biso   1.000  C
  C1158    1.0000 0.52538  0.76068  0.77928  Biso   1.000  C
  H1152    1.0000 0.52218  0.77041  0.69468  Biso   1.000  H
  H1153    1.0000 0.56042  0.71998  0.71308  Biso   1.000  H
  H1154    1.0000 0.30528  0.47778  0.77041  Biso   1.000  H
  H1155    1.0000 0.28688  0.43958  0.71998  Biso   1.000  H
  C1159    1.0000 0.22072  0.47462  0.76068  Biso   1.000  C
  C1160    1.0000 0.16227  0.89621  0.68162  Biso   1.000  C
  H1156    1.0000 0.22601  0.90418  0.62629  Biso   1.000  H
  H1157    1.0000 0.12629  0.77399  0.59578  Biso   1.000  H
  C1161    1.0000 0.10379  0.81838  0.66227  Biso   1.000  C
  N353     1.0000 0.47955  0.79830  0.78729  Biso   1.000  N
  H1158    1.0000 0.52218  0.72959  0.80528  Biso   1.000  H
  H1159    1.0000 0.56042  0.77998  0.78688  Biso   1.000  H
  N354     1.0000 0.21271  0.52045  0.79830  Biso   1.000  N
  H1160    1.0000 0.19472  0.47778  0.72959  Biso   1.000  H
  H1161    1.0000 0.21312  0.43958  0.77998  Biso   1.000  H
  C1162    1.0000 0.11750  0.86455  0.69488  Biso   1.000  C
  C1163    1.0000 0.17611  0.94439  0.71571  Biso   1.000  C
  C1164    1.0000 0.05561  0.78429  0.67611  Biso   1.000  C
  C1165    1.0000 0.44439  0.78429  0.82389  Biso   1.000  C
  C1166    1.0000 0.17611  0.55561  0.78429  Biso   1.000  C
  H1162    1.0000 0.09582  0.87371  0.72601  Biso   1.000  H
  N355     1.0000 0.21271  0.97955  0.70170  Biso   1.000  N
  H1163    1.0000 0.15710  0.94961  0.74938  Biso   1.000  H
  N356     1.0000 0.02045  0.79830  0.71271  Biso   1.000  N
  H1164    1.0000 0.05039  0.75057  0.65710  Biso   1.000  H
  C1167    1.0000 0.39621  0.81838  0.83769  Biso   1.000  C
  H1165    1.0000 0.44961  0.75057  0.84290  Biso   1.000  H
  C1168    1.0000 0.16227  0.60375  0.81838  Biso   1.000  C
  H1166    1.0000 0.15710  0.55039  0.75057  Biso   1.000  H
  C1169    1.0000 0.22072  0.02538  0.73928  Biso   1.000  C
  C1170    1.0000 0.97462  0.76068  0.72068  Biso   1.000  C
  C1171    1.0000 0.36455  0.80508  0.88245  Biso   1.000  C
  C1172    1.0000 0.38250  0.86455  0.80508  Biso   1.000  C
  C1173    1.0000 0.19488  0.61750  0.86455  Biso   1.000  C
  C1174    1.0000 0.11750  0.63541  0.80508  Biso   1.000  C
  C1175    1.0000 0.27928  0.02538  0.76068  Biso   1.000  C
  H1167    1.0000 0.19472  0.02218  0.77041  Biso   1.000  H
  H1168    1.0000 0.21312  0.06037  0.71998  Biso   1.000  H
  H1169    1.0000 0.97778  0.72959  0.69468  Biso   1.000  H
  H1170    1.0000 0.93958  0.77998  0.71308  Biso   1.000  H
  C1176    1.0000 0.97462  0.73928  0.77928  Biso   1.000  C
  H1171    1.0000 0.37371  0.77399  0.90418  Biso   1.000  H
  C1177    1.0000 0.31838  0.83769  0.89621  Biso   1.000  C
  C1178    1.0000 0.33769  0.89621  0.81838  Biso   1.000  C
  H1172    1.0000 0.40418  0.87371  0.77399  Biso   1.000  H
  H1173    1.0000 0.22601  0.59578  0.87371  Biso   1.000  H
  C1179    1.0000 0.18162  0.66227  0.89621  Biso   1.000  C
  C1180    1.0000 0.10379  0.68162  0.83769  Biso   1.000  C
  H1174    1.0000 0.09582  0.62629  0.77399  Biso   1.000  H
  N357     1.0000 0.28729  0.97955  0.79830  Biso   1.000  N
  H1175    1.0000 0.30528  0.02218  0.72959  Biso   1.000  H
  H1176    1.0000 0.28688  0.06037  0.77998  Biso   1.000  H
  N358     1.0000 0.02045  0.70170  0.78729  Biso   1.000  N
  H1177    1.0000 0.97778  0.77041  0.80528  Biso   1.000  H
  H1178    1.0000 0.93958  0.71998  0.78688  Biso   1.000  H
  C1181    1.0000 0.30512  0.88245  0.86455  Biso   1.000  C
  C1182    1.0000 0.28429  0.82389  0.94439  Biso   1.000  C
  C1183    1.0000 0.32389  0.94439  0.78429  Biso   1.000  C
  C1184    1.0000 0.13541  0.69488  0.88245  Biso   1.000  C
  C1185    1.0000 0.21571  0.67611  0.94439  Biso   1.000  C
  C1186    1.0000 0.05561  0.71571  0.82389  Biso   1.000  C
  H1179    1.0000 0.27399  0.90418  0.87371  Biso   1.000  H
  N359     1.0000 0.29830  0.78729  0.97955  Biso   1.000  N
  H1180    1.0000 0.25062  0.84290  0.94961  Biso   1.000  H
  H1181    1.0000 0.34290  0.94961  0.75057  Biso   1.000  H
  H1182    1.0000 0.12629  0.72601  0.90418  Biso   1.000  H
  N360     1.0000 0.20170  0.71271  0.97955  Biso   1.000  N
  H1183    1.0000 0.24938  0.65710  0.94961  Biso   1.000  H
  H1184    1.0000 0.05039  0.74938  0.84290  Biso   1.000  H
  C1187    1.0000 0.26068  0.77928  0.02538  Biso   1.000  C
  C1188    1.0000 0.23928  0.72068  0.02538  Biso   1.000  C
  H1185    1.0000 0.22959  0.80528  0.02218  Biso   1.000  H
  H1186    1.0000 0.27998  0.78688  0.06037  Biso   1.000  H
  H1187    1.0000 0.27041  0.69468  0.02218  Biso   1.000  H
  H1188    1.0000 0.22002  0.71308  0.06037  Biso   1.000  H
