data_image0
_cell_length_a       35.251
_cell_length_b       8.861
_cell_length_c       26.926
_cell_angle_alpha    90
_cell_angle_beta     116.66
_cell_angle_gamma    90

_symmetry_space_group_name_H-M    "P 1"
_symmetry_int_tables_number       1

loop_
  _symmetry_equiv_pos_as_xyz
  'x, y, z'

loop_
  _atom_site_label
  _atom_site_occupancy
  _atom_site_fract_x
  _atom_site_fract_y
  _atom_site_fract_z
  _atom_site_thermal_displace_type
  _atom_site_B_iso_or_equiv
  _atom_site_type_symbol
  C1       1.0000 0.55779  0.56946  0.61172  Biso   1.000  C
  C2       1.0000 0.57606  0.42320  0.64284  Biso   1.000  C
  C3       1.0000 0.58528  0.70669  0.63906  Biso   1.000  C
  H1       1.0000 0.55448  0.55987  0.57328  Biso   1.000  H
  H2       1.0000 0.52919  0.58549  0.60939  Biso   1.000  H
  C4       1.0000 0.54765  0.28834  0.61583  Biso   1.000  C
  H3       1.0000 0.58008  0.43325  0.68149  Biso   1.000  H
  H4       1.0000 0.60430  0.40526  0.64430  Biso   1.000  H
  H5       1.0000 0.58788  0.71798  0.67709  Biso   1.000  H
  H6       1.0000 0.61408  0.68954  0.64239  Biso   1.000  H
  C5       1.0000 0.56737  0.85306  0.60673  Biso   1.000  C
  N1       1.0000 0.50639  0.30764  0.61612  Biso   1.000  N
  H7       1.0000 0.56149  0.19524  0.63628  Biso   1.000  H
  H8       1.0000 0.54340  0.27762  0.57710  Biso   1.000  H
  N2       1.0000 0.52635  0.89019  0.60607  Biso   1.000  N
  H9       1.0000 0.56340  0.84144  0.56808  Biso   1.000  H
  H10      1.0000 0.58769  0.93658  0.62431  Biso   1.000  H
  C6       1.0000 0.47445  0.32141  0.56937  Biso   1.000  C
  C7       1.0000 0.49415  0.89098  0.56040  Biso   1.000  C
  C8       1.0000 0.43122  0.35222  0.56227  Biso   1.000  C
  H11      1.0000 0.47851  0.31125  0.53700  Biso   1.000  H
  C9       1.0000 0.45030  0.92552  0.55129  Biso   1.000  C
  H12      1.0000 0.49800  0.86740  0.52848  Biso   1.000  H
  C10      1.0000 0.39801  0.35572  0.50857  Biso   1.000  C
  C11      1.0000 0.42249  0.37603  0.60731  Biso   1.000  C
  C12      1.0000 0.41828  0.92698  0.49760  Biso   1.000  C
  C13      1.0000 0.44065  0.95745  0.59580  Biso   1.000  C
  C14      1.0000 0.35677  0.38585  0.49972  Biso   1.000  C
  H13      1.0000 0.40360  0.33743  0.47770  Biso   1.000  H
  C15      1.0000 0.38067  0.40469  0.59867  Biso   1.000  C
  H14      1.0000 0.44488  0.37264  0.64409  Biso   1.000  H
  C16      1.0000 0.37661  0.96400  0.48701  Biso   1.000  C
  H15      1.0000 0.42439  0.90283  0.46760  Biso   1.000  H
  C17      1.0000 0.39971  0.99075  0.58554  Biso   1.000  C
  H16      1.0000 0.46258  0.95565  0.63291  Biso   1.000  H
  C18      1.0000 0.32106  0.39093  0.44262  Biso   1.000  C
  C19      1.0000 0.34873  0.40887  0.54489  Biso   1.000  C
  C20      1.0000 0.37357  0.43347  0.64783  Biso   1.000  C
  C21      1.0000 0.34203  0.96784  0.42908  Biso   1.000  C
  C22      1.0000 0.36741  0.99357  0.53101  Biso   1.000  C
  C23      1.0000 0.39028  0.01591  0.63341  Biso   1.000  C
  N3       1.0000 0.32705  0.37027  0.40028  Biso   1.000  N
  H17      1.0000 0.29308  0.41022  0.43789  Biso   1.000  H
  H18      1.0000 0.32048  0.42817  0.53870  Biso   1.000  H
  N4       1.0000 0.33716  0.46101  0.64405  Biso   1.000  N
  H19      1.0000 0.39718  0.43133  0.68361  Biso   1.000  H
  N5       1.0000 0.34882  0.93996  0.38814  Biso   1.000  N
  H20      1.0000 0.31399  0.99199  0.42301  Biso   1.000  H
  H21      1.0000 0.33907  0.01591  0.52407  Biso   1.000  H
  N6       1.0000 0.35323  0.03972  0.62788  Biso   1.000  N
  H22      1.0000 0.41308  0.01388  0.66990  Biso   1.000  H
  C24      1.0000 0.28994  0.38100  0.34571  Biso   1.000  C
  C25      1.0000 0.33421  0.49317  0.69612  Biso   1.000  C
  C26      1.0000 0.31225  0.94244  0.33341  Biso   1.000  C
  C27      1.0000 0.34796  0.06015  0.67813  Biso   1.000  C
  H23      1.0000 0.28620  0.28451  0.32552  Biso   1.000  H
  H24      1.0000 0.26419  0.39928  0.35070  Biso   1.000  H
  C28      1.0000 0.29561  0.50818  0.31201  Biso   1.000  C
  H25      1.0000 0.31657  0.41530  0.70219  Biso   1.000  H
  H26      1.0000 0.36289  0.49035  0.72799  Biso   1.000  H
  C29      1.0000 0.31463  0.64733  0.69255  Biso   1.000  C
  C30      1.0000 0.30766  0.78908  0.30594  Biso   1.000  C
  H27      1.0000 0.28620  0.96626  0.33719  Biso   1.000  H
  H28      1.0000 0.31620  0.02156  0.31018  Biso   1.000  H
  C31      1.0000 0.32118  0.92845  0.68311  Biso   1.000  C
  H29      1.0000 0.37607  0.06207  0.71108  Biso   1.000  H
  H30      1.0000 0.33349  0.15732  0.67630  Biso   1.000  H
  H31      1.0000 0.27069  0.51044  0.27498  Biso   1.000  H
  H32      1.0000 0.32101  0.48708  0.30640  Biso   1.000  H
  C32      1.0000 0.30060  0.66189  0.33873  Biso   1.000  C
  H33      1.0000 0.28650  0.65004  0.65980  Biso   1.000  H
  H34      1.0000 0.31030  0.66336  0.72600  Biso   1.000  H
  C33      1.0000 0.34172  0.77565  0.68806  Biso   1.000  C
  H35      1.0000 0.33361  0.76775  0.30170  Biso   1.000  H
  H36      1.0000 0.28341  0.79235  0.26829  Biso   1.000  H
  H37      1.0000 0.29318  0.92834  0.64999  Biso   1.000  H
  H38      1.0000 0.31630  0.94515  0.71619  Biso   1.000  H
  H39      1.0000 0.27490  0.68435  0.34330  Biso   1.000  H
  H40      1.0000 0.32499  0.65873  0.37630  Biso   1.000  H
  H41      1.0000 0.34670  0.75872  0.65510  Biso   1.000  H
  H42      1.0000 0.36959  0.77497  0.72139  Biso   1.000  H
  C34      1.0000 0.44220  0.43054  0.38827  Biso   1.000  C
  C35      1.0000 0.41470  0.29331  0.36092  Biso   1.000  C
  H43      1.0000 0.44550  0.44013  0.42671  Biso   1.000  H
  H44      1.0000 0.47079  0.41451  0.39059  Biso   1.000  H
  C36      1.0000 0.42393  0.57680  0.35714  Biso   1.000  C
  H45      1.0000 0.41210  0.28202  0.32290  Biso   1.000  H
  H46      1.0000 0.38590  0.31046  0.35760  Biso   1.000  H
  C37      1.0000 0.43263  0.14694  0.39330  Biso   1.000  C
  H47      1.0000 0.41990  0.56675  0.31849  Biso   1.000  H
  H48      1.0000 0.39568  0.59474  0.35569  Biso   1.000  H
  C38      1.0000 0.45233  0.71166  0.38415  Biso   1.000  C
  N7       1.0000 0.47364  0.10981  0.39392  Biso   1.000  N
  H49      1.0000 0.43658  0.15856  0.43190  Biso   1.000  H
  H50      1.0000 0.41231  0.06342  0.37572  Biso   1.000  H
  N8       1.0000 0.49359  0.69236  0.38386  Biso   1.000  N
  H51      1.0000 0.43849  0.80476  0.36371  Biso   1.000  H
  H52      1.0000 0.45659  0.72238  0.42288  Biso   1.000  H
  C39      1.0000 0.50583  0.10902  0.43959  Biso   1.000  C
  C40      1.0000 0.52553  0.67859  0.43061  Biso   1.000  C
  C41      1.0000 0.54968  0.07448  0.44869  Biso   1.000  C
  H53      1.0000 0.50199  0.13260  0.47151  Biso   1.000  H
  H54      1.0000 0.52148  0.68875  0.46299  Biso   1.000  H
  C42      1.0000 0.56877  0.64778  0.43776  Biso   1.000  C
  C43      1.0000 0.58170  0.07302  0.50238  Biso   1.000  C
  C44      1.0000 0.55934  0.04255  0.40418  Biso   1.000  C
  C45      1.0000 0.57749  0.62397  0.39267  Biso   1.000  C
  C46      1.0000 0.60197  0.64428  0.49141  Biso   1.000  C
  C47      1.0000 0.62337  0.03600  0.51298  Biso   1.000  C
  H55      1.0000 0.57559  0.09717  0.53239  Biso   1.000  H
  C48      1.0000 0.60027  0.00925  0.41445  Biso   1.000  C
  H56      1.0000 0.53741  0.04435  0.36711  Biso   1.000  H
  H57      1.0000 0.55510  0.62736  0.35589  Biso   1.000  H
  C49      1.0000 0.61933  0.59531  0.40136  Biso   1.000  C
  C50      1.0000 0.64321  0.61415  0.50026  Biso   1.000  C
  H58      1.0000 0.59638  0.66257  0.52229  Biso   1.000  H
  C51      1.0000 0.65795  0.03216  0.57091  Biso   1.000  C
  C52      1.0000 0.63257  0.00643  0.46897  Biso   1.000  C
  C53      1.0000 0.60971  0.98409  0.36657  Biso   1.000  C
  C54      1.0000 0.62642  0.56653  0.35220  Biso   1.000  C
  C55      1.0000 0.65125  0.59113  0.45509  Biso   1.000  C
  C56      1.0000 0.67893  0.60907  0.55736  Biso   1.000  C
  N9       1.0000 0.65116  0.06004  0.61184  Biso   1.000  N
  H59      1.0000 0.68599  0.00801  0.57698  Biso   1.000  H
  H60      1.0000 0.66091  0.98409  0.47591  Biso   1.000  H
  N10      1.0000 0.64676  0.96028  0.37214  Biso   1.000  N
  H61      1.0000 0.58690  0.98612  0.33009  Biso   1.000  H
  N11      1.0000 0.66283  0.53899  0.35594  Biso   1.000  N
  H62      1.0000 0.60281  0.56867  0.31641  Biso   1.000  H
  H63      1.0000 0.67950  0.57183  0.46128  Biso   1.000  H
  N12      1.0000 0.67293  0.62973  0.59971  Biso   1.000  N
  H64      1.0000 0.70690  0.58978  0.56210  Biso   1.000  H
  C57      1.0000 0.68773  0.05756  0.66657  Biso   1.000  C
  C58      1.0000 0.65203  0.93985  0.32186  Biso   1.000  C
  C59      1.0000 0.66577  0.50683  0.30386  Biso   1.000  C
  C60      1.0000 0.71004  0.61900  0.65427  Biso   1.000  C
  C61      1.0000 0.69234  0.21092  0.69408  Biso   1.000  C
  H65      1.0000 0.71378  0.03374  0.66279  Biso   1.000  H
  H66      1.0000 0.68378  0.97844  0.68980  Biso   1.000  H
  C62      1.0000 0.67880  0.07155  0.31687  Biso   1.000  C
  H67      1.0000 0.62391  0.93793  0.28890  Biso   1.000  H
  H68      1.0000 0.66650  0.84268  0.32369  Biso   1.000  H
  H69      1.0000 0.68341  0.58470  0.29780  Biso   1.000  H
  H70      1.0000 0.63709  0.50965  0.27199  Biso   1.000  H
  C63      1.0000 0.68535  0.35267  0.30744  Biso   1.000  C
  H71      1.0000 0.71380  0.71549  0.67451  Biso   1.000  H
  H72      1.0000 0.73579  0.60072  0.64929  Biso   1.000  H
  C64      1.0000 0.70437  0.49182  0.68798  Biso   1.000  C
  C65      1.0000 0.69938  0.33811  0.66125  Biso   1.000  C
  H73      1.0000 0.66637  0.23225  0.69828  Biso   1.000  H
  H74      1.0000 0.71658  0.20765  0.73169  Biso   1.000  H
  C66      1.0000 0.65827  0.22435  0.31193  Biso   1.000  C
  H75      1.0000 0.70680  0.07166  0.34999  Biso   1.000  H
  H76      1.0000 0.68369  0.05485  0.28379  Biso   1.000  H
  H77      1.0000 0.71348  0.34996  0.34019  Biso   1.000  H
  H78      1.0000 0.68969  0.33664  0.27399  Biso   1.000  H
  H79      1.0000 0.72929  0.48956  0.72500  Biso   1.000  H
  H80      1.0000 0.67898  0.51292  0.69359  Biso   1.000  H
  H81      1.0000 0.72508  0.31565  0.65668  Biso   1.000  H
  H82      1.0000 0.67499  0.34127  0.62369  Biso   1.000  H
  H83      1.0000 0.65328  0.24128  0.34488  Biso   1.000  H
  H84      1.0000 0.63039  0.22503  0.27860  Biso   1.000  H
  C67      1.0000 0.66576  0.49317  0.80384  Biso   1.000  C
  N13      1.0000 0.66282  0.46101  0.85595  Biso   1.000  N
  H85      1.0000 0.68341  0.41530  0.79781  Biso   1.000  H
  H86      1.0000 0.63709  0.49035  0.77200  Biso   1.000  H
  C68      1.0000 0.68534  0.64733  0.80741  Biso   1.000  C
  C69      1.0000 0.62641  0.43347  0.85217  Biso   1.000  C
  H87      1.0000 0.71348  0.65004  0.84020  Biso   1.000  H
  H88      1.0000 0.68969  0.66336  0.77400  Biso   1.000  H
  C70      1.0000 0.65825  0.77565  0.81190  Biso   1.000  C
  C71      1.0000 0.61931  0.40469  0.90133  Biso   1.000  C
  H89      1.0000 0.60280  0.43133  0.81639  Biso   1.000  H
  C72      1.0000 0.67880  0.92845  0.81689  Biso   1.000  C
  H90      1.0000 0.65328  0.75872  0.84489  Biso   1.000  H
  H91      1.0000 0.63039  0.77497  0.77861  Biso   1.000  H
  C73      1.0000 0.57749  0.37603  0.89269  Biso   1.000  C
  C74      1.0000 0.65125  0.40887  0.95510  Biso   1.000  C
  C75      1.0000 0.65202  0.06015  0.82187  Biso   1.000  C
  H92      1.0000 0.70680  0.92834  0.85001  Biso   1.000  H
  H93      1.0000 0.68369  0.94515  0.78381  Biso   1.000  H
  C76      1.0000 0.56876  0.35222  0.93773  Biso   1.000  C
  H94      1.0000 0.55510  0.37264  0.85591  Biso   1.000  H
  C77      1.0000 0.64320  0.38585  0.00023  Biso   1.000  C
  H95      1.0000 0.67950  0.42817  0.96130  Biso   1.000  H
  N14      1.0000 0.64675  0.03972  0.87211  Biso   1.000  N
  H96      1.0000 0.62389  0.06207  0.78888  Biso   1.000  H
  H97      1.0000 0.66649  0.15732  0.82370  Biso   1.000  H
  C78      1.0000 0.52553  0.32141  0.93063  Biso   1.000  C
  C79      1.0000 0.60197  0.35572  0.99142  Biso   1.000  C
  C80      1.0000 0.67892  0.39093  0.05738  Biso   1.000  C
  C81      1.0000 0.60971  0.01591  0.86659  Biso   1.000  C
  N15      1.0000 0.49358  0.30764  0.88383  Biso   1.000  N
  H98      1.0000 0.52148  0.31125  0.96300  Biso   1.000  H
  H99      1.0000 0.59638  0.33743  0.02230  Biso   1.000  H
  N16      1.0000 0.67291  0.37027  0.09968  Biso   1.000  N
  H100     1.0000 0.70689  0.41022  0.06207  Biso   1.000  H
  C82      1.0000 0.60027  0.99075  0.91446  Biso   1.000  C
  H101     1.0000 0.58690  0.01388  0.83010  Biso   1.000  H
  C83      1.0000 0.45232  0.28834  0.88412  Biso   1.000  C
  C84      1.0000 0.71002  0.38100  0.15424  Biso   1.000  C
  C85      1.0000 0.55933  0.95745  0.90420  Biso   1.000  C
  C86      1.0000 0.63257  0.99357  0.96898  Biso   1.000  C
  C87      1.0000 0.42391  0.42320  0.85711  Biso   1.000  C
  H102     1.0000 0.43847  0.19524  0.86368  Biso   1.000  H
  H103     1.0000 0.45658  0.27762  0.92290  Biso   1.000  H
  H104     1.0000 0.71378  0.28451  0.17448  Biso   1.000  H
  H105     1.0000 0.73579  0.39928  0.14930  Biso   1.000  H
  C88      1.0000 0.70436  0.50818  0.18795  Biso   1.000  C
  C89      1.0000 0.54968  0.92552  0.94870  Biso   1.000  C
  H106     1.0000 0.53740  0.95565  0.86709  Biso   1.000  H
  C90      1.0000 0.62337  0.96400  0.01299  Biso   1.000  C
  H107     1.0000 0.66089  0.01591  0.97588  Biso   1.000  H
  C91      1.0000 0.44219  0.56946  0.88828  Biso   1.000  C
  H108     1.0000 0.41990  0.43325  0.81851  Biso   1.000  H
  H109     1.0000 0.39568  0.40526  0.85570  Biso   1.000  H
  H110     1.0000 0.72927  0.51044  0.22497  Biso   1.000  H
  H111     1.0000 0.67897  0.48708  0.19360  Biso   1.000  H
  C92      1.0000 0.69937  0.66189  0.16123  Biso   1.000  C
  C93      1.0000 0.50583  0.89098  0.93960  Biso   1.000  C
  C94      1.0000 0.58169  0.92698  0.00235  Biso   1.000  C
  C95      1.0000 0.65794  0.96784  0.07088  Biso   1.000  C
  C96      1.0000 0.41468  0.70669  0.86089  Biso   1.000  C
  H112     1.0000 0.44548  0.55987  0.92668  Biso   1.000  H
  H113     1.0000 0.47079  0.58549  0.89061  Biso   1.000  H
  C97      1.0000 0.69232  0.78908  0.19406  Biso   1.000  C
  H114     1.0000 0.72508  0.68435  0.15670  Biso   1.000  H
  H115     1.0000 0.67499  0.65873  0.12370  Biso   1.000  H
  N17      1.0000 0.47362  0.89019  0.89389  Biso   1.000  N
  H116     1.0000 0.50197  0.86740  0.97148  Biso   1.000  H
  H117     1.0000 0.57559  0.90283  0.03240  Biso   1.000  H
  N18      1.0000 0.65116  0.93996  0.11186  Biso   1.000  N
  H118     1.0000 0.68599  0.99199  0.07699  Biso   1.000  H
  H119     1.0000 0.41210  0.71798  0.82291  Biso   1.000  H
  H120     1.0000 0.38590  0.68954  0.85761  Biso   1.000  H
  C98      1.0000 0.43261  0.85306  0.89327  Biso   1.000  C
  C99      1.0000 0.68772  0.94244  0.16655  Biso   1.000  C
  H121     1.0000 0.66637  0.76775  0.19829  Biso   1.000  H
  H122     1.0000 0.71656  0.79235  0.23167  Biso   1.000  H
  H123     1.0000 0.43657  0.84144  0.93187  Biso   1.000  H
  H124     1.0000 0.41229  0.93658  0.87569  Biso   1.000  H
  H125     1.0000 0.71377  0.96626  0.16276  Biso   1.000  H
  H126     1.0000 0.68376  0.02156  0.18978  Biso   1.000  H
  C100     1.0000 0.33423  0.50683  0.19615  Biso   1.000  C
  C101     1.0000 0.31465  0.35267  0.19257  Biso   1.000  C
  N19      1.0000 0.33716  0.53899  0.14404  Biso   1.000  N
  H127     1.0000 0.31659  0.58470  0.20222  Biso   1.000  H
  H128     1.0000 0.36289  0.50965  0.22798  Biso   1.000  H
  H129     1.0000 0.28650  0.34996  0.15979  Biso   1.000  H
  H130     1.0000 0.31030  0.33664  0.22599  Biso   1.000  H
  C102     1.0000 0.34173  0.22435  0.18809  Biso   1.000  C
  C103     1.0000 0.37357  0.56653  0.14782  Biso   1.000  C
  H131     1.0000 0.34671  0.24128  0.15509  Biso   1.000  H
  H132     1.0000 0.36961  0.22503  0.22142  Biso   1.000  H
  C104     1.0000 0.32119  0.07155  0.18310  Biso   1.000  C
  C105     1.0000 0.38067  0.59531  0.09866  Biso   1.000  C
  H133     1.0000 0.39718  0.56867  0.18360  Biso   1.000  H
  H134     1.0000 0.29318  0.07166  0.14998  Biso   1.000  H
  H135     1.0000 0.31630  0.05485  0.21618  Biso   1.000  H
  C106     1.0000 0.34796  0.93985  0.17811  Biso   1.000  C
  C107     1.0000 0.42249  0.62397  0.10730  Biso   1.000  C
  C108     1.0000 0.34873  0.59113  0.04488  Biso   1.000  C
  N20      1.0000 0.35323  0.96028  0.12787  Biso   1.000  N
  H136     1.0000 0.37609  0.93793  0.21111  Biso   1.000  H
  H137     1.0000 0.33349  0.84268  0.17628  Biso   1.000  H
  C109     1.0000 0.43122  0.64778  0.06225  Biso   1.000  C
  H138     1.0000 0.44489  0.62736  0.14408  Biso   1.000  H
  H139     1.0000 0.32049  0.57183  0.03869  Biso   1.000  H
  C110     1.0000 0.35678  0.61415  0.99975  Biso   1.000  C
  C111     1.0000 0.39029  0.98409  0.13344  Biso   1.000  C
  C112     1.0000 0.47445  0.67859  0.06936  Biso   1.000  C
  C113     1.0000 0.39802  0.64428  0.00856  Biso   1.000  C
  C114     1.0000 0.32106  0.60907  0.94261  Biso   1.000  C
  C115     1.0000 0.39971  0.00925  0.08552  Biso   1.000  C
  H140     1.0000 0.41308  0.98612  0.16988  Biso   1.000  H
  N21      1.0000 0.50641  0.69236  0.11615  Biso   1.000  N
  H141     1.0000 0.47851  0.68875  0.03699  Biso   1.000  H
  H142     1.0000 0.40362  0.66257  0.97773  Biso   1.000  H
  N22      1.0000 0.32707  0.62973  0.90030  Biso   1.000  N
  H143     1.0000 0.29310  0.58978  0.93791  Biso   1.000  H
  C116     1.0000 0.36741  0.00643  0.03100  Biso   1.000  C
  C117     1.0000 0.44065  0.04255  0.09579  Biso   1.000  C
  C118     1.0000 0.54767  0.71166  0.11586  Biso   1.000  C
  C119     1.0000 0.28996  0.61900  0.84574  Biso   1.000  C
  H144     1.0000 0.33909  0.98409  0.02410  Biso   1.000  H
  C120     1.0000 0.37661  0.03600  0.98699  Biso   1.000  C
  C121     1.0000 0.45030  0.07448  0.05128  Biso   1.000  C
  H145     1.0000 0.46259  0.04435  0.13290  Biso   1.000  H
  C122     1.0000 0.57607  0.57680  0.14287  Biso   1.000  C
  H146     1.0000 0.56151  0.80476  0.13631  Biso   1.000  H
  H147     1.0000 0.54340  0.72238  0.07709  Biso   1.000  H
  H148     1.0000 0.28620  0.71549  0.82550  Biso   1.000  H
  H149     1.0000 0.26421  0.60072  0.85073  Biso   1.000  H
  C123     1.0000 0.29563  0.49182  0.81204  Biso   1.000  C
  C124     1.0000 0.34205  0.03216  0.92910  Biso   1.000  C
  C125     1.0000 0.41830  0.07302  0.99763  Biso   1.000  C
  C126     1.0000 0.49416  0.10902  0.06038  Biso   1.000  C
  C127     1.0000 0.55780  0.43054  0.11175  Biso   1.000  C
  H150     1.0000 0.58008  0.56675  0.18148  Biso   1.000  H
  H151     1.0000 0.60430  0.59474  0.14429  Biso   1.000  H
  H152     1.0000 0.27071  0.48956  0.77501  Biso   1.000  H
  H153     1.0000 0.32102  0.51292  0.80643  Biso   1.000  H
  C128     1.0000 0.30061  0.33811  0.83876  Biso   1.000  C
  N23      1.0000 0.34882  0.06004  0.88813  Biso   1.000  N
  H154     1.0000 0.31400  0.00801  0.92299  Biso   1.000  H
  H155     1.0000 0.42441  0.09717  0.96763  Biso   1.000  H
  N24      1.0000 0.52636  0.10981  0.10609  Biso   1.000  N
  H156     1.0000 0.49801  0.13260  0.02851  Biso   1.000  H
  C129     1.0000 0.58530  0.29331  0.13909  Biso   1.000  C
  H157     1.0000 0.55450  0.44013  0.07331  Biso   1.000  H
  H158     1.0000 0.52920  0.41451  0.10942  Biso   1.000  H
  H159     1.0000 0.27491  0.31565  0.84329  Biso   1.000  H
  H160     1.0000 0.32501  0.34127  0.87633  Biso   1.000  H
  C130     1.0000 0.30766  0.21092  0.80593  Biso   1.000  C
  C131     1.0000 0.31227  0.05756  0.83344  Biso   1.000  C
  C132     1.0000 0.56737  0.14694  0.10672  Biso   1.000  C
  H161     1.0000 0.58789  0.28202  0.17712  Biso   1.000  H
  H162     1.0000 0.61410  0.31046  0.14242  Biso   1.000  H
  H163     1.0000 0.33361  0.23225  0.80169  Biso   1.000  H
  H164     1.0000 0.28342  0.20765  0.76832  Biso   1.000  H
  H165     1.0000 0.31622  0.97844  0.81021  Biso   1.000  H
  H166     1.0000 0.28622  0.03374  0.83722  Biso   1.000  H
  H167     1.0000 0.56341  0.15856  0.06811  Biso   1.000  H
  H168     1.0000 0.58769  0.06342  0.12430  Biso   1.000  H
  C133     1.0000 0.82117  0.42839  0.68311  Biso   1.000  C
  C134     1.0000 0.84170  0.27559  0.68806  Biso   1.000  C
  H169     1.0000 0.79320  0.42828  0.64999  Biso   1.000  H
  H170     1.0000 0.81628  0.44510  0.71619  Biso   1.000  H
  C135     1.0000 0.84794  0.56009  0.67813  Biso   1.000  C
  C136     1.0000 0.81462  0.14727  0.69255  Biso   1.000  C
  H171     1.0000 0.84669  0.25866  0.65510  Biso   1.000  H
  H172     1.0000 0.86958  0.27503  0.72139  Biso   1.000  H
  N25      1.0000 0.85325  0.53967  0.62788  Biso   1.000  N
  H173     1.0000 0.87609  0.56213  0.71108  Biso   1.000  H
  H174     1.0000 0.83350  0.65726  0.67630  Biso   1.000  H
  H175     1.0000 0.78649  0.14998  0.65980  Biso   1.000  H
  H176     1.0000 0.81028  0.16330  0.72600  Biso   1.000  H
  C137     1.0000 0.83420  0.99323  0.69612  Biso   1.000  C
  C138     1.0000 0.89029  0.51586  0.63341  Biso   1.000  C
  N26      1.0000 0.83714  0.96095  0.64405  Biso   1.000  N
  H177     1.0000 0.81659  0.91525  0.70219  Biso   1.000  H
  H178     1.0000 0.86288  0.99029  0.72799  Biso   1.000  H
  H179     1.0000 0.91309  0.51394  0.66990  Biso   1.000  H
  C139     1.0000 0.89970  0.49069  0.58554  Biso   1.000  C
  C140     1.0000 0.87356  0.93353  0.64783  Biso   1.000  C
  C141     1.0000 0.86739  0.49362  0.53101  Biso   1.000  C
  C142     1.0000 0.94066  0.45740  0.59580  Biso   1.000  C
  C143     1.0000 0.88068  0.90475  0.59867  Biso   1.000  C
  H180     1.0000 0.89720  0.93127  0.68361  Biso   1.000  H
  C144     1.0000 0.87659  0.46406  0.48701  Biso   1.000  C
  H181     1.0000 0.83909  0.51586  0.52407  Biso   1.000  H
  C145     1.0000 0.95029  0.42546  0.55129  Biso   1.000  C
  H182     1.0000 0.96260  0.45570  0.63291  Biso   1.000  H
  C146     1.0000 0.92248  0.87597  0.60731  Biso   1.000  C
  C147     1.0000 0.84875  0.90893  0.54489  Biso   1.000  C
  C148     1.0000 0.84204  0.46778  0.42908  Biso   1.000  C
  C149     1.0000 0.91827  0.42704  0.49760  Biso   1.000  C
  C150     1.0000 0.99417  0.39104  0.56040  Biso   1.000  C
  C151     1.0000 0.93121  0.85216  0.56227  Biso   1.000  C
  H183     1.0000 0.94490  0.87270  0.64409  Biso   1.000  H
  H184     1.0000 0.82050  0.92822  0.53870  Biso   1.000  H
  C152     1.0000 0.85675  0.88579  0.49972  Biso   1.000  C
  N27      1.0000 0.84881  0.44002  0.38814  Biso   1.000  N
  H185     1.0000 0.81401  0.49204  0.42301  Biso   1.000  H
  H186     1.0000 0.92438  0.40278  0.46760  Biso   1.000  H
  H187     1.0000 0.99798  0.36745  0.52848  Biso   1.000  H
  N28      1.0000 0.02633  0.39025  0.60607  Biso   1.000  N
  C153     1.0000 0.97444  0.82135  0.56937  Biso   1.000  C
  C154     1.0000 0.89800  0.85566  0.50857  Biso   1.000  C
  C155     1.0000 0.82107  0.89087  0.44262  Biso   1.000  C
  C156     1.0000 0.81224  0.44250  0.33341  Biso   1.000  C
  C157     1.0000 0.06738  0.35312  0.60673  Biso   1.000  C
  H188     1.0000 0.97849  0.81131  0.53700  Biso   1.000  H
  N29      1.0000 0.00638  0.80758  0.61612  Biso   1.000  N
  H189     1.0000 0.90359  0.83738  0.47770  Biso   1.000  H
  N30      1.0000 0.82704  0.87033  0.40028  Biso   1.000  N
  H190     1.0000 0.79309  0.91017  0.43789  Biso   1.000  H
  C158     1.0000 0.80767  0.28913  0.30594  Biso   1.000  C
  H191     1.0000 0.78619  0.46631  0.33719  Biso   1.000  H
  H192     1.0000 0.81619  0.52161  0.31018  Biso   1.000  H
  C159     1.0000 0.08527  0.20675  0.63906  Biso   1.000  C
  H193     1.0000 0.06338  0.34138  0.56808  Biso   1.000  H
  H194     1.0000 0.08770  0.43663  0.62431  Biso   1.000  H
  C160     1.0000 0.04766  0.78829  0.61583  Biso   1.000  C
  C161     1.0000 0.78993  0.88105  0.34571  Biso   1.000  C
  C162     1.0000 0.80061  0.16195  0.33873  Biso   1.000  C
  H195     1.0000 0.83359  0.26769  0.30170  Biso   1.000  H
  H196     1.0000 0.78339  0.29240  0.26829  Biso   1.000  H
  C163     1.0000 0.05777  0.06952  0.61172  Biso   1.000  C
  H197     1.0000 0.08789  0.21803  0.67709  Biso   1.000  H
  H198     1.0000 0.11410  0.18948  0.64239  Biso   1.000  H
  C164     1.0000 0.07607  0.92315  0.64284  Biso   1.000  C
  H199     1.0000 0.06148  0.69518  0.63628  Biso   1.000  H
  H200     1.0000 0.04338  0.77756  0.57710  Biso   1.000  H
  C165     1.0000 0.79560  0.00824  0.31201  Biso   1.000  C
  H201     1.0000 0.78621  0.78445  0.32552  Biso   1.000  H
  H202     1.0000 0.76421  0.89933  0.35070  Biso   1.000  H
  H203     1.0000 0.77489  0.18429  0.34330  Biso   1.000  H
  H204     1.0000 0.82501  0.15867  0.37630  Biso   1.000  H
  H205     1.0000 0.05450  0.05993  0.57328  Biso   1.000  H
  H206     1.0000 0.02920  0.08554  0.60939  Biso   1.000  H
  H207     1.0000 0.08010  0.93330  0.68149  Biso   1.000  H
  H208     1.0000 0.10428  0.90532  0.64430  Biso   1.000  H
  H209     1.0000 0.77068  0.01038  0.27498  Biso   1.000  H
  H210     1.0000 0.82099  0.98713  0.30640  Biso   1.000  H
  C166     1.0000 0.17881  0.57161  0.31687  Biso   1.000  C
  C167     1.0000 0.15828  0.72441  0.31193  Biso   1.000  C
  H211     1.0000 0.20679  0.57172  0.34999  Biso   1.000  H
  H212     1.0000 0.18370  0.55490  0.28379  Biso   1.000  H
  C168     1.0000 0.15204  0.43991  0.32186  Biso   1.000  C
  C169     1.0000 0.18537  0.85273  0.30744  Biso   1.000  C
  H213     1.0000 0.15329  0.74134  0.34488  Biso   1.000  H
  H214     1.0000 0.13040  0.72497  0.27860  Biso   1.000  H
  N31      1.0000 0.14675  0.46033  0.37214  Biso   1.000  N
  H215     1.0000 0.12389  0.43787  0.28890  Biso   1.000  H
  H216     1.0000 0.16648  0.34274  0.32369  Biso   1.000  H
  H217     1.0000 0.21350  0.85002  0.34019  Biso   1.000  H
  H218     1.0000 0.18970  0.83670  0.27399  Biso   1.000  H
  C170     1.0000 0.16579  0.00677  0.30386  Biso   1.000  C
  C171     1.0000 0.10969  0.48414  0.36657  Biso   1.000  C
  N32      1.0000 0.16284  0.03905  0.35594  Biso   1.000  N
  H219     1.0000 0.18339  0.08475  0.29780  Biso   1.000  H
  H220     1.0000 0.13710  0.00971  0.27199  Biso   1.000  H
  H221     1.0000 0.08689  0.48606  0.33009  Biso   1.000  H
  C172     1.0000 0.10029  0.50931  0.41445  Biso   1.000  C
  C173     1.0000 0.12644  0.06647  0.35220  Biso   1.000  C
  C174     1.0000 0.13259  0.50638  0.46897  Biso   1.000  C
  C175     1.0000 0.05932  0.54260  0.40418  Biso   1.000  C
  C176     1.0000 0.11932  0.09525  0.40136  Biso   1.000  C
  H222     1.0000 0.10280  0.06873  0.31641  Biso   1.000  H
  C177     1.0000 0.12339  0.53594  0.51298  Biso   1.000  C
  H223     1.0000 0.16090  0.48414  0.47591  Biso   1.000  H
  C178     1.0000 0.04970  0.57454  0.44869  Biso   1.000  C
  H224     1.0000 0.03740  0.54430  0.36711  Biso   1.000  H
  C179     1.0000 0.07750  0.12403  0.39267  Biso   1.000  C
  C180     1.0000 0.15124  0.09107  0.45509  Biso   1.000  C
  C181     1.0000 0.15794  0.53222  0.57091  Biso   1.000  C
  C182     1.0000 0.08172  0.57296  0.50238  Biso   1.000  C
  C183     1.0000 0.00584  0.60896  0.43959  Biso   1.000  C
  C184     1.0000 0.06879  0.14784  0.43776  Biso   1.000  C
  H225     1.0000 0.05508  0.12730  0.35589  Biso   1.000  H
  H226     1.0000 0.17948  0.07178  0.46128  Biso   1.000  H
  C185     1.0000 0.14323  0.11421  0.50026  Biso   1.000  C
  N33      1.0000 0.15117  0.55998  0.61184  Biso   1.000  N
  H227     1.0000 0.18597  0.50796  0.57698  Biso   1.000  H
  H228     1.0000 0.07560  0.59722  0.53239  Biso   1.000  H
  H229     1.0000 0.00200  0.63255  0.47151  Biso   1.000  H
  N34      1.0000 0.97365  0.60975  0.39392  Biso   1.000  N
  C186     1.0000 0.02554  0.17865  0.43061  Biso   1.000  C
  C187     1.0000 0.10198  0.14434  0.49141  Biso   1.000  C
  C188     1.0000 0.17891  0.10913  0.55736  Biso   1.000  C
  C189     1.0000 0.18775  0.55750  0.66657  Biso   1.000  C
  C190     1.0000 0.93262  0.64688  0.39330  Biso   1.000  C
  N35      1.0000 0.99361  0.19242  0.38386  Biso   1.000  N
  H230     1.0000 0.02149  0.18869  0.46299  Biso   1.000  H
  H231     1.0000 0.09640  0.16262  0.52229  Biso   1.000  H
  N36      1.0000 0.17294  0.12967  0.59971  Biso   1.000  N
  H232     1.0000 0.20689  0.08983  0.56210  Biso   1.000  H
  C191     1.0000 0.19232  0.71087  0.69408  Biso   1.000  C
  H233     1.0000 0.21380  0.53369  0.66279  Biso   1.000  H
  H234     1.0000 0.18379  0.47839  0.68980  Biso   1.000  H
  C192     1.0000 0.91471  0.79325  0.36092  Biso   1.000  C
  H235     1.0000 0.93660  0.65862  0.43190  Biso   1.000  H
  H236     1.0000 0.91229  0.56337  0.37572  Biso   1.000  H
  C193     1.0000 0.95232  0.21171  0.38415  Biso   1.000  C
  C194     1.0000 0.21005  0.11895  0.65427  Biso   1.000  C
  C195     1.0000 0.19937  0.83805  0.66125  Biso   1.000  C
  H237     1.0000 0.16639  0.73231  0.69828  Biso   1.000  H
  H238     1.0000 0.21659  0.70760  0.73169  Biso   1.000  H
  H239     1.0000 0.91209  0.78197  0.32290  Biso   1.000  H
  H240     1.0000 0.88589  0.81052  0.35760  Biso   1.000  H
  C196     1.0000 0.94221  0.93048  0.38827  Biso   1.000  C
  C197     1.0000 0.92391  0.07685  0.35714  Biso   1.000  C
  H241     1.0000 0.93850  0.30482  0.36371  Biso   1.000  H
  H242     1.0000 0.95660  0.22244  0.42288  Biso   1.000  H
  C198     1.0000 0.20439  0.99176  0.68798  Biso   1.000  C
  H243     1.0000 0.21379  0.21555  0.67451  Biso   1.000  H
  H244     1.0000 0.23578  0.10067  0.64929  Biso   1.000  H
  H245     1.0000 0.22509  0.81571  0.65668  Biso   1.000  H
  H246     1.0000 0.17498  0.84133  0.62369  Biso   1.000  H
  H247     1.0000 0.94548  0.94007  0.42671  Biso   1.000  H
  H248     1.0000 0.97078  0.91446  0.39059  Biso   1.000  H
  H249     1.0000 0.91989  0.06670  0.31849  Biso   1.000  H
  H250     1.0000 0.89570  0.09468  0.35569  Biso   1.000  H
  H251     1.0000 0.22930  0.98962  0.72500  Biso   1.000  H
  H252     1.0000 0.17899  0.01287  0.69359  Biso   1.000  H
  C199     1.0000 0.81463  0.85273  0.19257  Biso   1.000  C
  C200     1.0000 0.84172  0.72441  0.18809  Biso   1.000  C
  H253     1.0000 0.78649  0.85002  0.15979  Biso   1.000  H
  H254     1.0000 0.81028  0.83670  0.22599  Biso   1.000  H
  C201     1.0000 0.83421  0.00677  0.19615  Biso   1.000  C
  C202     1.0000 0.82117  0.57161  0.18310  Biso   1.000  C
  H255     1.0000 0.84669  0.74134  0.15509  Biso   1.000  H
  H256     1.0000 0.86959  0.72497  0.22142  Biso   1.000  H
  N37      1.0000 0.83714  0.03905  0.14404  Biso   1.000  N
  H257     1.0000 0.81660  0.08475  0.20222  Biso   1.000  H
  H258     1.0000 0.86288  0.00971  0.22798  Biso   1.000  H
  H259     1.0000 0.79320  0.57172  0.14998  Biso   1.000  H
  H260     1.0000 0.81628  0.55490  0.21618  Biso   1.000  H
  C203     1.0000 0.84794  0.43991  0.17811  Biso   1.000  C
  C204     1.0000 0.87356  0.06647  0.14782  Biso   1.000  C
  N38      1.0000 0.85325  0.46033  0.12787  Biso   1.000  N
  H261     1.0000 0.87610  0.43787  0.21111  Biso   1.000  H
  H262     1.0000 0.83350  0.34274  0.17628  Biso   1.000  H
  C205     1.0000 0.88068  0.09525  0.09866  Biso   1.000  C
  H263     1.0000 0.89720  0.06873  0.18360  Biso   1.000  H
  C206     1.0000 0.89031  0.48414  0.13344  Biso   1.000  C
  C207     1.0000 0.92248  0.12403  0.10730  Biso   1.000  C
  C208     1.0000 0.84875  0.09107  0.04488  Biso   1.000  C
  H264     1.0000 0.91309  0.48606  0.16988  Biso   1.000  H
  C209     1.0000 0.89970  0.50931  0.08552  Biso   1.000  C
  C210     1.0000 0.93121  0.14784  0.06225  Biso   1.000  C
  H265     1.0000 0.94490  0.12730  0.14408  Biso   1.000  H
  C211     1.0000 0.85677  0.11421  0.99975  Biso   1.000  C
  H266     1.0000 0.82050  0.07178  0.03869  Biso   1.000  H
  C212     1.0000 0.86740  0.50638  0.03100  Biso   1.000  C
  C213     1.0000 0.94066  0.54260  0.09579  Biso   1.000  C
  C214     1.0000 0.97444  0.17865  0.06936  Biso   1.000  C
  C215     1.0000 0.89800  0.14434  0.00856  Biso   1.000  C
  C216     1.0000 0.82107  0.10913  0.94261  Biso   1.000  C
  H267     1.0000 0.83910  0.48414  0.02410  Biso   1.000  H
  C217     1.0000 0.87660  0.53594  0.98699  Biso   1.000  C
  C218     1.0000 0.95029  0.57454  0.05128  Biso   1.000  C
  H268     1.0000 0.96260  0.54430  0.13290  Biso   1.000  H
  H269     1.0000 0.97849  0.18869  0.03699  Biso   1.000  H
  N39      1.0000 0.00639  0.19242  0.11615  Biso   1.000  N
  H270     1.0000 0.90360  0.16262  0.97773  Biso   1.000  H
  N40      1.0000 0.82706  0.12967  0.90030  Biso   1.000  N
  H271     1.0000 0.79311  0.08983  0.93791  Biso   1.000  H
  C219     1.0000 0.84206  0.53222  0.92910  Biso   1.000  C
  C220     1.0000 0.91828  0.57296  0.99763  Biso   1.000  C
  C221     1.0000 0.99417  0.60896  0.06038  Biso   1.000  C
  C222     1.0000 0.04768  0.21171  0.11586  Biso   1.000  C
  C223     1.0000 0.78994  0.11895  0.84574  Biso   1.000  C
  N41      1.0000 0.84881  0.55998  0.88813  Biso   1.000  N
  H272     1.0000 0.81401  0.50796  0.92299  Biso   1.000  H
  H273     1.0000 0.92440  0.59722  0.96763  Biso   1.000  H
  H274     1.0000 0.99800  0.63255  0.02851  Biso   1.000  H
  N42      1.0000 0.02635  0.60975  0.10609  Biso   1.000  N
  C224     1.0000 0.07609  0.07685  0.14287  Biso   1.000  C
  H275     1.0000 0.06150  0.30482  0.13631  Biso   1.000  H
  H276     1.0000 0.04338  0.22244  0.07709  Biso   1.000  H
  C225     1.0000 0.79561  0.99176  0.81204  Biso   1.000  C
  H277     1.0000 0.78621  0.21555  0.82550  Biso   1.000  H
  H278     1.0000 0.76422  0.10067  0.85073  Biso   1.000  H
  C226     1.0000 0.81225  0.55750  0.83344  Biso   1.000  C
  C227     1.0000 0.06738  0.64688  0.10672  Biso   1.000  C
  C228     1.0000 0.05779  0.93048  0.11175  Biso   1.000  C
  H279     1.0000 0.08010  0.06670  0.18148  Biso   1.000  H
  H280     1.0000 0.10429  0.09468  0.14429  Biso   1.000  H
  C229     1.0000 0.80063  0.83805  0.83876  Biso   1.000  C
  H281     1.0000 0.77070  0.98962  0.77501  Biso   1.000  H
  H282     1.0000 0.82101  0.01287  0.80643  Biso   1.000  H
  C230     1.0000 0.80767  0.71087  0.80593  Biso   1.000  C
  H283     1.0000 0.78620  0.53369  0.83722  Biso   1.000  H
  H284     1.0000 0.81620  0.47839  0.81021  Biso   1.000  H
  C231     1.0000 0.08529  0.79325  0.13909  Biso   1.000  C
  H285     1.0000 0.06340  0.65862  0.06811  Biso   1.000  H
  H286     1.0000 0.08771  0.56337  0.12430  Biso   1.000  H
  H287     1.0000 0.05451  0.94007  0.07331  Biso   1.000  H
  H288     1.0000 0.02922  0.91446  0.10942  Biso   1.000  H
  H289     1.0000 0.77489  0.81571  0.84329  Biso   1.000  H
  H290     1.0000 0.82502  0.84133  0.87633  Biso   1.000  H
  H291     1.0000 0.83360  0.73231  0.80169  Biso   1.000  H
  H292     1.0000 0.78341  0.70760  0.76832  Biso   1.000  H
  H293     1.0000 0.08791  0.78197  0.17712  Biso   1.000  H
  H294     1.0000 0.11411  0.81052  0.14242  Biso   1.000  H
  C232     1.0000 0.18535  0.14727  0.80741  Biso   1.000  C
  H295     1.0000 0.21350  0.14998  0.84020  Biso   1.000  H
  H296     1.0000 0.18970  0.16330  0.77400  Biso   1.000  H
  C233     1.0000 0.15827  0.27559  0.81190  Biso   1.000  C
  C234     1.0000 0.16577  0.99323  0.80384  Biso   1.000  C
  H297     1.0000 0.15329  0.25866  0.84489  Biso   1.000  H
  H298     1.0000 0.13040  0.27503  0.77861  Biso   1.000  H
  C235     1.0000 0.17881  0.42839  0.81689  Biso   1.000  C
  N43      1.0000 0.16284  0.96095  0.85595  Biso   1.000  N
  H299     1.0000 0.18339  0.91525  0.79781  Biso   1.000  H
  H300     1.0000 0.13710  0.99029  0.77200  Biso   1.000  H
  H301     1.0000 0.20679  0.42828  0.85001  Biso   1.000  H
  H302     1.0000 0.18370  0.44510  0.78381  Biso   1.000  H
  C236     1.0000 0.15204  0.56009  0.82187  Biso   1.000  C
  C237     1.0000 0.12642  0.93353  0.85217  Biso   1.000  C
  N44      1.0000 0.14673  0.53967  0.87211  Biso   1.000  N
  H303     1.0000 0.12388  0.56213  0.78888  Biso   1.000  H
  H304     1.0000 0.16648  0.65726  0.82370  Biso   1.000  H
  C238     1.0000 0.11930  0.90475  0.90133  Biso   1.000  C
  H305     1.0000 0.10278  0.93127  0.81639  Biso   1.000  H
  C239     1.0000 0.10969  0.51586  0.86659  Biso   1.000  C
  C240     1.0000 0.07750  0.87597  0.89269  Biso   1.000  C
  C241     1.0000 0.15123  0.90893  0.95510  Biso   1.000  C
  H306     1.0000 0.08689  0.51394  0.83010  Biso   1.000  H
  C242     1.0000 0.10028  0.49069  0.91446  Biso   1.000  C
  C243     1.0000 0.06877  0.85216  0.93773  Biso   1.000  C
  H307     1.0000 0.05508  0.87270  0.85591  Biso   1.000  H
  H308     1.0000 0.17948  0.92822  0.96130  Biso   1.000  H
  C244     1.0000 0.14321  0.88579  0.00023  Biso   1.000  C
  C245     1.0000 0.13259  0.49362  0.96898  Biso   1.000  C
  C246     1.0000 0.05932  0.45740  0.90420  Biso   1.000  C
  C247     1.0000 0.02554  0.82135  0.93063  Biso   1.000  C
  C248     1.0000 0.10198  0.85566  0.99142  Biso   1.000  C
  C249     1.0000 0.17891  0.89087  0.05738  Biso   1.000  C
  H309     1.0000 0.16088  0.51586  0.97588  Biso   1.000  H
  C250     1.0000 0.12339  0.46406  0.01299  Biso   1.000  C
  C251     1.0000 0.04970  0.42546  0.94870  Biso   1.000  C
  H310     1.0000 0.03738  0.45570  0.86709  Biso   1.000  H
  N45      1.0000 0.99359  0.80758  0.88383  Biso   1.000  N
  H311     1.0000 0.02149  0.81131  0.96300  Biso   1.000  H
  H312     1.0000 0.09639  0.83738  0.02230  Biso   1.000  H
  N46      1.0000 0.17293  0.87033  0.09968  Biso   1.000  N
  H313     1.0000 0.20687  0.91017  0.06207  Biso   1.000  H
  C252     1.0000 0.15792  0.46778  0.07088  Biso   1.000  C
  C253     1.0000 0.08170  0.42704  0.00235  Biso   1.000  C
  C254     1.0000 0.00584  0.39104  0.93960  Biso   1.000  C
  C255     1.0000 0.95230  0.78829  0.88412  Biso   1.000  C
  C256     1.0000 0.21004  0.88105  0.15424  Biso   1.000  C
  N47      1.0000 0.15117  0.44002  0.11186  Biso   1.000  N
  H314     1.0000 0.18597  0.49204  0.07699  Biso   1.000  H
  H315     1.0000 0.07560  0.40278  0.03240  Biso   1.000  H
  H316     1.0000 0.00198  0.36745  0.97148  Biso   1.000  H
  N48      1.0000 0.97363  0.39025  0.89389  Biso   1.000  N
  C257     1.0000 0.92390  0.92315  0.85711  Biso   1.000  C
  H317     1.0000 0.93849  0.69518  0.86368  Biso   1.000  H
  H318     1.0000 0.95660  0.77756  0.92290  Biso   1.000  H
  H319     1.0000 0.21377  0.78445  0.17448  Biso   1.000  H
  H320     1.0000 0.23578  0.89933  0.14930  Biso   1.000  H
  C258     1.0000 0.20437  0.00824  0.18795  Biso   1.000  C
  C259     1.0000 0.18773  0.44250  0.16655  Biso   1.000  C
  C260     1.0000 0.93260  0.35312  0.89327  Biso   1.000  C
  H321     1.0000 0.91988  0.93330  0.81851  Biso   1.000  H
  H322     1.0000 0.89570  0.90532  0.85570  Biso   1.000  H
  C261     1.0000 0.94221  0.06952  0.88828  Biso   1.000  C
  H323     1.0000 0.17899  0.98713  0.19360  Biso   1.000  H
  H324     1.0000 0.22929  0.01038  0.22497  Biso   1.000  H
  C262     1.0000 0.19935  0.16195  0.16123  Biso   1.000  C
  C263     1.0000 0.19231  0.28913  0.19406  Biso   1.000  C
  H325     1.0000 0.21378  0.46631  0.16276  Biso   1.000  H
  H326     1.0000 0.18378  0.52161  0.18978  Biso   1.000  H
  C264     1.0000 0.91470  0.20675  0.86089  Biso   1.000  C
  H327     1.0000 0.93658  0.34138  0.93187  Biso   1.000  H
  H328     1.0000 0.91228  0.43663  0.87569  Biso   1.000  H
  H329     1.0000 0.94547  0.05993  0.92668  Biso   1.000  H
  H330     1.0000 0.97078  0.08554  0.89061  Biso   1.000  H
  H331     1.0000 0.22509  0.18429  0.15670  Biso   1.000  H
  H332     1.0000 0.17498  0.15867  0.12370  Biso   1.000  H
  H333     1.0000 0.16639  0.26769  0.19829  Biso   1.000  H
  H334     1.0000 0.21657  0.29240  0.23167  Biso   1.000  H
  H335     1.0000 0.91209  0.21803  0.82291  Biso   1.000  H
  H336     1.0000 0.88588  0.18948  0.85761  Biso   1.000  H
