data_image0
_cell_length_a       28.428
_cell_length_b       15.893
_cell_length_c       20.547
_cell_angle_alpha    90
_cell_angle_beta     95.58
_cell_angle_gamma    90

_symmetry_space_group_name_H-M    "P 1"
_symmetry_int_tables_number       1

loop_
  _symmetry_equiv_pos_as_xyz
  'x, y, z'

loop_
  _atom_site_label
  _atom_site_occupancy
  _atom_site_fract_x
  _atom_site_fract_y
  _atom_site_fract_z
  _atom_site_thermal_displace_type
  _atom_site_B_iso_or_equiv
  _atom_site_type_symbol
  C1       1.0000 0.56604  0.60070  0.51126  Biso   1.000  C
  Si1      1.0000 0.63146  0.60788  0.50910  Biso   1.000  Si
  H1       1.0000 0.55037  0.63877  0.47849  Biso   1.000  H
  H2       1.0000 0.55777  0.61662  0.55478  Biso   1.000  H
  H3       1.0000 0.55569  0.54282  0.50157  Biso   1.000  H
  C2       1.0000 0.64194  0.58787  0.42304  Biso   1.000  C
  C3       1.0000 0.66311  0.52841  0.56260  Biso   1.000  C
  C4       1.0000 0.65225  0.71522  0.53263  Biso   1.000  C
  C5       1.0000 0.64297  0.57478  0.36558  Biso   1.000  C
  H4       1.0000 0.65240  0.47197  0.54881  Biso   1.000  H
  H5       1.0000 0.65649  0.53791  0.60798  Biso   1.000  H
  H6       1.0000 0.69719  0.53332  0.55947  Biso   1.000  H
  H7       1.0000 0.68670  0.71799  0.53228  Biso   1.000  H
  H8       1.0000 0.64370  0.72831  0.57659  Biso   1.000  H
  H9       1.0000 0.63739  0.75612  0.50138  Biso   1.000  H
  C6       1.0000 0.63818  0.55742  0.29688  Biso   1.000  C
  C7       1.0000 0.61208  0.48688  0.27443  Biso   1.000  C
  C8       1.0000 0.65674  0.61109  0.25120  Biso   1.000  C
  C9       1.0000 0.60250  0.47040  0.20866  Biso   1.000  C
  H10      1.0000 0.60071  0.44932  0.30529  Biso   1.000  H
  C10      1.0000 0.64581  0.59649  0.18475  Biso   1.000  C
  C11      1.0000 0.68814  0.68238  0.27355  Biso   1.000  C
  C12      1.0000 0.57662  0.39332  0.18670  Biso   1.000  C
  C13      1.0000 0.61848  0.52721  0.16279  Biso   1.000  C
  H11      1.0000 0.65700  0.63418  0.15379  Biso   1.000  H
  N1       1.0000 0.71065  0.72371  0.23394  Biso   1.000  N
  H12      1.0000 0.69138  0.69729  0.31859  Biso   1.000  H
  N2       1.0000 0.55731  0.34676  0.22636  Biso   1.000  N
  H13      1.0000 0.57440  0.37841  0.14171  Biso   1.000  H
  C14      1.0000 0.60781  0.51431  0.09399  Biso   1.000  C
  C15      1.0000 0.74009  0.79299  0.26137  Biso   1.000  C
  C16      1.0000 0.53359  0.27069  0.20015  Biso   1.000  C
  C17      1.0000 0.59849  0.50179  0.03594  Biso   1.000  C
  H14      1.0000 0.74278  0.78940  0.31018  Biso   1.000  H
  C18      1.0000 0.78948  0.78708  0.23785  Biso   1.000  C
  C19      1.0000 0.71629  0.87642  0.23966  Biso   1.000  C
  C20      1.0000 0.48112  0.27421  0.21091  Biso   1.000  C
  C21      1.0000 0.55664  0.19367  0.23526  Biso   1.000  C
  H15      1.0000 0.53690  0.26660  0.15218  Biso   1.000  H
  Si2      1.0000 0.59414  0.47411  0.94650  Biso   1.000  Si
  Si3      1.0000 0.56957  0.49223  0.95276  Biso   1.000  Si
  N3       1.0000 0.81301  0.71113  0.26445  Biso   1.000  N
  H16      1.0000 0.78671  0.78469  0.18900  Biso   1.000  H
  C22      1.0000 0.81948  0.86321  0.26137  Biso   1.000  C
  C23      1.0000 0.74666  0.95143  0.26328  Biso   1.000  C
  H17      1.0000 0.71079  0.87768  0.19140  Biso   1.000  H
  H18      1.0000 0.68518  0.88032  0.25741  Biso   1.000  H
  C24      1.0000 0.45580  0.19493  0.18592  Biso   1.000  C
  H19      1.0000 0.47780  0.28082  0.25820  Biso   1.000  H
  H20      1.0000 0.46641  0.32373  0.18778  Biso   1.000  H
  C25      1.0000 0.53099  0.11301  0.21120  Biso   1.000  C
  N4       1.0000 0.60588  0.18807  0.22128  Biso   1.000  N
  H21      1.0000 0.55520  0.19958  0.28348  Biso   1.000  H
  C26      1.0000 0.53226  0.47631  0.91843  Biso   1.000  C
  C27      1.0000 0.63196  0.54471  0.90503  Biso   1.000  C
  C28      1.0000 0.61318  0.36400  0.93017  Biso   1.000  C
  C29      1.0000 0.53628  0.56799  0.91907  Biso   1.000  C
  C30      1.0000 0.54035  0.39030  0.95203  Biso   1.000  C
  H22      1.0000 0.64755  0.44208  0.92826  Biso   1.000  H
  H23      1.0000 0.52067  0.53432  0.91927  Biso   1.000  H
  H24      1.0000 0.51476  0.44133  0.94724  Biso   1.000  H
  C31      1.0000 0.62708  0.48701  0.90875  Biso   1.000  C
  C32      1.0000 0.82949  0.66079  0.22460  Biso   1.000  C
  H25      1.0000 0.82530  0.86170  0.30969  Biso   1.000  H
  H26      1.0000 0.85050  0.86000  0.24328  Biso   1.000  H
  C33      1.0000 0.79554  0.94557  0.24059  Biso   1.000  C
  H27      1.0000 0.74918  0.95350  0.31169  Biso   1.000  H
  H28      1.0000 0.73130  0.00403  0.24651  Biso   1.000  H
  H29      1.0000 0.45719  0.19021  0.13810  Biso   1.000  H
  H30      1.0000 0.42209  0.19801  0.19428  Biso   1.000  H
  C34      1.0000 0.47855  0.11697  0.21981  Biso   1.000  C
  H31      1.0000 0.53519  0.10439  0.16440  Biso   1.000  H
  H32      1.0000 0.54521  0.06431  0.23590  Biso   1.000  H
  C35      1.0000 0.63717  0.18914  0.27003  Biso   1.000  C
  H33      1.0000 0.52757  0.45429  0.87374  Biso   1.000  H
  H34      1.0000 0.63328  0.52602  0.85985  Biso   1.000  H
  H35      1.0000 0.66388  0.54433  0.92787  Biso   1.000  H
  H36      1.0000 0.61916  0.60203  0.90513  Biso   1.000  H
  H37      1.0000 0.60408  0.34978  0.88425  Biso   1.000  H
  H38      1.0000 0.59796  0.32492  0.95834  Biso   1.000  H
  H39      1.0000 0.64755  0.35959  0.93927  Biso   1.000  H
  H40      1.0000 0.51816  0.54622  0.87946  Biso   1.000  H
  H41      1.0000 0.55636  0.61442  0.90753  Biso   1.000  H
  H42      1.0000 0.51446  0.58718  0.94997  Biso   1.000  H
  H43      1.0000 0.54236  0.36318  0.90953  Biso   1.000  H
  H44      1.0000 0.50718  0.39797  0.95956  Biso   1.000  H
  H45      1.0000 0.55595  0.35481  0.98675  Biso   1.000  H
  H46      1.0000 0.61896  0.47511  0.86225  Biso   1.000  H
  H47      1.0000 0.64368  0.54093  0.91374  Biso   1.000  H
  H48      1.0000 0.82581  0.67332  0.17922  Biso   1.000  H
  C36      1.0000 0.85436  0.58265  0.24768  Biso   1.000  C
  H49      1.0000 0.81500  0.99302  0.25917  Biso   1.000  H
  H50      1.0000 0.79321  0.95023  0.19238  Biso   1.000  H
  H51      1.0000 0.47420  0.11879  0.26700  Biso   1.000  H
  H52      1.0000 0.46270  0.06569  0.20098  Biso   1.000  H
  C37      1.0000 0.68785  0.18253  0.26088  Biso   1.000  C
  H53      1.0000 0.62770  0.19430  0.31292  Biso   1.000  H
  C38      1.0000 0.86716  0.52124  0.20304  Biso   1.000  C
  C39      1.0000 0.86496  0.56899  0.31443  Biso   1.000  C
  C40      1.0000 0.70308  0.18360  0.19883  Biso   1.000  C
  C41      1.0000 0.72188  0.17756  0.31560  Biso   1.000  C
  C42      1.0000 0.88668  0.44529  0.22705  Biso   1.000  C
  C43      1.0000 0.86303  0.53533  0.13330  Biso   1.000  C
  C44      1.0000 0.88594  0.49418  0.33810  Biso   1.000  C
  H54      1.0000 0.85779  0.61153  0.34450  Biso   1.000  H
  C45      1.0000 0.75096  0.18021  0.18881  Biso   1.000  C
  H55      1.0000 0.68030  0.18669  0.16191  Biso   1.000  H
  C46      1.0000 0.76973  0.17196  0.30578  Biso   1.000  C
  C47      1.0000 0.70906  0.18266  0.38147  Biso   1.000  C
  C48      1.0000 0.89580  0.43044  0.29326  Biso   1.000  C
  H56      1.0000 0.89389  0.40282  0.19702  Biso   1.000  H
  C49      1.0000 0.86386  0.54489  0.07555  Biso   1.000  C
  C50      1.0000 0.89686  0.48418  0.40783  Biso   1.000  C
  C51      1.0000 0.78484  0.17366  0.24343  Biso   1.000  C
  C52      1.0000 0.76442  0.18713  0.12313  Biso   1.000  C
  H57      1.0000 0.79251  0.16699  0.34260  Biso   1.000  H
  C53      1.0000 0.70092  0.19078  0.43727  Biso   1.000  C
  C54      1.0000 0.91470  0.34814  0.31692  Biso   1.000  C
  Si4      1.0000 0.87285  0.55773  0.98870  Biso   1.000  Si
  C55      1.0000 0.90560  0.47908  0.46617  Biso   1.000  C
  C56      1.0000 0.83558  0.16806  0.23374  Biso   1.000  C
  C57      1.0000 0.77359  0.19581  0.06787  Biso   1.000  C
  Si5      1.0000 0.69593  0.21519  0.52456  Biso   1.000  Si
  N5       1.0000 0.92645  0.29283  0.27736  Biso   1.000  N
  H58      1.0000 0.91808  0.33669  0.36250  Biso   1.000  H
  C58      1.0000 0.82325  0.51142  0.93565  Biso   1.000  C
  C59      1.0000 0.87676  0.67250  0.97218  Biso   1.000  C
  C60      1.0000 0.92858  0.50047  0.97775  Biso   1.000  C
  Si6      1.0000 0.91677  0.47235  0.55551  Biso   1.000  Si
  N6       1.0000 0.86616  0.14805  0.28040  Biso   1.000  N
  H59      1.0000 0.84548  0.17958  0.19189  Biso   1.000  H
  Si7      1.0000 0.78204  0.22161  0.98186  Biso   1.000  Si
  C61      1.0000 0.72903  0.31479  0.54148  Biso   1.000  C
  C62      1.0000 0.72244  0.12609  0.57434  Biso   1.000  C
  C63      1.0000 0.63296  0.22998  0.53898  Biso   1.000  C
  C64      1.0000 0.94357  0.21198  0.30372  Biso   1.000  C
  H60      1.0000 0.79367  0.53911  0.94416  Biso   1.000  H
  H61      1.0000 0.82108  0.45108  0.94484  Biso   1.000  H
  H62      1.0000 0.82867  0.51947  0.88963  Biso   1.000  H
  H63      1.0000 0.90110  0.69773  0.00328  Biso   1.000  H
  H64      1.0000 0.84617  0.69899  0.97697  Biso   1.000  H
  H65      1.0000 0.88516  0.68112  0.92753  Biso   1.000  H
  H66      1.0000 0.92960  0.44800  0.00289  Biso   1.000  H
  H67      1.0000 0.92996  0.48770  0.93134  Biso   1.000  H
  H68      1.0000 0.95567  0.53571  0.99335  Biso   1.000  H
  C65      1.0000 0.94487  0.57101  0.58598  Biso   1.000  C
  C66      1.0000 0.85868  0.45920  0.58940  Biso   1.000  C
  C67      1.0000 0.95718  0.38199  0.57600  Biso   1.000  C
  C68      1.0000 0.91541  0.14226  0.26597  Biso   1.000  C
  C69      1.0000 0.76317  0.12899  0.93017  Biso   1.000  C
  C70      1.0000 0.74235  0.31240  0.95927  Biso   1.000  C
  C71      1.0000 0.84579  0.24552  0.97653  Biso   1.000  C
  H69      1.0000 0.76298  0.30397  0.54211  Biso   1.000  H
  H70      1.0000 0.72218  0.33700  0.58412  Biso   1.000  H
  H71      1.0000 0.71938  0.35601  0.50730  Biso   1.000  H
  H72      1.0000 0.70468  0.07450  0.56290  Biso   1.000  H
  H73      1.0000 0.72107  0.13830  0.62089  Biso   1.000  H
  H74      1.0000 0.75537  0.11861  0.56549  Biso   1.000  H
  H75      1.0000 0.61908  0.27427  0.51008  Biso   1.000  H
  H76      1.0000 0.63100  0.24627  0.58461  Biso   1.000  H
  H77      1.0000 0.61568  0.17731  0.52989  Biso   1.000  H
  H78      1.0000 0.93889  0.20839  0.35130  Biso   1.000  H
  C72      1.0000 0.99603  0.20418  0.29443  Biso   1.000  C
  H79      1.0000 0.97517  0.57780  0.56769  Biso   1.000  H
  H80      1.0000 0.95009  0.56912  0.63380  Biso   1.000  H
  H81      1.0000 0.92419  0.61851  0.57258  Biso   1.000  H
  H82      1.0000 0.83959  0.50997  0.58060  Biso   1.000  H
  H83      1.0000 0.86387  0.45020  0.63678  Biso   1.000  H
  H84      1.0000 0.84207  0.41062  0.56881  Biso   1.000  H
  H85      1.0000 0.94289  0.33027  0.55727  Biso   1.000  H
  H86      1.0000 0.96278  0.37633  0.62358  Biso   1.000  H
  H87      1.0000 0.98739  0.39200  0.55791  Biso   1.000  H
  H88      1.0000 0.91700  0.15120  0.21800  Biso   1.000  H
  C73      1.0000 0.93482  0.05550  0.28436  Biso   1.000  C
  H89      1.0000 0.78276  0.08041  0.94406  Biso   1.000  H
  H90      1.0000 0.76666  0.14182  0.88425  Biso   1.000  H
  H91      1.0000 0.72997  0.11609  0.93516  Biso   1.000  H
  H92      1.0000 0.70936  0.29478  0.95985  Biso   1.000  H
  H93      1.0000 0.74756  0.33197  0.91526  Biso   1.000  H
  H94      1.0000 0.74927  0.35821  0.99066  Biso   1.000  H
  H95      1.0000 0.85550  0.29220  0.00611  Biso   1.000  H
  H96      1.0000 0.85068  0.26118  0.93154  Biso   1.000  H
  H97      1.0000 0.86477  0.19568  0.98934  Biso   1.000  H
  C74      1.0000 0.01492  0.11691  0.31541  Biso   1.000  C
  H98      1.0000 0.01399  0.24791  0.32069  Biso   1.000  H
  H99      1.0000 0.00071  0.21368  0.24788  Biso   1.000  H
  H100     1.0000 0.91719  0.01258  0.25678  Biso   1.000  H
  H101     1.0000 0.93009  0.04360  0.33062  Biso   1.000  H
  C75      1.0000 0.98765  0.04933  0.27521  Biso   1.000  C
  H102     1.0000 0.04891  0.11307  0.30900  Biso   1.000  H
  H103     1.0000 0.01150  0.10810  0.36240  Biso   1.000  H
  H104     1.0000 0.99231  0.05663  0.22841  Biso   1.000  H
  H105     1.0000 0.99970  0.99308  0.28910  Biso   1.000  H
  C76      1.0000 0.43392  0.60070  0.48871  Biso   1.000  C
  Si8      1.0000 0.36850  0.60788  0.49086  Biso   1.000  Si
  H106     1.0000 0.44959  0.63877  0.52148  Biso   1.000  H
  H107     1.0000 0.44219  0.61662  0.44519  Biso   1.000  H
  H108     1.0000 0.44427  0.54282  0.49840  Biso   1.000  H
  C77      1.0000 0.35802  0.58787  0.57698  Biso   1.000  C
  C78      1.0000 0.33688  0.52841  0.43742  Biso   1.000  C
  C79      1.0000 0.34771  0.71522  0.46739  Biso   1.000  C
  C80      1.0000 0.35699  0.57478  0.63439  Biso   1.000  C
  H109     1.0000 0.34760  0.47197  0.45121  Biso   1.000  H
  H110     1.0000 0.34347  0.53791  0.39199  Biso   1.000  H
  H111     1.0000 0.30280  0.53332  0.44050  Biso   1.000  H
  H112     1.0000 0.31330  0.71799  0.46769  Biso   1.000  H
  H113     1.0000 0.35630  0.72831  0.42338  Biso   1.000  H
  H114     1.0000 0.36257  0.75612  0.49859  Biso   1.000  H
  C81      1.0000 0.36182  0.55742  0.70309  Biso   1.000  C
  C82      1.0000 0.38788  0.48688  0.72559  Biso   1.000  C
  C83      1.0000 0.34322  0.61109  0.74882  Biso   1.000  C
  C84      1.0000 0.39749  0.47040  0.79131  Biso   1.000  C
  H115     1.0000 0.39929  0.44932  0.69468  Biso   1.000  H
  C85      1.0000 0.35419  0.59649  0.81527  Biso   1.000  C
  C86      1.0000 0.31182  0.68238  0.72642  Biso   1.000  C
  C87      1.0000 0.42334  0.39332  0.81327  Biso   1.000  C
  C88      1.0000 0.38148  0.52721  0.83718  Biso   1.000  C
  H116     1.0000 0.34296  0.63418  0.84618  Biso   1.000  H
  N7       1.0000 0.28931  0.72371  0.76603  Biso   1.000  N
  H117     1.0000 0.30858  0.69729  0.68138  Biso   1.000  H
  N8       1.0000 0.44265  0.34676  0.77366  Biso   1.000  N
  H118     1.0000 0.42556  0.37841  0.85830  Biso   1.000  H
  C89      1.0000 0.39219  0.51431  0.90603  Biso   1.000  C
  C90      1.0000 0.25987  0.79299  0.73860  Biso   1.000  C
  C91      1.0000 0.46637  0.27069  0.79987  Biso   1.000  C
  C92      1.0000 0.40147  0.50179  0.96403  Biso   1.000  C
  H119     1.0000 0.25718  0.78940  0.68979  Biso   1.000  H
  C93      1.0000 0.21052  0.78708  0.76212  Biso   1.000  C
  C94      1.0000 0.28370  0.87642  0.76031  Biso   1.000  C
  C95      1.0000 0.44333  0.19367  0.76476  Biso   1.000  C
  H120     1.0000 0.46306  0.26660  0.84779  Biso   1.000  H
  C96      1.0000 0.51887  0.27421  0.78911  Biso   1.000  C
  Si9      1.0000 0.40583  0.47411  0.05352  Biso   1.000  Si
  Si10     1.0000 0.43040  0.49223  0.04726  Biso   1.000  Si
  N9       1.0000 0.18695  0.71113  0.73551  Biso   1.000  N
  H121     1.0000 0.21328  0.78469  0.81097  Biso   1.000  H
  C97      1.0000 0.18052  0.86321  0.73864  Biso   1.000  C
  C98      1.0000 0.25330  0.95143  0.73669  Biso   1.000  C
  H122     1.0000 0.28917  0.87768  0.80857  Biso   1.000  H
  H123     1.0000 0.31478  0.88032  0.74260  Biso   1.000  H
  N10      1.0000 0.39411  0.18807  0.77869  Biso   1.000  N
  H124     1.0000 0.44479  0.19958  0.71649  Biso   1.000  H
  C99      1.0000 0.46901  0.11301  0.78882  Biso   1.000  C
  H125     1.0000 0.52216  0.28082  0.74177  Biso   1.000  H
  H126     1.0000 0.53358  0.32373  0.81219  Biso   1.000  H
  C100     1.0000 0.54416  0.19493  0.81410  Biso   1.000  C
  C101     1.0000 0.46770  0.47631  0.08154  Biso   1.000  C
  C102     1.0000 0.36800  0.54471  0.09493  Biso   1.000  C
  C103     1.0000 0.38682  0.36400  0.06985  Biso   1.000  C
  C104     1.0000 0.46368  0.56799  0.08095  Biso   1.000  C
  C105     1.0000 0.45961  0.39030  0.04794  Biso   1.000  C
  H127     1.0000 0.35241  0.44208  0.07176  Biso   1.000  H
  H128     1.0000 0.47929  0.53432  0.08075  Biso   1.000  H
  H129     1.0000 0.48520  0.44133  0.05273  Biso   1.000  H
  C106     1.0000 0.37291  0.48701  0.09122  Biso   1.000  C
  C107     1.0000 0.17050  0.66079  0.77537  Biso   1.000  C
  H130     1.0000 0.17469  0.86170  0.69028  Biso   1.000  H
  H131     1.0000 0.14946  0.86000  0.75669  Biso   1.000  H
  C108     1.0000 0.20442  0.94557  0.75938  Biso   1.000  C
  H132     1.0000 0.25078  0.95350  0.68828  Biso   1.000  H
  H133     1.0000 0.26866  0.00403  0.75351  Biso   1.000  H
  C109     1.0000 0.36279  0.18914  0.72999  Biso   1.000  C
  C110     1.0000 0.52145  0.11697  0.78021  Biso   1.000  C
  H134     1.0000 0.46477  0.10439  0.83561  Biso   1.000  H
  H135     1.0000 0.45478  0.06431  0.76407  Biso   1.000  H
  H136     1.0000 0.54277  0.19021  0.86187  Biso   1.000  H
  H137     1.0000 0.57787  0.19801  0.80569  Biso   1.000  H
  H138     1.0000 0.47239  0.45429  0.12623  Biso   1.000  H
  H139     1.0000 0.36671  0.52602  0.14012  Biso   1.000  H
  H140     1.0000 0.33611  0.54433  0.07215  Biso   1.000  H
  H141     1.0000 0.38080  0.60203  0.09484  Biso   1.000  H
  H142     1.0000 0.39588  0.34978  0.11572  Biso   1.000  H
  H143     1.0000 0.40200  0.32492  0.04163  Biso   1.000  H
  H144     1.0000 0.35241  0.35959  0.06075  Biso   1.000  H
  H145     1.0000 0.48181  0.54622  0.12056  Biso   1.000  H
  H146     1.0000 0.44360  0.61442  0.09244  Biso   1.000  H
  H147     1.0000 0.48550  0.58718  0.05004  Biso   1.000  H
  H148     1.0000 0.45760  0.36318  0.09044  Biso   1.000  H
  H149     1.0000 0.49281  0.39797  0.04046  Biso   1.000  H
  H150     1.0000 0.44401  0.35481  0.01322  Biso   1.000  H
  H151     1.0000 0.38100  0.47511  0.13772  Biso   1.000  H
  H152     1.0000 0.35631  0.54093  0.08623  Biso   1.000  H
  C111     1.0000 0.14563  0.58265  0.75234  Biso   1.000  C
  H153     1.0000 0.17415  0.67332  0.82080  Biso   1.000  H
  H154     1.0000 0.18496  0.99302  0.74080  Biso   1.000  H
  H155     1.0000 0.20679  0.95023  0.80759  Biso   1.000  H
  C112     1.0000 0.31211  0.18253  0.73908  Biso   1.000  C
  H156     1.0000 0.37227  0.19430  0.68710  Biso   1.000  H
  H157     1.0000 0.52576  0.11879  0.73297  Biso   1.000  H
  H158     1.0000 0.53726  0.06569  0.79899  Biso   1.000  H
  C113     1.0000 0.13284  0.52124  0.79698  Biso   1.000  C
  C114     1.0000 0.13500  0.56899  0.68559  Biso   1.000  C
  C115     1.0000 0.27812  0.17756  0.68441  Biso   1.000  C
  C116     1.0000 0.29688  0.18360  0.80119  Biso   1.000  C
  C117     1.0000 0.11328  0.44529  0.77292  Biso   1.000  C
  C118     1.0000 0.13693  0.53533  0.86671  Biso   1.000  C
  C119     1.0000 0.11405  0.49418  0.66187  Biso   1.000  C
  H159     1.0000 0.14217  0.61153  0.65551  Biso   1.000  H
  C120     1.0000 0.29093  0.18266  0.61850  Biso   1.000  C
  C121     1.0000 0.23023  0.17196  0.69424  Biso   1.000  C
  C122     1.0000 0.24900  0.18021  0.81116  Biso   1.000  C
  H160     1.0000 0.31967  0.18669  0.83811  Biso   1.000  H
  C123     1.0000 0.10416  0.43044  0.70676  Biso   1.000  C
  H161     1.0000 0.10607  0.40282  0.80300  Biso   1.000  H
  C124     1.0000 0.13609  0.54489  0.92442  Biso   1.000  C
  C125     1.0000 0.10310  0.48418  0.59214  Biso   1.000  C
  C126     1.0000 0.29905  0.19078  0.56275  Biso   1.000  C
  C127     1.0000 0.21513  0.17366  0.75659  Biso   1.000  C
  H162     1.0000 0.20748  0.16699  0.65737  Biso   1.000  H
  C128     1.0000 0.23554  0.18713  0.87689  Biso   1.000  C
  C129     1.0000 0.08526  0.34814  0.68304  Biso   1.000  C
  Si11     1.0000 0.12711  0.55773  0.01126  Biso   1.000  Si
  C130     1.0000 0.09440  0.47908  0.53380  Biso   1.000  C
  Si12     1.0000 0.30403  0.21519  0.47541  Biso   1.000  Si
  C131     1.0000 0.16441  0.16806  0.76622  Biso   1.000  C
  C132     1.0000 0.22637  0.19581  0.93214  Biso   1.000  C
  N11      1.0000 0.07351  0.29283  0.72260  Biso   1.000  N
  H163     1.0000 0.08188  0.33669  0.63752  Biso   1.000  H
  C133     1.0000 0.17671  0.51142  0.06432  Biso   1.000  C
  C134     1.0000 0.12321  0.67250  0.02784  Biso   1.000  C
  C135     1.0000 0.07138  0.50047  0.02222  Biso   1.000  C
  Si13     1.0000 0.08323  0.47235  0.44446  Biso   1.000  Si
  C136     1.0000 0.27756  0.12609  0.42563  Biso   1.000  C
  C137     1.0000 0.27093  0.31479  0.45849  Biso   1.000  C
  C138     1.0000 0.36700  0.22998  0.46099  Biso   1.000  C
  N12      1.0000 0.13380  0.14805  0.71957  Biso   1.000  N
  H164     1.0000 0.15448  0.17958  0.80808  Biso   1.000  H
  Si14     1.0000 0.21792  0.22161  0.01811  Biso   1.000  Si
  C139     1.0000 0.05643  0.21198  0.69630  Biso   1.000  C
  H165     1.0000 0.20629  0.53911  0.05586  Biso   1.000  H
  H166     1.0000 0.17891  0.45108  0.05513  Biso   1.000  H
  H167     1.0000 0.17129  0.51947  0.11034  Biso   1.000  H
  H168     1.0000 0.09886  0.69773  0.99669  Biso   1.000  H
  H169     1.0000 0.15379  0.69899  0.02305  Biso   1.000  H
  H170     1.0000 0.11480  0.68112  0.07244  Biso   1.000  H
  H171     1.0000 0.07036  0.44800  0.99708  Biso   1.000  H
  H172     1.0000 0.07000  0.48770  0.06863  Biso   1.000  H
  H173     1.0000 0.04429  0.53571  0.00662  Biso   1.000  H
  C140     1.0000 0.05509  0.57101  0.41399  Biso   1.000  C
  C141     1.0000 0.14128  0.45920  0.41062  Biso   1.000  C
  C142     1.0000 0.04278  0.38199  0.42402  Biso   1.000  C
  H174     1.0000 0.29528  0.07450  0.43707  Biso   1.000  H
  H175     1.0000 0.27889  0.13830  0.37908  Biso   1.000  H
  H176     1.0000 0.24458  0.11861  0.43448  Biso   1.000  H
  H177     1.0000 0.23698  0.30397  0.45791  Biso   1.000  H
  H178     1.0000 0.27779  0.33700  0.41590  Biso   1.000  H
  H179     1.0000 0.28058  0.35601  0.49267  Biso   1.000  H
  H180     1.0000 0.38088  0.27427  0.48989  Biso   1.000  H
  H181     1.0000 0.36900  0.24627  0.41541  Biso   1.000  H
  H182     1.0000 0.38428  0.17731  0.47008  Biso   1.000  H
  C143     1.0000 0.08455  0.14226  0.73405  Biso   1.000  C
  C144     1.0000 0.23679  0.12899  0.06985  Biso   1.000  C
  C145     1.0000 0.25761  0.31240  0.04075  Biso   1.000  C
  C146     1.0000 0.15420  0.24552  0.02344  Biso   1.000  C
  H183     1.0000 0.06107  0.20839  0.64872  Biso   1.000  H
  C147     1.0000 0.00396  0.20418  0.70559  Biso   1.000  C
  H184     1.0000 0.02479  0.57780  0.43228  Biso   1.000  H
  H185     1.0000 0.04990  0.56912  0.36622  Biso   1.000  H
  H186     1.0000 0.07580  0.61851  0.42739  Biso   1.000  H
  H187     1.0000 0.16040  0.50997  0.41937  Biso   1.000  H
  H188     1.0000 0.13608  0.45020  0.36318  Biso   1.000  H
  H189     1.0000 0.15789  0.41062  0.43121  Biso   1.000  H
  H190     1.0000 0.05707  0.33027  0.44270  Biso   1.000  H
  H191     1.0000 0.03718  0.37633  0.37639  Biso   1.000  H
  H192     1.0000 0.01257  0.39200  0.44211  Biso   1.000  H
  H193     1.0000 0.08296  0.15120  0.78197  Biso   1.000  H
  C148     1.0000 0.06517  0.05550  0.71561  Biso   1.000  C
  H194     1.0000 0.21720  0.08041  0.05596  Biso   1.000  H
  H195     1.0000 0.23329  0.14182  0.11572  Biso   1.000  H
  H196     1.0000 0.27000  0.11609  0.06486  Biso   1.000  H
  H197     1.0000 0.29060  0.29478  0.04012  Biso   1.000  H
  H198     1.0000 0.25240  0.33197  0.08471  Biso   1.000  H
  H199     1.0000 0.25069  0.35821  0.00936  Biso   1.000  H
  H200     1.0000 0.14446  0.29220  0.99391  Biso   1.000  H
  H201     1.0000 0.14931  0.26118  0.06843  Biso   1.000  H
  H202     1.0000 0.13519  0.19568  0.01063  Biso   1.000  H
  C149     1.0000 0.98504  0.11691  0.68461  Biso   1.000  C
  H203     1.0000 0.98597  0.24791  0.67928  Biso   1.000  H
  H204     1.0000 0.99928  0.21368  0.75209  Biso   1.000  H
  H205     1.0000 0.08276  0.01258  0.74319  Biso   1.000  H
  H206     1.0000 0.06987  0.04360  0.66940  Biso   1.000  H
  C150     1.0000 0.01231  0.04933  0.72481  Biso   1.000  C
  H207     1.0000 0.95109  0.11307  0.69101  Biso   1.000  H
  H208     1.0000 0.98849  0.10810  0.63762  Biso   1.000  H
  H209     1.0000 0.00769  0.05663  0.77160  Biso   1.000  H
  H210     1.0000 0.00026  0.99308  0.71092  Biso   1.000  H
  C151     1.0000 0.51492  0.61688  0.31541  Biso   1.000  C
  C152     1.0000 0.49600  0.70421  0.29443  Biso   1.000  C
  C153     1.0000 0.48765  0.54930  0.27521  Biso   1.000  C
  H211     1.0000 0.54891  0.61310  0.30900  Biso   1.000  H
  H212     1.0000 0.51150  0.60813  0.36240  Biso   1.000  H
  C154     1.0000 0.44353  0.71201  0.30372  Biso   1.000  C
  H213     1.0000 0.51399  0.74788  0.32069  Biso   1.000  H
  H214     1.0000 0.50068  0.71371  0.24788  Biso   1.000  H
  C155     1.0000 0.43479  0.55553  0.28436  Biso   1.000  C
  H215     1.0000 0.49970  0.49311  0.28910  Biso   1.000  H
  H216     1.0000 0.49231  0.55660  0.22841  Biso   1.000  H
  C156     1.0000 0.41541  0.64230  0.26597  Biso   1.000  C
  N13      1.0000 0.42645  0.79286  0.27736  Biso   1.000  N
  H217     1.0000 0.43889  0.70843  0.35130  Biso   1.000  H
  H218     1.0000 0.41719  0.51262  0.25678  Biso   1.000  H
  H219     1.0000 0.43009  0.54357  0.33062  Biso   1.000  H
  N14      1.0000 0.36616  0.64802  0.28040  Biso   1.000  N
  H220     1.0000 0.41700  0.65123  0.21800  Biso   1.000  H
  C157     1.0000 0.41470  0.84811  0.31692  Biso   1.000  C
  C158     1.0000 0.33558  0.66803  0.23374  Biso   1.000  C
  C159     1.0000 0.39580  0.93047  0.29326  Biso   1.000  C
  H221     1.0000 0.41808  0.83672  0.36250  Biso   1.000  H
  C160     1.0000 0.28484  0.67363  0.24343  Biso   1.000  C
  H222     1.0000 0.34548  0.67961  0.19189  Biso   1.000  H
  C161     1.0000 0.38668  0.94526  0.22705  Biso   1.000  C
  C162     1.0000 0.38590  0.99421  0.33810  Biso   1.000  C
  C163     1.0000 0.25096  0.68024  0.18881  Biso   1.000  C
  C164     1.0000 0.26973  0.67199  0.30578  Biso   1.000  C
  H223     1.0000 0.39389  0.90279  0.19702  Biso   1.000  H
  C165     1.0000 0.36716  0.02120  0.20304  Biso   1.000  C
  C166     1.0000 0.39686  0.98421  0.40783  Biso   1.000  C
  C167     1.0000 0.36496  0.06902  0.31443  Biso   1.000  C
  C168     1.0000 0.20308  0.68357  0.19883  Biso   1.000  C
  C169     1.0000 0.26442  0.68709  0.12313  Biso   1.000  C
  C170     1.0000 0.22188  0.67753  0.31560  Biso   1.000  C
  H224     1.0000 0.29247  0.66702  0.34260  Biso   1.000  H
  C171     1.0000 0.35433  0.08261  0.24768  Biso   1.000  C
  C172     1.0000 0.36303  0.03530  0.13330  Biso   1.000  C
  C173     1.0000 0.40560  0.97911  0.46617  Biso   1.000  C
  H225     1.0000 0.35779  0.11150  0.34450  Biso   1.000  H
  H226     1.0000 0.18030  0.68672  0.16191  Biso   1.000  H
  C174     1.0000 0.18785  0.68256  0.26088  Biso   1.000  C
  C175     1.0000 0.27359  0.69578  0.06787  Biso   1.000  C
  C176     1.0000 0.20906  0.68269  0.38147  Biso   1.000  C
  C177     1.0000 0.32949  0.16083  0.22460  Biso   1.000  C
  C178     1.0000 0.36386  0.04493  0.07555  Biso   1.000  C
  Si15     1.0000 0.41677  0.97231  0.55551  Biso   1.000  Si
  C179     1.0000 0.13717  0.68917  0.27003  Biso   1.000  C
  Si16     1.0000 0.28204  0.72158  0.98186  Biso   1.000  Si
  C180     1.0000 0.20092  0.69081  0.43727  Biso   1.000  C
  N15      1.0000 0.31301  0.21116  0.26445  Biso   1.000  N
  H227     1.0000 0.32581  0.17328  0.17922  Biso   1.000  H
  Si17     1.0000 0.37285  0.05776  0.98870  Biso   1.000  Si
  C181     1.0000 0.35868  0.95923  0.58940  Biso   1.000  C
  C182     1.0000 0.45718  0.88202  0.57600  Biso   1.000  C
  C183     1.0000 0.44487  0.07097  0.58598  Biso   1.000  C
  N16      1.0000 0.10588  0.68810  0.22128  Biso   1.000  N
  H228     1.0000 0.12770  0.69433  0.31292  Biso   1.000  H
  C184     1.0000 0.26317  0.62902  0.93017  Biso   1.000  C
  C185     1.0000 0.24235  0.81237  0.95927  Biso   1.000  C
  C186     1.0000 0.34579  0.74549  0.97653  Biso   1.000  C
  Si18     1.0000 0.19593  0.71522  0.52456  Biso   1.000  Si
  C187     1.0000 0.28948  0.28704  0.23785  Biso   1.000  C
  C188     1.0000 0.32325  0.01139  0.93565  Biso   1.000  C
  C189     1.0000 0.37676  0.17253  0.97218  Biso   1.000  C
  C190     1.0000 0.42858  0.00050  0.97775  Biso   1.000  C
  H229     1.0000 0.36387  0.95023  0.63678  Biso   1.000  H
  H230     1.0000 0.34207  0.91059  0.56881  Biso   1.000  H
  H231     1.0000 0.33959  0.01000  0.58060  Biso   1.000  H
  H232     1.0000 0.44289  0.83030  0.55727  Biso   1.000  H
  H233     1.0000 0.46278  0.87630  0.62358  Biso   1.000  H
  H234     1.0000 0.48739  0.89203  0.55791  Biso   1.000  H
  H235     1.0000 0.47517  0.07777  0.56769  Biso   1.000  H
  H236     1.0000 0.45009  0.06909  0.63380  Biso   1.000  H
  H237     1.0000 0.42419  0.11848  0.57258  Biso   1.000  H
  C191     1.0000 0.05664  0.69370  0.23526  Biso   1.000  C
  H238     1.0000 0.28276  0.58038  0.94406  Biso   1.000  H
  H239     1.0000 0.26666  0.64179  0.88425  Biso   1.000  H
  H240     1.0000 0.22997  0.61612  0.93516  Biso   1.000  H
  H241     1.0000 0.20936  0.79482  0.95985  Biso   1.000  H
  H242     1.0000 0.24756  0.83200  0.91526  Biso   1.000  H
  H243     1.0000 0.24927  0.85818  0.99066  Biso   1.000  H
  H244     1.0000 0.35550  0.79217  0.00611  Biso   1.000  H
  H245     1.0000 0.35065  0.76122  0.93154  Biso   1.000  H
  H246     1.0000 0.36477  0.69572  0.98934  Biso   1.000  H
  C192     1.0000 0.22903  0.81482  0.54148  Biso   1.000  C
  C193     1.0000 0.22240  0.62612  0.57434  Biso   1.000  C
  C194     1.0000 0.13296  0.73001  0.53898  Biso   1.000  C
  C195     1.0000 0.24009  0.29302  0.26137  Biso   1.000  C
  H247     1.0000 0.28671  0.28472  0.18900  Biso   1.000  H
  C196     1.0000 0.31945  0.36318  0.26137  Biso   1.000  C
  H248     1.0000 0.32105  0.95111  0.94484  Biso   1.000  H
  H249     1.0000 0.29367  0.03907  0.94416  Biso   1.000  H
  H250     1.0000 0.32867  0.01951  0.88963  Biso   1.000  H
  H251     1.0000 0.34617  0.19902  0.97697  Biso   1.000  H
  H252     1.0000 0.38516  0.18109  0.92753  Biso   1.000  H
  H253     1.0000 0.40110  0.19770  0.00328  Biso   1.000  H
  H254     1.0000 0.42960  0.94803  0.00289  Biso   1.000  H
  H255     1.0000 0.42996  0.98773  0.93134  Biso   1.000  H
  H256     1.0000 0.45567  0.03568  0.99335  Biso   1.000  H
  H257     1.0000 0.05520  0.69962  0.28348  Biso   1.000  H
  C197     1.0000 0.03359  0.77072  0.20015  Biso   1.000  C
  C198     1.0000 0.03099  0.61297  0.21120  Biso   1.000  C
  H258     1.0000 0.26298  0.80400  0.54211  Biso   1.000  H
  H259     1.0000 0.22218  0.83697  0.58412  Biso   1.000  H
  H260     1.0000 0.21938  0.85597  0.50730  Biso   1.000  H
  H261     1.0000 0.20468  0.57453  0.56290  Biso   1.000  H
  H262     1.0000 0.22107  0.63833  0.62089  Biso   1.000  H
  H263     1.0000 0.25537  0.61857  0.56549  Biso   1.000  H
  H264     1.0000 0.11908  0.77430  0.51008  Biso   1.000  H
  H265     1.0000 0.13100  0.74630  0.58461  Biso   1.000  H
  H266     1.0000 0.11568  0.67728  0.52989  Biso   1.000  H
  N17      1.0000 0.21065  0.22368  0.23394  Biso   1.000  N
  H267     1.0000 0.24278  0.28937  0.31018  Biso   1.000  H
  C199     1.0000 0.21629  0.37639  0.23966  Biso   1.000  C
  H268     1.0000 0.32530  0.36167  0.30969  Biso   1.000  H
  H269     1.0000 0.35050  0.35997  0.24328  Biso   1.000  H
  C200     1.0000 0.29554  0.44560  0.24059  Biso   1.000  C
  N18      1.0000 0.05731  0.84679  0.22636  Biso   1.000  N
  H270     1.0000 0.03690  0.76663  0.15218  Biso   1.000  H
  C201     1.0000 0.98109  0.77418  0.21091  Biso   1.000  C
  H271     1.0000 0.03519  0.60442  0.16440  Biso   1.000  H
  H272     1.0000 0.04518  0.56427  0.23590  Biso   1.000  H
  C202     1.0000 0.97855  0.61700  0.21981  Biso   1.000  C
  C203     1.0000 0.18814  0.18241  0.27355  Biso   1.000  C
  C204     1.0000 0.24666  0.45139  0.26328  Biso   1.000  C
  H273     1.0000 0.21079  0.37771  0.19140  Biso   1.000  H
  H274     1.0000 0.18518  0.38029  0.25741  Biso   1.000  H
  H275     1.0000 0.31500  0.49298  0.25917  Biso   1.000  H
  H276     1.0000 0.29321  0.45020  0.19238  Biso   1.000  H
  C205     1.0000 0.07662  0.89329  0.18670  Biso   1.000  C
  H277     1.0000 0.97780  0.78078  0.25820  Biso   1.000  H
  H278     1.0000 0.96638  0.82370  0.18778  Biso   1.000  H
  C206     1.0000 0.95580  0.69490  0.18592  Biso   1.000  C
  H279     1.0000 0.97420  0.61883  0.26700  Biso   1.000  H
  H280     1.0000 0.96270  0.56572  0.20098  Biso   1.000  H
  C207     1.0000 0.15674  0.11112  0.25120  Biso   1.000  C
  H281     1.0000 0.19138  0.19732  0.31859  Biso   1.000  H
  H282     1.0000 0.23130  0.50400  0.24651  Biso   1.000  H
  H283     1.0000 0.24918  0.45347  0.31169  Biso   1.000  H
  H284     1.0000 0.07440  0.87837  0.14171  Biso   1.000  H
  C208     1.0000 0.10247  0.97043  0.20866  Biso   1.000  C
  H285     1.0000 0.95719  0.69018  0.13810  Biso   1.000  H
  H286     1.0000 0.92209  0.69798  0.19428  Biso   1.000  H
  C209     1.0000 0.13814  0.05738  0.29688  Biso   1.000  C
  C210     1.0000 0.14581  0.09652  0.18475  Biso   1.000  C
  C211     1.0000 0.11208  0.98691  0.27443  Biso   1.000  C
  C212     1.0000 0.11848  0.02718  0.16279  Biso   1.000  C
  C213     1.0000 0.14297  0.07481  0.36558  Biso   1.000  C
  H287     1.0000 0.15700  0.13421  0.15379  Biso   1.000  H
  H288     1.0000 0.10067  0.94929  0.30529  Biso   1.000  H
  C214     1.0000 0.10777  0.01428  0.09399  Biso   1.000  C
  C215     1.0000 0.14194  0.08790  0.42304  Biso   1.000  C
  C216     1.0000 0.09849  0.00182  0.03594  Biso   1.000  C
  Si19     1.0000 0.13146  0.10791  0.50910  Biso   1.000  Si
  Si20     1.0000 0.09414  0.97414  0.94650  Biso   1.000  Si
  Si21     1.0000 0.06957  0.99220  0.95276  Biso   1.000  Si
  C217     1.0000 0.16311  0.02838  0.56260  Biso   1.000  C
  C218     1.0000 0.06604  0.10067  0.51126  Biso   1.000  C
  C219     1.0000 0.15225  0.21519  0.53263  Biso   1.000  C
  C220     1.0000 0.03226  0.97628  0.91843  Biso   1.000  C
  C221     1.0000 0.11318  0.86403  0.93017  Biso   1.000  C
  C222     1.0000 0.04035  0.89033  0.95203  Biso   1.000  C
  H289     1.0000 0.14755  0.94211  0.92826  Biso   1.000  H
  C223     1.0000 0.13196  0.04467  0.90503  Biso   1.000  C
  C224     1.0000 0.03628  0.06802  0.91907  Biso   1.000  C
  H290     1.0000 0.01476  0.94129  0.94724  Biso   1.000  H
  C225     1.0000 0.12708  0.98698  0.90875  Biso   1.000  C
  H291     1.0000 0.02067  0.03429  0.91927  Biso   1.000  H
  H292     1.0000 0.15237  0.97200  0.54881  Biso   1.000  H
  H293     1.0000 0.15649  0.03788  0.60798  Biso   1.000  H
  H294     1.0000 0.19719  0.03329  0.55947  Biso   1.000  H
  H295     1.0000 0.05037  0.13880  0.47849  Biso   1.000  H
  H296     1.0000 0.05777  0.11659  0.55478  Biso   1.000  H
  H297     1.0000 0.05569  0.04279  0.50157  Biso   1.000  H
  H298     1.0000 0.18666  0.21802  0.53228  Biso   1.000  H
  H299     1.0000 0.14370  0.22828  0.57659  Biso   1.000  H
  H300     1.0000 0.13739  0.25609  0.50138  Biso   1.000  H
  H301     1.0000 0.02757  0.95432  0.87374  Biso   1.000  H
  H302     1.0000 0.10408  0.84981  0.88425  Biso   1.000  H
  H303     1.0000 0.09796  0.82489  0.95834  Biso   1.000  H
  H304     1.0000 0.14755  0.85962  0.93927  Biso   1.000  H
  H305     1.0000 0.04236  0.86321  0.90953  Biso   1.000  H
  H306     1.0000 0.00715  0.89801  0.95956  Biso   1.000  H
  H307     1.0000 0.05595  0.85478  0.98675  Biso   1.000  H
  H308     1.0000 0.13328  0.02599  0.85985  Biso   1.000  H
  H309     1.0000 0.16388  0.04430  0.92787  Biso   1.000  H
  H310     1.0000 0.11916  0.10199  0.90513  Biso   1.000  H
  H311     1.0000 0.01816  0.04618  0.87946  Biso   1.000  H
  H312     1.0000 0.05636  0.11439  0.90753  Biso   1.000  H
  H313     1.0000 0.01446  0.08721  0.94997  Biso   1.000  H
  H314     1.0000 0.11896  0.97508  0.86225  Biso   1.000  H
  H315     1.0000 0.14365  0.04090  0.91374  Biso   1.000  H
  C226     1.0000 0.48504  0.61688  0.68461  Biso   1.000  C
  C227     1.0000 0.51231  0.54930  0.72481  Biso   1.000  C
  H316     1.0000 0.45109  0.61310  0.69101  Biso   1.000  H
  H317     1.0000 0.48849  0.60813  0.63762  Biso   1.000  H
  C228     1.0000 0.50396  0.70421  0.70559  Biso   1.000  C
  C229     1.0000 0.56517  0.55553  0.71561  Biso   1.000  C
  H318     1.0000 0.50029  0.49311  0.71092  Biso   1.000  H
  H319     1.0000 0.50769  0.55660  0.77160  Biso   1.000  H
  C230     1.0000 0.55643  0.71201  0.69630  Biso   1.000  C
  H320     1.0000 0.48597  0.74788  0.67928  Biso   1.000  H
  H321     1.0000 0.49928  0.71371  0.75209  Biso   1.000  H
  C231     1.0000 0.58455  0.64230  0.73405  Biso   1.000  C
  H322     1.0000 0.58276  0.51262  0.74319  Biso   1.000  H
  H323     1.0000 0.56987  0.54357  0.66940  Biso   1.000  H
  N19      1.0000 0.57354  0.79286  0.72260  Biso   1.000  N
  H324     1.0000 0.56107  0.70843  0.64872  Biso   1.000  H
  N20      1.0000 0.63380  0.64802  0.71957  Biso   1.000  N
  H325     1.0000 0.58296  0.65123  0.78197  Biso   1.000  H
  C232     1.0000 0.58526  0.84811  0.68304  Biso   1.000  C
  C233     1.0000 0.66441  0.66803  0.76622  Biso   1.000  C
  C234     1.0000 0.60416  0.93047  0.70676  Biso   1.000  C
  H326     1.0000 0.58188  0.83672  0.63752  Biso   1.000  H
  H327     1.0000 0.65448  0.67961  0.80808  Biso   1.000  H
  C235     1.0000 0.71513  0.67363  0.75659  Biso   1.000  C
  C236     1.0000 0.61328  0.94526  0.77292  Biso   1.000  C
  C237     1.0000 0.61405  0.99421  0.66187  Biso   1.000  C
  C238     1.0000 0.74900  0.68024  0.81116  Biso   1.000  C
  C239     1.0000 0.73023  0.67199  0.69424  Biso   1.000  C
  H328     1.0000 0.60607  0.90279  0.80300  Biso   1.000  H
  C240     1.0000 0.63284  0.02120  0.79698  Biso   1.000  C
  C241     1.0000 0.60310  0.98421  0.59214  Biso   1.000  C
  C242     1.0000 0.63500  0.06902  0.68559  Biso   1.000  C
  C243     1.0000 0.79688  0.68357  0.80119  Biso   1.000  C
  C244     1.0000 0.73554  0.68709  0.87689  Biso   1.000  C
  C245     1.0000 0.77812  0.67753  0.68441  Biso   1.000  C
  H329     1.0000 0.70748  0.66702  0.65737  Biso   1.000  H
  C246     1.0000 0.64563  0.08261  0.75234  Biso   1.000  C
  C247     1.0000 0.63693  0.03530  0.86671  Biso   1.000  C
  C248     1.0000 0.59440  0.97911  0.53380  Biso   1.000  C
  H330     1.0000 0.64217  0.11150  0.65551  Biso   1.000  H
  H331     1.0000 0.81967  0.68672  0.83811  Biso   1.000  H
  C249     1.0000 0.81214  0.68256  0.73908  Biso   1.000  C
  C250     1.0000 0.72637  0.69578  0.93214  Biso   1.000  C
  C251     1.0000 0.79093  0.68269  0.61850  Biso   1.000  C
  C252     1.0000 0.67050  0.16083  0.77537  Biso   1.000  C
  C253     1.0000 0.63609  0.04493  0.92442  Biso   1.000  C
  Si22     1.0000 0.58323  0.97231  0.44446  Biso   1.000  Si
  C254     1.0000 0.86279  0.68917  0.72999  Biso   1.000  C
  Si23     1.0000 0.71792  0.72158  0.01811  Biso   1.000  Si
  C255     1.0000 0.79908  0.69081  0.56275  Biso   1.000  C
  N21      1.0000 0.68695  0.21116  0.73551  Biso   1.000  N
  H332     1.0000 0.67419  0.17328  0.82080  Biso   1.000  H
  Si24     1.0000 0.62711  0.05776  0.01126  Biso   1.000  Si
  C256     1.0000 0.64128  0.95923  0.41062  Biso   1.000  C
  C257     1.0000 0.54278  0.88202  0.42402  Biso   1.000  C
  C258     1.0000 0.55509  0.07097  0.41399  Biso   1.000  C
  N22      1.0000 0.89411  0.68810  0.77869  Biso   1.000  N
  H333     1.0000 0.87227  0.69433  0.68710  Biso   1.000  H
  C259     1.0000 0.73679  0.62902  0.06985  Biso   1.000  C
  C260     1.0000 0.75761  0.81237  0.04075  Biso   1.000  C
  C261     1.0000 0.65420  0.74549  0.02344  Biso   1.000  C
  Si25     1.0000 0.80403  0.71522  0.47541  Biso   1.000  Si
  C262     1.0000 0.71052  0.28704  0.76212  Biso   1.000  C
  C263     1.0000 0.67671  0.01139  0.06432  Biso   1.000  C
  C264     1.0000 0.62321  0.17253  0.02784  Biso   1.000  C
  C265     1.0000 0.57142  0.00050  0.02222  Biso   1.000  C
  H334     1.0000 0.63608  0.95023  0.36318  Biso   1.000  H
  H335     1.0000 0.65789  0.91059  0.43121  Biso   1.000  H
  H336     1.0000 0.66040  0.01000  0.41937  Biso   1.000  H
  H337     1.0000 0.55707  0.83030  0.44270  Biso   1.000  H
  H338     1.0000 0.53718  0.87630  0.37639  Biso   1.000  H
  H339     1.0000 0.51260  0.89203  0.44211  Biso   1.000  H
  H340     1.0000 0.52479  0.07777  0.43228  Biso   1.000  H
  H341     1.0000 0.54990  0.06909  0.36622  Biso   1.000  H
  H342     1.0000 0.57580  0.11848  0.42739  Biso   1.000  H
  C266     1.0000 0.94333  0.69370  0.76476  Biso   1.000  C
  H343     1.0000 0.71720  0.58038  0.05596  Biso   1.000  H
  H344     1.0000 0.73329  0.64179  0.11572  Biso   1.000  H
  H345     1.0000 0.77000  0.61612  0.06486  Biso   1.000  H
  H346     1.0000 0.79060  0.79482  0.04012  Biso   1.000  H
  H347     1.0000 0.75240  0.83200  0.08471  Biso   1.000  H
  H348     1.0000 0.75072  0.85818  0.00936  Biso   1.000  H
  H349     1.0000 0.64446  0.79217  0.99391  Biso   1.000  H
  H350     1.0000 0.64931  0.76122  0.06843  Biso   1.000  H
  H351     1.0000 0.63519  0.69572  0.01063  Biso   1.000  H
  C267     1.0000 0.77093  0.81482  0.45849  Biso   1.000  C
  C268     1.0000 0.77756  0.62612  0.42563  Biso   1.000  C
  C269     1.0000 0.86700  0.73001  0.46099  Biso   1.000  C
  C270     1.0000 0.75987  0.29302  0.73860  Biso   1.000  C
  H352     1.0000 0.71328  0.28472  0.81097  Biso   1.000  H
  C271     1.0000 0.68052  0.36318  0.73864  Biso   1.000  C
  H353     1.0000 0.67891  0.95111  0.05513  Biso   1.000  H
  H354     1.0000 0.70629  0.03907  0.05586  Biso   1.000  H
  H355     1.0000 0.67129  0.01951  0.11034  Biso   1.000  H
  H356     1.0000 0.59886  0.19770  0.99669  Biso   1.000  H
  H357     1.0000 0.65379  0.19902  0.02305  Biso   1.000  H
  H358     1.0000 0.61480  0.18109  0.07244  Biso   1.000  H
  H359     1.0000 0.57036  0.94803  0.99708  Biso   1.000  H
  H360     1.0000 0.57000  0.98773  0.06863  Biso   1.000  H
  H361     1.0000 0.54429  0.03568  0.00662  Biso   1.000  H
  H362     1.0000 0.94479  0.69962  0.71649  Biso   1.000  H
  C272     1.0000 0.96637  0.77072  0.79987  Biso   1.000  C
  C273     1.0000 0.96901  0.61297  0.78882  Biso   1.000  C
  H363     1.0000 0.73698  0.80400  0.45791  Biso   1.000  H
  H364     1.0000 0.77779  0.83697  0.41590  Biso   1.000  H
  H365     1.0000 0.78058  0.85597  0.49267  Biso   1.000  H
  H366     1.0000 0.79528  0.57453  0.43707  Biso   1.000  H
  H367     1.0000 0.77889  0.63833  0.37908  Biso   1.000  H
  H368     1.0000 0.74458  0.61857  0.43448  Biso   1.000  H
  H369     1.0000 0.88088  0.77430  0.48989  Biso   1.000  H
  H370     1.0000 0.86900  0.74630  0.41541  Biso   1.000  H
  H371     1.0000 0.88428  0.67728  0.47008  Biso   1.000  H
  N23      1.0000 0.78931  0.22368  0.76603  Biso   1.000  N
  H372     1.0000 0.75718  0.28937  0.68979  Biso   1.000  H
  C274     1.0000 0.78370  0.37639  0.76031  Biso   1.000  C
  H373     1.0000 0.67469  0.36167  0.69028  Biso   1.000  H
  H374     1.0000 0.64949  0.35997  0.75669  Biso   1.000  H
  C275     1.0000 0.70442  0.44560  0.75938  Biso   1.000  C
  N24      1.0000 0.94265  0.84679  0.77366  Biso   1.000  N
  H375     1.0000 0.96306  0.76663  0.84779  Biso   1.000  H
  C276     1.0000 0.01887  0.77418  0.78911  Biso   1.000  C
  H376     1.0000 0.96477  0.60442  0.83561  Biso   1.000  H
  H377     1.0000 0.95478  0.56427  0.76407  Biso   1.000  H
  C277     1.0000 0.02145  0.61700  0.78021  Biso   1.000  C
  C278     1.0000 0.81182  0.18241  0.72642  Biso   1.000  C
  C279     1.0000 0.75330  0.45139  0.73669  Biso   1.000  C
  H378     1.0000 0.78917  0.37771  0.80857  Biso   1.000  H
  H379     1.0000 0.81478  0.38029  0.74260  Biso   1.000  H
  H380     1.0000 0.68496  0.49298  0.74080  Biso   1.000  H
  H381     1.0000 0.70679  0.45020  0.80759  Biso   1.000  H
  C280     1.0000 0.92338  0.89329  0.81327  Biso   1.000  C
  H382     1.0000 0.02216  0.78078  0.74177  Biso   1.000  H
  H383     1.0000 0.03358  0.82370  0.81219  Biso   1.000  H
  C281     1.0000 0.04416  0.69490  0.81410  Biso   1.000  C
  H384     1.0000 0.02576  0.61883  0.73297  Biso   1.000  H
  H385     1.0000 0.03726  0.56572  0.79899  Biso   1.000  H
  C282     1.0000 0.84326  0.11112  0.74882  Biso   1.000  C
  H386     1.0000 0.80858  0.19732  0.68138  Biso   1.000  H
  H387     1.0000 0.76869  0.50400  0.75351  Biso   1.000  H
  H388     1.0000 0.75078  0.45347  0.68828  Biso   1.000  H
  H389     1.0000 0.92556  0.87837  0.85830  Biso   1.000  H
  C283     1.0000 0.89749  0.97043  0.79131  Biso   1.000  C
  H390     1.0000 0.04277  0.69018  0.86187  Biso   1.000  H
  H391     1.0000 0.07787  0.69798  0.80569  Biso   1.000  H
  C284     1.0000 0.85419  0.09652  0.81527  Biso   1.000  C
  C285     1.0000 0.86182  0.05738  0.70309  Biso   1.000  C
  C286     1.0000 0.88788  0.98691  0.72559  Biso   1.000  C
  C287     1.0000 0.88148  0.02718  0.83718  Biso   1.000  C
  H392     1.0000 0.84296  0.13421  0.84618  Biso   1.000  H
  C288     1.0000 0.85699  0.07481  0.63439  Biso   1.000  C
  H393     1.0000 0.89929  0.94929  0.69468  Biso   1.000  H
  C289     1.0000 0.89219  0.01428  0.90603  Biso   1.000  C
  C290     1.0000 0.85802  0.08790  0.57698  Biso   1.000  C
  C291     1.0000 0.90147  0.00182  0.96403  Biso   1.000  C
  Si26     1.0000 0.86850  0.10791  0.49086  Biso   1.000  Si
  Si27     1.0000 0.90583  0.97414  0.05352  Biso   1.000  Si
  Si28     1.0000 0.93040  0.99220  0.04726  Biso   1.000  Si
  C292     1.0000 0.83688  0.02838  0.43742  Biso   1.000  C
  C293     1.0000 0.93395  0.10067  0.48871  Biso   1.000  C
  C294     1.0000 0.84771  0.21519  0.46739  Biso   1.000  C
  C295     1.0000 0.96770  0.97628  0.08154  Biso   1.000  C
  C296     1.0000 0.88682  0.86403  0.06985  Biso   1.000  C
  C297     1.0000 0.95961  0.89033  0.04794  Biso   1.000  C
  H394     1.0000 0.85241  0.94211  0.07176  Biso   1.000  H
  C298     1.0000 0.86800  0.04467  0.09493  Biso   1.000  C
  C299     1.0000 0.96372  0.06802  0.08095  Biso   1.000  C
  H395     1.0000 0.98520  0.94129  0.05273  Biso   1.000  H
  C300     1.0000 0.87291  0.98698  0.09122  Biso   1.000  C
  H396     1.0000 0.97929  0.03429  0.08075  Biso   1.000  H
  H397     1.0000 0.84760  0.97200  0.45121  Biso   1.000  H
  H398     1.0000 0.84350  0.03788  0.39199  Biso   1.000  H
  H399     1.0000 0.80280  0.03329  0.44050  Biso   1.000  H
  H400     1.0000 0.94959  0.13880  0.52148  Biso   1.000  H
  H401     1.0000 0.94219  0.11659  0.44519  Biso   1.000  H
  H402     1.0000 0.94427  0.04279  0.49840  Biso   1.000  H
  H403     1.0000 0.81330  0.21802  0.46769  Biso   1.000  H
  H404     1.0000 0.85630  0.22828  0.42338  Biso   1.000  H
  H405     1.0000 0.86257  0.25609  0.49859  Biso   1.000  H
  H406     1.0000 0.97239  0.95432  0.12623  Biso   1.000  H
  H407     1.0000 0.89592  0.84981  0.11572  Biso   1.000  H
  H408     1.0000 0.90200  0.82489  0.04163  Biso   1.000  H
  H409     1.0000 0.85241  0.85962  0.06075  Biso   1.000  H
  H410     1.0000 0.95760  0.86321  0.09044  Biso   1.000  H
  H411     1.0000 0.99281  0.89801  0.04046  Biso   1.000  H
  H412     1.0000 0.94401  0.85478  0.01322  Biso   1.000  H
  H413     1.0000 0.86671  0.02599  0.14012  Biso   1.000  H
  H414     1.0000 0.83611  0.04430  0.07215  Biso   1.000  H
  H415     1.0000 0.88080  0.10199  0.09484  Biso   1.000  H
  H416     1.0000 0.98181  0.04618  0.12056  Biso   1.000  H
  H417     1.0000 0.94360  0.11439  0.09244  Biso   1.000  H
  H418     1.0000 0.98550  0.08721  0.05004  Biso   1.000  H
  H419     1.0000 0.88100  0.97508  0.13772  Biso   1.000  H
  H420     1.0000 0.85631  0.04090  0.08623  Biso   1.000  H
