data_image0
_cell_length_a       23.759
_cell_length_b       23.759
_cell_length_c       56.732
_cell_angle_alpha    90
_cell_angle_beta     90
_cell_angle_gamma    90

_symmetry_space_group_name_H-M    "P 1"
_symmetry_int_tables_number       1

loop_
  _symmetry_equiv_pos_as_xyz
  'x, y, z'

loop_
  _atom_site_label
  _atom_site_occupancy
  _atom_site_fract_x
  _atom_site_fract_y
  _atom_site_fract_z
  _atom_site_thermal_displace_type
  _atom_site_B_iso_or_equiv
  _atom_site_type_symbol
  O1       1.0000 0.24690  0.35860  0.48130  Biso   1.000  O
  C1       1.0000 0.30090  0.37741  0.47321  Biso   1.000  C
  H1       1.0000 0.23002  0.38002  0.49189  Biso   1.000  H
  C2       1.0000 0.31319  0.35119  0.44890  Biso   1.000  C
  H2       1.0000 0.33040  0.36609  0.48459  Biso   1.000  H
  H3       1.0000 0.30119  0.41900  0.47190  Biso   1.000  H
  C3       1.0000 0.26819  0.36273  0.42990  Biso   1.000  C
  O2       1.0000 0.31651  0.29012  0.45237  Biso   1.000  O
  H4       1.0000 0.35052  0.36521  0.44310  Biso   1.000  H
  C4       1.0000 0.28970  0.33613  0.40681  Biso   1.000  C
  O3       1.0000 0.26470  0.42249  0.42569  Biso   1.000  O
  H5       1.0000 0.23090  0.34690  0.43460  Biso   1.000  H
  C5       1.0000 0.33600  0.26100  0.43191  Biso   1.000  C
  C6       1.0000 0.29791  0.27282  0.41090  Biso   1.000  C
  O4       1.0000 0.24749  0.34379  0.38818  Biso   1.000  O
  H6       1.0000 0.32611  0.35380  0.40200  Biso   1.000  H
  C7       1.0000 0.21529  0.44821  0.43180  Biso   1.000  C
  O5       1.0000 0.39050  0.27960  0.42567  Biso   1.000  O
  H7       1.0000 0.33680  0.21962  0.43510  Biso   1.000  H
  O6       1.0000 0.32261  0.24908  0.39006  Biso   1.000  O
  H8       1.0000 0.26041  0.25489  0.41359  Biso   1.000  H
  H9       1.0000 0.23250  0.37569  0.38960  Biso   1.000  H
  O7       1.0000 0.22101  0.48091  0.45280  Biso   1.000  O
  C8       1.0000 0.19630  0.48369  0.41150  Biso   1.000  C
  H10      1.0000 0.18641  0.41841  0.43469  Biso   1.000  H
  C9       1.0000 0.43659  0.24012  0.43009  Biso   1.000  C
  H11      1.0000 0.30410  0.22450  0.38500  Biso   1.000  H
  C10      1.0000 0.26230  0.52641  0.44860  Biso   1.000  C
  O8       1.0000 0.19109  0.44859  0.38976  Biso   1.000  O
  C11      1.0000 0.23360  0.53171  0.40720  Biso   1.000  C
  H12      1.0000 0.15809  0.49880  0.41530  Biso   1.000  H
  H13      1.0000 0.42089  0.20279  0.43510  Biso   1.000  H
  C12      1.0000 0.46833  0.23360  0.40720  Biso   1.000  C
  C13      1.0000 0.47359  0.26230  0.44860  Biso   1.000  C
  C14      1.0000 0.24012  0.56341  0.43009  Biso   1.000  C
  H14      1.0000 0.29921  0.51012  0.44359  Biso   1.000  H
  C15      1.0000 0.26790  0.55419  0.47340  Biso   1.000  C
  H15      1.0000 0.18839  0.46980  0.37790  Biso   1.000  H
  O9       1.0000 0.21061  0.56783  0.38867  Biso   1.000  O
  H16      1.0000 0.27131  0.51740  0.40210  Biso   1.000  H
  O10      1.0000 0.43222  0.21061  0.38867  Biso   1.000  O
  H17      1.0000 0.48260  0.27131  0.40210  Biso   1.000  H
  C16      1.0000 0.51631  0.19630  0.41150  Biso   1.000  C
  O11      1.0000 0.51913  0.22101  0.45280  Biso   1.000  O
  H18      1.0000 0.48992  0.29921  0.44359  Biso   1.000  H
  C17      1.0000 0.44581  0.26790  0.47340  Biso   1.000  C
  O12      1.0000 0.27960  0.60950  0.42567  Biso   1.000  O
  H19      1.0000 0.20279  0.57911  0.43510  Biso   1.000  H
  O13      1.0000 0.21832  0.57793  0.48050  Biso   1.000  O
  H20      1.0000 0.27960  0.52540  0.48500  Biso   1.000  H
  H21      1.0000 0.29749  0.58353  0.47291  Biso   1.000  H
  H22      1.0000 0.18831  0.59131  0.39470  Biso   1.000  H
  H23      1.0000 0.40869  0.18831  0.39470  Biso   1.000  H
  O14      1.0000 0.55141  0.19109  0.38976  Biso   1.000  O
  H24      1.0000 0.50120  0.15809  0.41530  Biso   1.000  H
  C18      1.0000 0.55179  0.21529  0.43180  Biso   1.000  C
  O15      1.0000 0.42211  0.21832  0.48050  Biso   1.000  O
  H25      1.0000 0.47460  0.27960  0.48500  Biso   1.000  H
  H26      1.0000 0.41652  0.29749  0.47291  Biso   1.000  H
  C19      1.0000 0.26100  0.66400  0.43191  Biso   1.000  C
  H27      1.0000 0.19268  0.55621  0.48489  Biso   1.000  H
  H28      1.0000 0.53020  0.18839  0.37790  Biso   1.000  H
  O16      1.0000 0.57751  0.26470  0.42569  Biso   1.000  O
  H29      1.0000 0.58159  0.18641  0.43469  Biso   1.000  H
  H30      1.0000 0.44379  0.19268  0.48489  Biso   1.000  H
  O17      1.0000 0.29012  0.68353  0.45237  Biso   1.000  O
  C20      1.0000 0.27282  0.70209  0.41090  Biso   1.000  C
  H31      1.0000 0.21962  0.66320  0.43510  Biso   1.000  H
  C21      1.0000 0.63732  0.26819  0.42990  Biso   1.000  C
  C22      1.0000 0.35119  0.68681  0.44890  Biso   1.000  C
  O18      1.0000 0.24908  0.67743  0.39006  Biso   1.000  O
  C23      1.0000 0.33613  0.71030  0.40681  Biso   1.000  C
  H32      1.0000 0.25489  0.73959  0.41359  Biso   1.000  H
  H33      1.0000 0.65310  0.23090  0.43460  Biso   1.000  H
  C24      1.0000 0.66392  0.28970  0.40681  Biso   1.000  C
  C25      1.0000 0.64881  0.31319  0.44890  Biso   1.000  C
  C26      1.0000 0.36273  0.73181  0.42990  Biso   1.000  C
  H34      1.0000 0.36521  0.64952  0.44310  Biso   1.000  H
  C27      1.0000 0.37741  0.69910  0.47321  Biso   1.000  C
  H35      1.0000 0.22450  0.69590  0.38500  Biso   1.000  H
  O19      1.0000 0.34379  0.75251  0.38818  Biso   1.000  O
  H36      1.0000 0.35380  0.67389  0.40200  Biso   1.000  H
  O20      1.0000 0.65621  0.24749  0.38818  Biso   1.000  O
  H37      1.0000 0.64620  0.32611  0.40200  Biso   1.000  H
  C28      1.0000 0.72722  0.29791  0.41090  Biso   1.000  C
  O21      1.0000 0.70992  0.31651  0.45237  Biso   1.000  O
  H38      1.0000 0.63479  0.35052  0.44310  Biso   1.000  H
  C29      1.0000 0.62263  0.30090  0.47321  Biso   1.000  C
  O22      1.0000 0.42249  0.73530  0.42569  Biso   1.000  O
  H39      1.0000 0.34690  0.76910  0.43460  Biso   1.000  H
  O23      1.0000 0.35860  0.75310  0.48130  Biso   1.000  O
  H40      1.0000 0.36609  0.66960  0.48459  Biso   1.000  H
  H41      1.0000 0.41900  0.69881  0.47190  Biso   1.000  H
  H42      1.0000 0.37569  0.76750  0.38960  Biso   1.000  H
  H43      1.0000 0.62431  0.23250  0.38960  Biso   1.000  H
  O24      1.0000 0.75092  0.32261  0.39006  Biso   1.000  O
  H44      1.0000 0.74511  0.26041  0.41359  Biso   1.000  H
  C30      1.0000 0.73900  0.33600  0.43191  Biso   1.000  C
  O25      1.0000 0.64140  0.24690  0.48130  Biso   1.000  O
  H45      1.0000 0.63391  0.33040  0.48459  Biso   1.000  H
  H46      1.0000 0.58100  0.30119  0.47190  Biso   1.000  H
  C31      1.0000 0.44821  0.78471  0.43180  Biso   1.000  C
  H47      1.0000 0.38002  0.77002  0.49189  Biso   1.000  H
  H48      1.0000 0.77550  0.30410  0.38500  Biso   1.000  H
  O26      1.0000 0.72040  0.39050  0.42567  Biso   1.000  O
  H49      1.0000 0.78042  0.33680  0.43510  Biso   1.000  H
  H50      1.0000 0.62002  0.23002  0.49189  Biso   1.000  H
  O27      1.0000 0.48091  0.77903  0.45280  Biso   1.000  O
  C32      1.0000 0.48369  0.80370  0.41150  Biso   1.000  C
  H51      1.0000 0.41841  0.81363  0.43469  Biso   1.000  H
  C33      1.0000 0.75992  0.43659  0.43009  Biso   1.000  C
  C34      1.0000 0.52641  0.73770  0.44860  Biso   1.000  C
  O28      1.0000 0.44859  0.80891  0.38976  Biso   1.000  O
  C35      1.0000 0.53171  0.76640  0.40720  Biso   1.000  C
  H52      1.0000 0.49880  0.84191  0.41530  Biso   1.000  H
  H53      1.0000 0.79721  0.42089  0.43510  Biso   1.000  H
  C36      1.0000 0.76640  0.46833  0.40720  Biso   1.000  C
  C37      1.0000 0.73770  0.47359  0.44860  Biso   1.000  C
  C38      1.0000 0.56341  0.75992  0.43009  Biso   1.000  C
  H54      1.0000 0.51012  0.70083  0.44359  Biso   1.000  H
  C39      1.0000 0.55419  0.73210  0.47340  Biso   1.000  C
  H55      1.0000 0.46980  0.81161  0.37790  Biso   1.000  H
  O29      1.0000 0.56783  0.78943  0.38867  Biso   1.000  O
  H56      1.0000 0.51740  0.72869  0.40210  Biso   1.000  H
  O30      1.0000 0.78943  0.43222  0.38867  Biso   1.000  O
  H57      1.0000 0.72869  0.48260  0.40210  Biso   1.000  H
  C40      1.0000 0.80370  0.51631  0.41150  Biso   1.000  C
  O31      1.0000 0.77903  0.51913  0.45280  Biso   1.000  O
  H58      1.0000 0.70083  0.48992  0.44359  Biso   1.000  H
  C41      1.0000 0.73210  0.44581  0.47340  Biso   1.000  C
  O32      1.0000 0.60950  0.72040  0.42567  Biso   1.000  O
  H59      1.0000 0.57911  0.79721  0.43510  Biso   1.000  H
  O33      1.0000 0.57793  0.78172  0.48050  Biso   1.000  O
  H60      1.0000 0.52540  0.72040  0.48500  Biso   1.000  H
  H61      1.0000 0.58353  0.70251  0.47291  Biso   1.000  H
  H62      1.0000 0.59131  0.81173  0.39470  Biso   1.000  H
  H63      1.0000 0.81173  0.40869  0.39470  Biso   1.000  H
  O34      1.0000 0.80891  0.55141  0.38976  Biso   1.000  O
  H64      1.0000 0.84191  0.50120  0.41530  Biso   1.000  H
  C42      1.0000 0.78471  0.55179  0.43180  Biso   1.000  C
  O35      1.0000 0.78172  0.42211  0.48050  Biso   1.000  O
  H65      1.0000 0.72040  0.47460  0.48500  Biso   1.000  H
  H66      1.0000 0.70251  0.41652  0.47291  Biso   1.000  H
  C43      1.0000 0.66400  0.73900  0.43191  Biso   1.000  C
  H67      1.0000 0.55621  0.80732  0.48489  Biso   1.000  H
  H68      1.0000 0.81161  0.53020  0.37790  Biso   1.000  H
  O36      1.0000 0.73530  0.57751  0.42569  Biso   1.000  O
  H69      1.0000 0.81363  0.58159  0.43469  Biso   1.000  H
  H70      1.0000 0.80732  0.44379  0.48489  Biso   1.000  H
  O37      1.0000 0.68353  0.70992  0.45237  Biso   1.000  O
  C44      1.0000 0.70209  0.72722  0.41090  Biso   1.000  C
  H71      1.0000 0.66320  0.78042  0.43510  Biso   1.000  H
  C45      1.0000 0.73181  0.63732  0.42990  Biso   1.000  C
  C46      1.0000 0.68681  0.64881  0.44890  Biso   1.000  C
  C47      1.0000 0.71030  0.66392  0.40681  Biso   1.000  C
  O38      1.0000 0.67743  0.75092  0.39006  Biso   1.000  O
  H72      1.0000 0.73959  0.74511  0.41359  Biso   1.000  H
  H73      1.0000 0.76910  0.65310  0.43460  Biso   1.000  H
  H74      1.0000 0.64952  0.63479  0.44310  Biso   1.000  H
  C48      1.0000 0.69910  0.62263  0.47321  Biso   1.000  C
  O39      1.0000 0.75251  0.65621  0.38818  Biso   1.000  O
  H75      1.0000 0.67389  0.64620  0.40200  Biso   1.000  H
  H76      1.0000 0.69590  0.77550  0.38500  Biso   1.000  H
  O40      1.0000 0.75310  0.64140  0.48130  Biso   1.000  O
  H77      1.0000 0.66960  0.63391  0.48459  Biso   1.000  H
  H78      1.0000 0.69881  0.58100  0.47190  Biso   1.000  H
  H79      1.0000 0.76750  0.62431  0.38960  Biso   1.000  H
  H80      1.0000 0.77002  0.62002  0.49189  Biso   1.000  H
  O41      1.0000 0.35860  0.24690  0.51870  Biso   1.000  O
  H81      1.0000 0.38002  0.23002  0.50811  Biso   1.000  H
  C49      1.0000 0.37741  0.30090  0.52679  Biso   1.000  C
  C50      1.0000 0.35119  0.31319  0.55110  Biso   1.000  C
  H82      1.0000 0.36609  0.33040  0.51541  Biso   1.000  H
  H83      1.0000 0.41900  0.30119  0.52810  Biso   1.000  H
  O42      1.0000 0.29012  0.31651  0.54763  Biso   1.000  O
  C51      1.0000 0.36273  0.26819  0.57010  Biso   1.000  C
  H84      1.0000 0.36521  0.35052  0.55690  Biso   1.000  H
  C52      1.0000 0.26100  0.33600  0.56809  Biso   1.000  C
  O43      1.0000 0.42249  0.26470  0.57431  Biso   1.000  O
  H85      1.0000 0.34690  0.23090  0.56540  Biso   1.000  H
  C53      1.0000 0.33613  0.28970  0.59319  Biso   1.000  C
  O44      1.0000 0.27960  0.39050  0.57433  Biso   1.000  O
  C54      1.0000 0.27282  0.29791  0.58910  Biso   1.000  C
  H86      1.0000 0.21962  0.33680  0.56490  Biso   1.000  H
  C55      1.0000 0.44821  0.21529  0.56820  Biso   1.000  C
  O45      1.0000 0.34379  0.24749  0.61182  Biso   1.000  O
  H87      1.0000 0.35380  0.32611  0.59800  Biso   1.000  H
  C56      1.0000 0.24012  0.43659  0.56991  Biso   1.000  C
  O46      1.0000 0.24908  0.32261  0.60994  Biso   1.000  O
  H88      1.0000 0.25489  0.26041  0.58641  Biso   1.000  H
  O47      1.0000 0.48091  0.22101  0.54720  Biso   1.000  O
  C57      1.0000 0.48369  0.19630  0.58850  Biso   1.000  C
  H89      1.0000 0.41841  0.18641  0.56531  Biso   1.000  H
  H90      1.0000 0.37569  0.23250  0.61040  Biso   1.000  H
  H91      1.0000 0.20279  0.42089  0.56490  Biso   1.000  H
  C58      1.0000 0.23360  0.46833  0.59280  Biso   1.000  C
  C59      1.0000 0.26230  0.47359  0.55140  Biso   1.000  C
  H92      1.0000 0.22450  0.30410  0.61500  Biso   1.000  H
  C60      1.0000 0.52641  0.26230  0.55140  Biso   1.000  C
  O48      1.0000 0.44859  0.19109  0.61024  Biso   1.000  O
  C61      1.0000 0.53171  0.23360  0.59280  Biso   1.000  C
  H93      1.0000 0.49880  0.15809  0.58470  Biso   1.000  H
  O49      1.0000 0.21061  0.43222  0.61133  Biso   1.000  O
  H94      1.0000 0.27131  0.48260  0.59790  Biso   1.000  H
  C62      1.0000 0.19630  0.51631  0.58850  Biso   1.000  C
  O50      1.0000 0.22101  0.51913  0.54720  Biso   1.000  O
  H95      1.0000 0.29921  0.48992  0.55641  Biso   1.000  H
  C63      1.0000 0.26790  0.44581  0.52660  Biso   1.000  C
  C64      1.0000 0.56341  0.24012  0.56991  Biso   1.000  C
  H96      1.0000 0.51012  0.29921  0.55641  Biso   1.000  H
  C65      1.0000 0.55419  0.26790  0.52660  Biso   1.000  C
  H97      1.0000 0.46980  0.18839  0.62210  Biso   1.000  H
  O51      1.0000 0.56783  0.21061  0.61133  Biso   1.000  O
  H98      1.0000 0.51740  0.27131  0.59790  Biso   1.000  H
  H99      1.0000 0.18831  0.40869  0.60530  Biso   1.000  H
  O52      1.0000 0.19109  0.55141  0.61024  Biso   1.000  O
  H100     1.0000 0.15809  0.50120  0.58470  Biso   1.000  H
  C66      1.0000 0.21529  0.55179  0.56820  Biso   1.000  C
  O53      1.0000 0.21832  0.42211  0.51950  Biso   1.000  O
  H101     1.0000 0.27960  0.47460  0.51500  Biso   1.000  H
  H102     1.0000 0.29749  0.41652  0.52709  Biso   1.000  H
  O54      1.0000 0.60950  0.27960  0.57433  Biso   1.000  O
  H103     1.0000 0.57911  0.20279  0.56490  Biso   1.000  H
  O55      1.0000 0.57793  0.21832  0.51950  Biso   1.000  O
  H104     1.0000 0.52540  0.27960  0.51500  Biso   1.000  H
  H105     1.0000 0.58353  0.29749  0.52709  Biso   1.000  H
  H106     1.0000 0.59131  0.18831  0.60530  Biso   1.000  H
  H107     1.0000 0.18839  0.53020  0.62210  Biso   1.000  H
  O56      1.0000 0.26470  0.57751  0.57431  Biso   1.000  O
  H108     1.0000 0.18641  0.58159  0.56531  Biso   1.000  H
  H109     1.0000 0.19268  0.44379  0.51511  Biso   1.000  H
  C67      1.0000 0.66400  0.26100  0.56809  Biso   1.000  C
  H110     1.0000 0.55621  0.19268  0.51511  Biso   1.000  H
  C68      1.0000 0.26819  0.63732  0.57010  Biso   1.000  C
  O57      1.0000 0.68353  0.29012  0.54763  Biso   1.000  O
  C69      1.0000 0.70209  0.27282  0.58910  Biso   1.000  C
  H111     1.0000 0.66320  0.21962  0.56490  Biso   1.000  H
  H112     1.0000 0.23090  0.65310  0.56540  Biso   1.000  H
  C70      1.0000 0.28970  0.66392  0.59319  Biso   1.000  C
  C71      1.0000 0.31319  0.64881  0.55110  Biso   1.000  C
  C72      1.0000 0.68681  0.35119  0.55110  Biso   1.000  C
  O58      1.0000 0.67743  0.24908  0.60994  Biso   1.000  O
  C73      1.0000 0.71030  0.33613  0.59319  Biso   1.000  C
  H113     1.0000 0.73959  0.25489  0.58641  Biso   1.000  H
  O59      1.0000 0.24749  0.65621  0.61182  Biso   1.000  O
  H114     1.0000 0.32611  0.64620  0.59800  Biso   1.000  H
  C74      1.0000 0.29791  0.72722  0.58910  Biso   1.000  C
  O60      1.0000 0.31651  0.70992  0.54763  Biso   1.000  O
  H115     1.0000 0.35052  0.63479  0.55690  Biso   1.000  H
  C75      1.0000 0.30090  0.62263  0.52679  Biso   1.000  C
  C76      1.0000 0.73181  0.36273  0.57010  Biso   1.000  C
  H116     1.0000 0.64952  0.36521  0.55690  Biso   1.000  H
  C77      1.0000 0.69910  0.37741  0.52679  Biso   1.000  C
  H117     1.0000 0.69590  0.22450  0.61500  Biso   1.000  H
  O61      1.0000 0.75251  0.34379  0.61182  Biso   1.000  O
  H118     1.0000 0.67389  0.35380  0.59800  Biso   1.000  H
  H119     1.0000 0.23250  0.62431  0.61040  Biso   1.000  H
  O62      1.0000 0.32261  0.75092  0.60994  Biso   1.000  O
  H120     1.0000 0.26041  0.74511  0.58641  Biso   1.000  H
  C78      1.0000 0.33600  0.73900  0.56809  Biso   1.000  C
  O63      1.0000 0.24690  0.64140  0.51870  Biso   1.000  O
  H121     1.0000 0.33040  0.63391  0.51541  Biso   1.000  H
  H122     1.0000 0.30119  0.58100  0.52810  Biso   1.000  H
  O64      1.0000 0.73530  0.42249  0.57431  Biso   1.000  O
  H123     1.0000 0.76910  0.34690  0.56540  Biso   1.000  H
  O65      1.0000 0.75310  0.35860  0.51870  Biso   1.000  O
  H124     1.0000 0.66960  0.36609  0.51541  Biso   1.000  H
  H125     1.0000 0.69881  0.41900  0.52810  Biso   1.000  H
  H126     1.0000 0.76750  0.37569  0.61040  Biso   1.000  H
  H127     1.0000 0.30410  0.77550  0.61500  Biso   1.000  H
  O66      1.0000 0.39050  0.72040  0.57433  Biso   1.000  O
  H128     1.0000 0.33680  0.78042  0.56490  Biso   1.000  H
  H129     1.0000 0.23002  0.62002  0.50811  Biso   1.000  H
  C79      1.0000 0.78471  0.44821  0.56820  Biso   1.000  C
  H130     1.0000 0.77002  0.38002  0.50811  Biso   1.000  H
  C80      1.0000 0.43659  0.75992  0.56991  Biso   1.000  C
  O67      1.0000 0.77903  0.48091  0.54720  Biso   1.000  O
  C81      1.0000 0.80370  0.48369  0.58850  Biso   1.000  C
  H131     1.0000 0.81363  0.41841  0.56531  Biso   1.000  H
  H132     1.0000 0.42089  0.79721  0.56490  Biso   1.000  H
  C82      1.0000 0.46833  0.76640  0.59280  Biso   1.000  C
  C83      1.0000 0.47359  0.73770  0.55140  Biso   1.000  C
  C84      1.0000 0.73770  0.52641  0.55140  Biso   1.000  C
  O68      1.0000 0.80891  0.44859  0.61024  Biso   1.000  O
  C85      1.0000 0.76640  0.53171  0.59280  Biso   1.000  C
  H133     1.0000 0.84191  0.49880  0.58470  Biso   1.000  H
  O69      1.0000 0.43222  0.78943  0.61133  Biso   1.000  O
  H134     1.0000 0.48260  0.72869  0.59790  Biso   1.000  H
  C86      1.0000 0.51631  0.80370  0.58850  Biso   1.000  C
  O70      1.0000 0.51913  0.77903  0.54720  Biso   1.000  O
  H135     1.0000 0.48992  0.70083  0.55641  Biso   1.000  H
  C87      1.0000 0.44581  0.73210  0.52660  Biso   1.000  C
  C88      1.0000 0.75992  0.56341  0.56991  Biso   1.000  C
  H136     1.0000 0.70083  0.51012  0.55641  Biso   1.000  H
  C89      1.0000 0.73210  0.55419  0.52660  Biso   1.000  C
  H137     1.0000 0.81161  0.46980  0.62210  Biso   1.000  H
  O71      1.0000 0.78943  0.56783  0.61133  Biso   1.000  O
  H138     1.0000 0.72869  0.51740  0.59790  Biso   1.000  H
  H139     1.0000 0.40869  0.81173  0.60530  Biso   1.000  H
  O72      1.0000 0.55141  0.80891  0.61024  Biso   1.000  O
  H140     1.0000 0.50120  0.84191  0.58470  Biso   1.000  H
  C90      1.0000 0.55179  0.78471  0.56820  Biso   1.000  C
  O73      1.0000 0.42211  0.78172  0.51950  Biso   1.000  O
  H141     1.0000 0.47460  0.72040  0.51500  Biso   1.000  H
  H142     1.0000 0.41652  0.70251  0.52709  Biso   1.000  H
  O74      1.0000 0.72040  0.60950  0.57433  Biso   1.000  O
  H143     1.0000 0.79721  0.57911  0.56490  Biso   1.000  H
  O75      1.0000 0.78172  0.57793  0.51950  Biso   1.000  O
  H144     1.0000 0.72040  0.52540  0.51500  Biso   1.000  H
  H145     1.0000 0.70251  0.58353  0.52709  Biso   1.000  H
  H146     1.0000 0.81173  0.59131  0.60530  Biso   1.000  H
  H147     1.0000 0.53020  0.81161  0.62210  Biso   1.000  H
  O76      1.0000 0.57751  0.73530  0.57431  Biso   1.000  O
  H148     1.0000 0.58159  0.81363  0.56531  Biso   1.000  H
  H149     1.0000 0.44379  0.80732  0.51511  Biso   1.000  H
  C91      1.0000 0.73900  0.66400  0.56809  Biso   1.000  C
  H150     1.0000 0.80732  0.55621  0.51511  Biso   1.000  H
  C92      1.0000 0.63732  0.73181  0.57010  Biso   1.000  C
  O77      1.0000 0.70992  0.68353  0.54763  Biso   1.000  O
  C93      1.0000 0.72722  0.70209  0.58910  Biso   1.000  C
  H151     1.0000 0.78042  0.66320  0.56490  Biso   1.000  H
  H152     1.0000 0.65310  0.76910  0.56540  Biso   1.000  H
  C94      1.0000 0.66392  0.71030  0.59319  Biso   1.000  C
  C95      1.0000 0.64881  0.68681  0.55110  Biso   1.000  C
  O78      1.0000 0.75092  0.67743  0.60994  Biso   1.000  O
  H153     1.0000 0.74511  0.73959  0.58641  Biso   1.000  H
  O79      1.0000 0.65621  0.75251  0.61182  Biso   1.000  O
  H154     1.0000 0.64620  0.67389  0.59800  Biso   1.000  H
  H155     1.0000 0.63479  0.64952  0.55690  Biso   1.000  H
  C96      1.0000 0.62263  0.69910  0.52679  Biso   1.000  C
  H156     1.0000 0.77550  0.69590  0.61500  Biso   1.000  H
  H157     1.0000 0.62431  0.76750  0.61040  Biso   1.000  H
  O80      1.0000 0.64140  0.75310  0.51870  Biso   1.000  O
  H158     1.0000 0.63391  0.66960  0.51541  Biso   1.000  H
  H159     1.0000 0.58100  0.69881  0.52810  Biso   1.000  H
  H160     1.0000 0.62002  0.77002  0.50811  Biso   1.000  H
  O81      1.0000 0.24399  0.16608  0.38095  Biso   1.000  O
  C97      1.0000 0.23722  0.12458  0.36230  Biso   1.000  C
  H161     1.0000 0.21840  0.19079  0.37760  Biso   1.000  H
  C98      1.0000 0.22042  0.15480  0.33900  Biso   1.000  C
  C99      1.0000 0.29159  0.09432  0.35800  Biso   1.000  C
  H162     1.0000 0.20742  0.09702  0.36679  Biso   1.000  H
  C100     1.0000 0.21280  0.10910  0.31970  Biso   1.000  C
  O82      1.0000 0.16642  0.18069  0.34409  Biso   1.000  O
  H163     1.0000 0.24900  0.18351  0.33431  Biso   1.000  H
  C101     1.0000 0.28671  0.05371  0.33679  Biso   1.000  C
  O83      1.0000 0.30700  0.06208  0.37894  Biso   1.000  O
  H164     1.0000 0.32181  0.12252  0.35470  Biso   1.000  H
  C102     1.0000 0.19950  0.13321  0.29601  Biso   1.000  C
  O84      1.0000 0.26781  0.08308  0.31665  Biso   1.000  O
  H165     1.0000 0.18401  0.08060  0.32451  Biso   1.000  H
  C103     1.0000 0.16272  0.23780  0.33790  Biso   1.000  C
  O85      1.0000 0.24879  0.01048  0.34360  Biso   1.000  O
  H166     1.0000 0.32442  0.03679  0.33350  Biso   1.000  H
  H167     1.0000 0.34109  0.07332  0.38100  Biso   1.000  H
  O86      1.0000 0.24201  0.17168  0.28726  Biso   1.000  O
  H168     1.0000 0.19521  0.10198  0.28460  Biso   1.000  H
  H169     1.0000 0.16310  0.15329  0.29690  Biso   1.000  H
  O87      1.0000 0.13098  0.24521  0.31658  Biso   1.000  O
  H170     1.0000 0.20182  0.25148  0.33491  Biso   1.000  H
  C104     1.0000 0.13919  0.27211  0.35789  Biso   1.000  C
  C105     1.0000 0.26432  0.95383  0.33880  Biso   1.000  C
  H171     1.0000 0.27362  0.15569  0.28730  Biso   1.000  H
  C106     1.0000 0.07298  0.22930  0.32051  Biso   1.000  C
  O88      1.0000 0.17122  0.26150  0.37913  Biso   1.000  O
  H172     1.0000 0.14239  0.31289  0.35389  Biso   1.000  H
  C107     1.0000 0.07791  0.25809  0.36219  Biso   1.000  C
  C108     1.0000 0.25809  0.92213  0.36219  Biso   1.000  C
  H173     1.0000 0.30460  0.95273  0.33380  Biso   1.000  H
  C109     1.0000 0.22930  0.92702  0.32051  Biso   1.000  C
  C110     1.0000 0.04621  0.26432  0.33880  Biso   1.000  C
  H174     1.0000 0.07201  0.18911  0.32571  Biso   1.000  H
  C111     1.0000 0.04558  0.23351  0.29601  Biso   1.000  C
  H175     1.0000 0.19529  0.28490  0.38130  Biso   1.000  H
  O89      1.0000 0.05430  0.29702  0.37885  Biso   1.000  O
  H176     1.0000 0.07429  0.21870  0.36820  Biso   1.000  H
  O90      1.0000 0.29702  0.94570  0.37885  Biso   1.000  O
  C112     1.0000 0.27211  0.86081  0.35789  Biso   1.000  C
  H177     1.0000 0.21870  0.92571  0.36820  Biso   1.000  H
  O91      1.0000 0.24521  0.86902  0.31658  Biso   1.000  O
  H178     1.0000 0.18911  0.92803  0.32571  Biso   1.000  H
  C113     1.0000 0.23351  0.95442  0.29601  Biso   1.000  C
  H179     1.0000 0.04731  0.30460  0.33380  Biso   1.000  H
  O92      1.0000 0.98952  0.24879  0.34360  Biso   1.000  O
  O93      1.0000 0.05089  0.29681  0.28790  Biso   1.000  O
  H180     1.0000 0.00551  0.22219  0.29680  Biso   1.000  H
  H181     1.0000 0.06511  0.20838  0.28471  Biso   1.000  H
  H182     1.0000 0.06200  0.33032  0.37929  Biso   1.000  H
  H183     1.0000 0.33032  0.93800  0.37929  Biso   1.000  H
  O94      1.0000 0.26150  0.82882  0.37913  Biso   1.000  O
  C114     1.0000 0.23780  0.83732  0.33790  Biso   1.000  C
  H184     1.0000 0.31289  0.85761  0.35389  Biso   1.000  H
  O95      1.0000 0.29681  0.94911  0.28790  Biso   1.000  O
  H185     1.0000 0.22219  0.99453  0.29680  Biso   1.000  H
  H186     1.0000 0.20838  0.93493  0.28471  Biso   1.000  H
  C115     1.0000 0.94634  0.28671  0.33679  Biso   1.000  C
  H187     1.0000 0.04861  0.31798  0.29971  Biso   1.000  H
  H188     1.0000 0.28490  0.80471  0.38130  Biso   1.000  H
  O96      1.0000 0.18069  0.83362  0.34409  Biso   1.000  O
  H189     1.0000 0.25148  0.79822  0.33491  Biso   1.000  H
  H190     1.0000 0.31798  0.95143  0.29971  Biso   1.000  H
  O97      1.0000 0.91692  0.26781  0.31665  Biso   1.000  O
  H191     1.0000 0.96321  0.32442  0.33350  Biso   1.000  H
  C116     1.0000 0.90572  0.29159  0.35800  Biso   1.000  C
  C117     1.0000 0.15480  0.77962  0.33900  Biso   1.000  C
  C118     1.0000 0.89090  0.21280  0.31970  Biso   1.000  C
  O98      1.0000 0.93792  0.30700  0.37894  Biso   1.000  O
  H192     1.0000 0.87752  0.32181  0.35470  Biso   1.000  H
  C119     1.0000 0.87542  0.23722  0.36230  Biso   1.000  C
  C120     1.0000 0.12458  0.76283  0.36230  Biso   1.000  C
  H193     1.0000 0.18351  0.75100  0.33431  Biso   1.000  H
  C121     1.0000 0.10910  0.78720  0.31970  Biso   1.000  C
  C122     1.0000 0.84520  0.22042  0.33900  Biso   1.000  C
  H194     1.0000 0.91940  0.18401  0.32451  Biso   1.000  H
  C123     1.0000 0.86683  0.19950  0.29601  Biso   1.000  C
  H195     1.0000 0.92672  0.34109  0.38100  Biso   1.000  H
  O99      1.0000 0.83392  0.24399  0.38095  Biso   1.000  O
  H196     1.0000 0.90303  0.20742  0.36679  Biso   1.000  H
  O100     1.0000 0.16608  0.75601  0.38095  Biso   1.000  O
  C124     1.0000 0.09432  0.70841  0.35800  Biso   1.000  C
  H197     1.0000 0.09702  0.79263  0.36679  Biso   1.000  H
  O101     1.0000 0.08308  0.73223  0.31665  Biso   1.000  O
  H198     1.0000 0.08060  0.81603  0.32451  Biso   1.000  H
  C125     1.0000 0.13321  0.80050  0.29601  Biso   1.000  C
  O102     1.0000 0.81931  0.16642  0.34409  Biso   1.000  O
  H199     1.0000 0.81653  0.24900  0.33431  Biso   1.000  H
  O103     1.0000 0.82832  0.24201  0.28726  Biso   1.000  O
  H200     1.0000 0.89802  0.19521  0.28460  Biso   1.000  H
  H201     1.0000 0.84671  0.16310  0.29690  Biso   1.000  H
  H202     1.0000 0.80921  0.21840  0.37760  Biso   1.000  H
  H203     1.0000 0.19079  0.78160  0.37760  Biso   1.000  H
  O104     1.0000 0.06208  0.69300  0.37894  Biso   1.000  O
  C126     1.0000 0.05371  0.71333  0.33679  Biso   1.000  C
  H204     1.0000 0.12252  0.67823  0.35470  Biso   1.000  H
  O105     1.0000 0.17168  0.75803  0.28726  Biso   1.000  O
  H205     1.0000 0.10198  0.80483  0.28460  Biso   1.000  H
  H206     1.0000 0.15329  0.83690  0.29690  Biso   1.000  H
  C127     1.0000 0.76220  0.16272  0.33790  Biso   1.000  C
  H207     1.0000 0.84431  0.27362  0.28730  Biso   1.000  H
  H208     1.0000 0.07332  0.65891  0.38100  Biso   1.000  H
  O106     1.0000 0.01048  0.75121  0.34360  Biso   1.000  O
  H209     1.0000 0.03679  0.67562  0.33350  Biso   1.000  H
  H210     1.0000 0.15569  0.72642  0.28730  Biso   1.000  H
  O107     1.0000 0.75483  0.13098  0.31658  Biso   1.000  O
  H211     1.0000 0.74852  0.20182  0.33491  Biso   1.000  H
  C128     1.0000 0.72789  0.13919  0.35789  Biso   1.000  C
  C129     1.0000 0.95383  0.73572  0.33880  Biso   1.000  C
  C130     1.0000 0.77070  0.07298  0.32051  Biso   1.000  C
  O108     1.0000 0.73850  0.17122  0.37913  Biso   1.000  O
  H212     1.0000 0.68711  0.14239  0.35389  Biso   1.000  H
  C131     1.0000 0.74191  0.07791  0.36219  Biso   1.000  C
  C132     1.0000 0.92213  0.74191  0.36219  Biso   1.000  C
  H213     1.0000 0.95273  0.69540  0.33380  Biso   1.000  H
  C133     1.0000 0.92702  0.77070  0.32051  Biso   1.000  C
  C134     1.0000 0.73572  0.04621  0.33880  Biso   1.000  C
  H214     1.0000 0.81089  0.07201  0.32571  Biso   1.000  H
  C135     1.0000 0.76653  0.04558  0.29601  Biso   1.000  C
  H215     1.0000 0.71510  0.19529  0.38130  Biso   1.000  H
  O109     1.0000 0.70302  0.05430  0.37885  Biso   1.000  O
  H216     1.0000 0.78130  0.07429  0.36820  Biso   1.000  H
  O110     1.0000 0.94570  0.70302  0.37885  Biso   1.000  O
  C136     1.0000 0.86081  0.72789  0.35789  Biso   1.000  C
  H217     1.0000 0.92571  0.78130  0.36820  Biso   1.000  H
  O111     1.0000 0.86902  0.75483  0.31658  Biso   1.000  O
  H218     1.0000 0.92803  0.81089  0.32571  Biso   1.000  H
  C137     1.0000 0.95442  0.76653  0.29601  Biso   1.000  C
  O112     1.0000 0.75121  0.98952  0.34360  Biso   1.000  O
  H219     1.0000 0.69540  0.04731  0.33380  Biso   1.000  H
  O113     1.0000 0.70323  0.05089  0.28790  Biso   1.000  O
  H220     1.0000 0.77781  0.00551  0.29680  Biso   1.000  H
  H221     1.0000 0.79162  0.06511  0.28471  Biso   1.000  H
  H222     1.0000 0.66973  0.06200  0.37929  Biso   1.000  H
  H223     1.0000 0.93800  0.66973  0.37929  Biso   1.000  H
  O114     1.0000 0.82882  0.73850  0.37913  Biso   1.000  O
  C138     1.0000 0.83732  0.76220  0.33790  Biso   1.000  C
  H224     1.0000 0.85761  0.68711  0.35389  Biso   1.000  H
  O115     1.0000 0.94911  0.70323  0.28790  Biso   1.000  O
  H225     1.0000 0.99453  0.77781  0.29680  Biso   1.000  H
  H226     1.0000 0.93493  0.79162  0.28471  Biso   1.000  H
  C139     1.0000 0.71333  0.94634  0.33679  Biso   1.000  C
  H227     1.0000 0.68202  0.04861  0.29971  Biso   1.000  H
  H228     1.0000 0.80471  0.71510  0.38130  Biso   1.000  H
  O116     1.0000 0.83362  0.81931  0.34409  Biso   1.000  O
  H229     1.0000 0.79822  0.74852  0.33491  Biso   1.000  H
  H230     1.0000 0.95143  0.68202  0.29971  Biso   1.000  H
  O117     1.0000 0.73223  0.91692  0.31665  Biso   1.000  O
  H231     1.0000 0.67562  0.96321  0.33350  Biso   1.000  H
  C140     1.0000 0.70841  0.90572  0.35800  Biso   1.000  C
  C141     1.0000 0.77962  0.84520  0.33900  Biso   1.000  C
  C142     1.0000 0.78720  0.89090  0.31970  Biso   1.000  C
  C143     1.0000 0.76283  0.87542  0.36230  Biso   1.000  C
  O118     1.0000 0.69300  0.93792  0.37894  Biso   1.000  O
  H232     1.0000 0.67823  0.87752  0.35470  Biso   1.000  H
  H233     1.0000 0.75100  0.81653  0.33431  Biso   1.000  H
  H234     1.0000 0.81603  0.91940  0.32451  Biso   1.000  H
  C144     1.0000 0.80050  0.86683  0.29601  Biso   1.000  C
  O119     1.0000 0.75601  0.83392  0.38095  Biso   1.000  O
  H235     1.0000 0.79263  0.90303  0.36679  Biso   1.000  H
  H236     1.0000 0.65891  0.92672  0.38100  Biso   1.000  H
  O120     1.0000 0.75803  0.82832  0.28726  Biso   1.000  O
  H237     1.0000 0.80483  0.89802  0.28460  Biso   1.000  H
  H238     1.0000 0.83690  0.84671  0.29690  Biso   1.000  H
  H239     1.0000 0.78160  0.80921  0.37760  Biso   1.000  H
  H240     1.0000 0.72642  0.84431  0.28730  Biso   1.000  H
  O121     1.0000 0.16608  0.24399  0.61905  Biso   1.000  O
  H241     1.0000 0.19079  0.21840  0.62240  Biso   1.000  H
  C145     1.0000 0.12458  0.23722  0.63770  Biso   1.000  C
  C146     1.0000 0.09432  0.29159  0.64200  Biso   1.000  C
  H242     1.0000 0.09702  0.20742  0.63321  Biso   1.000  H
  C147     1.0000 0.15480  0.22042  0.66100  Biso   1.000  C
  O122     1.0000 0.06208  0.30700  0.62106  Biso   1.000  O
  C148     1.0000 0.05371  0.28671  0.66321  Biso   1.000  C
  H243     1.0000 0.12252  0.32181  0.64530  Biso   1.000  H
  O123     1.0000 0.18069  0.16642  0.65591  Biso   1.000  O
  H244     1.0000 0.18351  0.24900  0.66569  Biso   1.000  H
  C149     1.0000 0.10910  0.21280  0.68030  Biso   1.000  C
  H245     1.0000 0.07332  0.34109  0.61900  Biso   1.000  H
  O124     1.0000 0.01048  0.24879  0.65640  Biso   1.000  O
  O125     1.0000 0.08308  0.26781  0.68335  Biso   1.000  O
  H246     1.0000 0.03679  0.32442  0.66650  Biso   1.000  H
  C150     1.0000 0.23780  0.16272  0.66210  Biso   1.000  C
  H247     1.0000 0.08060  0.18401  0.67549  Biso   1.000  H
  C151     1.0000 0.13321  0.19950  0.70399  Biso   1.000  C
  C152     1.0000 0.95383  0.26432  0.66120  Biso   1.000  C
  O126     1.0000 0.24521  0.13098  0.68342  Biso   1.000  O
  H248     1.0000 0.25148  0.20182  0.66509  Biso   1.000  H
  C153     1.0000 0.27211  0.13919  0.64211  Biso   1.000  C
  O127     1.0000 0.17168  0.24201  0.71274  Biso   1.000  O
  H249     1.0000 0.10198  0.19521  0.71540  Biso   1.000  H
  H250     1.0000 0.15329  0.16310  0.70310  Biso   1.000  H
  C154     1.0000 0.92213  0.25809  0.63781  Biso   1.000  C
  H251     1.0000 0.95273  0.30460  0.66620  Biso   1.000  H
  C155     1.0000 0.92702  0.22930  0.67949  Biso   1.000  C
  C156     1.0000 0.22930  0.07298  0.67949  Biso   1.000  C
  O128     1.0000 0.26150  0.17122  0.62087  Biso   1.000  O
  H252     1.0000 0.31289  0.14239  0.64611  Biso   1.000  H
  C157     1.0000 0.25809  0.07791  0.63781  Biso   1.000  C
  H253     1.0000 0.15569  0.27362  0.71270  Biso   1.000  H
  O129     1.0000 0.94570  0.29702  0.62115  Biso   1.000  O
  C158     1.0000 0.86081  0.27211  0.64211  Biso   1.000  C
  H254     1.0000 0.92571  0.21870  0.63180  Biso   1.000  H
  O130     1.0000 0.86902  0.24521  0.68342  Biso   1.000  O
  H255     1.0000 0.92803  0.18911  0.67429  Biso   1.000  H
  C159     1.0000 0.95442  0.23351  0.70399  Biso   1.000  C
  C160     1.0000 0.26432  0.04621  0.66120  Biso   1.000  C
  H256     1.0000 0.18911  0.07201  0.67429  Biso   1.000  H
  C161     1.0000 0.23351  0.04558  0.70399  Biso   1.000  C
  H257     1.0000 0.28490  0.19529  0.61870  Biso   1.000  H
  O131     1.0000 0.29702  0.05430  0.62115  Biso   1.000  O
  H258     1.0000 0.21870  0.07429  0.63180  Biso   1.000  H
  H259     1.0000 0.93800  0.33032  0.62071  Biso   1.000  H
  O132     1.0000 0.82882  0.26150  0.62087  Biso   1.000  O
  C162     1.0000 0.83732  0.23780  0.66210  Biso   1.000  C
  H260     1.0000 0.85761  0.31289  0.64611  Biso   1.000  H
  O133     1.0000 0.94911  0.29681  0.71210  Biso   1.000  O
  H261     1.0000 0.99453  0.22219  0.70320  Biso   1.000  H
  H262     1.0000 0.93493  0.20838  0.71529  Biso   1.000  H
  H263     1.0000 0.30460  0.04731  0.66620  Biso   1.000  H
  O134     1.0000 0.24879  0.98952  0.65640  Biso   1.000  O
  O135     1.0000 0.29681  0.05089  0.71210  Biso   1.000  O
  H264     1.0000 0.22219  0.00551  0.70320  Biso   1.000  H
  H265     1.0000 0.20838  0.06511  0.71529  Biso   1.000  H
  H266     1.0000 0.33032  0.06200  0.62071  Biso   1.000  H
  H267     1.0000 0.80471  0.28490  0.61870  Biso   1.000  H
  O136     1.0000 0.83362  0.18069  0.65591  Biso   1.000  O
  H268     1.0000 0.79822  0.25148  0.66509  Biso   1.000  H
  H269     1.0000 0.95143  0.31798  0.70029  Biso   1.000  H
  C163     1.0000 0.28671  0.94634  0.66321  Biso   1.000  C
  H270     1.0000 0.31798  0.04861  0.70029  Biso   1.000  H
  C164     1.0000 0.77962  0.15480  0.66100  Biso   1.000  C
  O137     1.0000 0.26781  0.91692  0.68335  Biso   1.000  O
  H271     1.0000 0.32442  0.96321  0.66650  Biso   1.000  H
  C165     1.0000 0.29159  0.90572  0.64200  Biso   1.000  C
  C166     1.0000 0.76283  0.12458  0.63770  Biso   1.000  C
  H272     1.0000 0.75100  0.18351  0.66569  Biso   1.000  H
  C167     1.0000 0.78720  0.10910  0.68030  Biso   1.000  C
  C168     1.0000 0.21280  0.89090  0.68030  Biso   1.000  C
  O138     1.0000 0.30700  0.93792  0.62106  Biso   1.000  O
  H273     1.0000 0.32181  0.87752  0.64530  Biso   1.000  H
  C169     1.0000 0.23722  0.87542  0.63770  Biso   1.000  C
  O139     1.0000 0.75601  0.16608  0.61905  Biso   1.000  O
  C170     1.0000 0.70841  0.09432  0.64200  Biso   1.000  C
  H274     1.0000 0.79263  0.09702  0.63321  Biso   1.000  H
  O140     1.0000 0.73223  0.08308  0.68335  Biso   1.000  O
  H275     1.0000 0.81603  0.08060  0.67549  Biso   1.000  H
  C171     1.0000 0.80050  0.13321  0.70399  Biso   1.000  C
  C172     1.0000 0.22042  0.84520  0.66100  Biso   1.000  C
  H276     1.0000 0.18401  0.91940  0.67549  Biso   1.000  H
  C173     1.0000 0.19950  0.86683  0.70399  Biso   1.000  C
  H277     1.0000 0.34109  0.92672  0.61900  Biso   1.000  H
  O141     1.0000 0.24399  0.83392  0.61905  Biso   1.000  O
  H278     1.0000 0.20742  0.90303  0.63321  Biso   1.000  H
  H279     1.0000 0.78160  0.19079  0.62240  Biso   1.000  H
  O142     1.0000 0.69300  0.06208  0.62106  Biso   1.000  O
  C174     1.0000 0.71333  0.05371  0.66321  Biso   1.000  C
  H280     1.0000 0.67823  0.12252  0.64530  Biso   1.000  H
  O143     1.0000 0.75803  0.17168  0.71274  Biso   1.000  O
  H281     1.0000 0.80483  0.10198  0.71540  Biso   1.000  H
  H282     1.0000 0.83690  0.15329  0.70310  Biso   1.000  H
  O144     1.0000 0.16642  0.81931  0.65591  Biso   1.000  O
  H283     1.0000 0.24900  0.81653  0.66569  Biso   1.000  H
  O145     1.0000 0.24201  0.82832  0.71274  Biso   1.000  O
  H284     1.0000 0.19521  0.89802  0.71540  Biso   1.000  H
  H285     1.0000 0.16310  0.84671  0.70310  Biso   1.000  H
  H286     1.0000 0.21840  0.80921  0.62240  Biso   1.000  H
  H287     1.0000 0.65891  0.07332  0.61900  Biso   1.000  H
  O146     1.0000 0.75121  0.01048  0.65640  Biso   1.000  O
  H288     1.0000 0.67562  0.03679  0.66650  Biso   1.000  H
  H289     1.0000 0.72642  0.15569  0.71270  Biso   1.000  H
  C175     1.0000 0.16272  0.76220  0.66210  Biso   1.000  C
  H290     1.0000 0.27362  0.84431  0.71270  Biso   1.000  H
  C176     1.0000 0.73572  0.95383  0.66120  Biso   1.000  C
  O147     1.0000 0.13098  0.75483  0.68342  Biso   1.000  O
  H291     1.0000 0.20182  0.74852  0.66509  Biso   1.000  H
  C177     1.0000 0.13919  0.72789  0.64211  Biso   1.000  C
  C178     1.0000 0.74191  0.92213  0.63781  Biso   1.000  C
  H292     1.0000 0.69540  0.95273  0.66620  Biso   1.000  H
  C179     1.0000 0.77070  0.92702  0.67949  Biso   1.000  C
  C180     1.0000 0.07298  0.77070  0.67949  Biso   1.000  C
  O148     1.0000 0.17122  0.73850  0.62087  Biso   1.000  O
  H293     1.0000 0.14239  0.68711  0.64611  Biso   1.000  H
  C181     1.0000 0.07791  0.74191  0.63781  Biso   1.000  C
  O149     1.0000 0.70302  0.94570  0.62115  Biso   1.000  O
  C182     1.0000 0.72789  0.86081  0.64211  Biso   1.000  C
  H294     1.0000 0.78130  0.92571  0.63180  Biso   1.000  H
  O150     1.0000 0.75483  0.86902  0.68342  Biso   1.000  O
  H295     1.0000 0.81089  0.92803  0.67429  Biso   1.000  H
  C183     1.0000 0.76653  0.95442  0.70399  Biso   1.000  C
  C184     1.0000 0.04621  0.73572  0.66120  Biso   1.000  C
  H296     1.0000 0.07201  0.81089  0.67429  Biso   1.000  H
  C185     1.0000 0.04558  0.76653  0.70399  Biso   1.000  C
  H297     1.0000 0.19529  0.71510  0.61870  Biso   1.000  H
  O151     1.0000 0.05430  0.70302  0.62115  Biso   1.000  O
  H298     1.0000 0.07429  0.78130  0.63180  Biso   1.000  H
  H299     1.0000 0.66973  0.93800  0.62071  Biso   1.000  H
  O152     1.0000 0.73850  0.82882  0.62087  Biso   1.000  O
  C186     1.0000 0.76220  0.83732  0.66210  Biso   1.000  C
  H300     1.0000 0.68711  0.85761  0.64611  Biso   1.000  H
  O153     1.0000 0.70323  0.94911  0.71210  Biso   1.000  O
  H301     1.0000 0.77781  0.99453  0.70320  Biso   1.000  H
  H302     1.0000 0.79162  0.93493  0.71529  Biso   1.000  H
  O154     1.0000 0.98952  0.75121  0.65640  Biso   1.000  O
  H303     1.0000 0.04731  0.69540  0.66620  Biso   1.000  H
  O155     1.0000 0.05089  0.70323  0.71210  Biso   1.000  O
  H304     1.0000 0.00551  0.77781  0.70320  Biso   1.000  H
  H305     1.0000 0.06511  0.79162  0.71529  Biso   1.000  H
  H306     1.0000 0.06200  0.66973  0.62071  Biso   1.000  H
  H307     1.0000 0.71510  0.80471  0.61870  Biso   1.000  H
  O156     1.0000 0.81931  0.83362  0.65591  Biso   1.000  O
  H308     1.0000 0.74852  0.79822  0.66509  Biso   1.000  H
  H309     1.0000 0.68202  0.95143  0.70029  Biso   1.000  H
  C187     1.0000 0.94634  0.71333  0.66321  Biso   1.000  C
  H310     1.0000 0.04861  0.68202  0.70029  Biso   1.000  H
  C188     1.0000 0.84520  0.77962  0.66100  Biso   1.000  C
  O157     1.0000 0.91692  0.73223  0.68335  Biso   1.000  O
  H311     1.0000 0.96321  0.67562  0.66650  Biso   1.000  H
  C189     1.0000 0.90572  0.70841  0.64200  Biso   1.000  C
  C190     1.0000 0.87542  0.76283  0.63770  Biso   1.000  C
  H312     1.0000 0.81653  0.75100  0.66569  Biso   1.000  H
  C191     1.0000 0.89090  0.78720  0.68030  Biso   1.000  C
  O158     1.0000 0.93792  0.69300  0.62106  Biso   1.000  O
  H313     1.0000 0.87752  0.67823  0.64530  Biso   1.000  H
  O159     1.0000 0.83392  0.75601  0.61905  Biso   1.000  O
  H314     1.0000 0.90303  0.79263  0.63321  Biso   1.000  H
  H315     1.0000 0.91940  0.81603  0.67549  Biso   1.000  H
  C192     1.0000 0.86683  0.80050  0.70399  Biso   1.000  C
  H316     1.0000 0.92672  0.65891  0.61900  Biso   1.000  H
  H317     1.0000 0.80921  0.78160  0.62240  Biso   1.000  H
  O160     1.0000 0.82832  0.75803  0.71274  Biso   1.000  O
  H318     1.0000 0.89802  0.80483  0.71540  Biso   1.000  H
  H319     1.0000 0.84671  0.83690  0.70310  Biso   1.000  H
  H320     1.0000 0.84431  0.72642  0.71270  Biso   1.000  H
  O161     1.0000 0.27888  0.30990  0.34377  Biso   1.000  O
  C193     1.0000 0.28061  0.35132  0.32601  Biso   1.000  C
  H321     1.0000 0.27282  0.32522  0.35691  Biso   1.000  H
  C194     1.0000 0.29980  0.32400  0.30330  Biso   1.000  C
  C195     1.0000 0.22122  0.37489  0.32119  Biso   1.000  C
  H322     1.0000 0.30692  0.38242  0.33061  Biso   1.000  H
  C196     1.0000 0.30351  0.37051  0.28370  Biso   1.000  C
  O162     1.0000 0.35570  0.30132  0.30716  Biso   1.000  O
  H323     1.0000 0.27312  0.29362  0.29851  Biso   1.000  H
  C197     1.0000 0.22168  0.41580  0.30091  Biso   1.000  C
  O163     1.0000 0.19748  0.40242  0.34235  Biso   1.000  O
  H324     1.0000 0.19609  0.34269  0.31689  Biso   1.000  H
  C198     1.0000 0.32203  0.34783  0.26029  Biso   1.000  C
  O164     1.0000 0.24690  0.38979  0.28004  Biso   1.000  O
  H325     1.0000 0.32842  0.40221  0.28890  Biso   1.000  H
  C199     1.0000 0.36172  0.24420  0.30069  Biso   1.000  C
  O165     1.0000 0.25359  0.46391  0.30812  Biso   1.000  O
  H326     1.0000 0.18229  0.42763  0.29720  Biso   1.000  H
  H327     1.0000 0.20451  0.38310  0.35380  Biso   1.000  H
  O166     1.0000 0.28242  0.30422  0.25337  Biso   1.000  O
  H328     1.0000 0.32249  0.37821  0.24840  Biso   1.000  H
  H329     1.0000 0.36041  0.33192  0.26149  Biso   1.000  H
  O167     1.0000 0.39682  0.24029  0.28035  Biso   1.000  O
  H330     1.0000 0.32400  0.22732  0.29740  Biso   1.000  H
  C200     1.0000 0.38891  0.21449  0.32179  Biso   1.000  C
  C201     1.0000 0.22951  0.51812  0.30309  Biso   1.000  C
  Na1      1.0000 0.18389  0.33680  0.24080  Biso   1.000  Na
  H331     1.0000 0.29622  0.28511  0.24230  Biso   1.000  H
  C202     1.0000 0.45301  0.26230  0.28390  Biso   1.000  C
  O168     1.0000 0.35469  0.21701  0.34208  Biso   1.000  O
  H332     1.0000 0.39219  0.17391  0.31749  Biso   1.000  H
  C203     1.0000 0.44699  0.23469  0.32691  Biso   1.000  C
  C204     1.0000 0.23469  0.55301  0.32691  Biso   1.000  C
  H333     1.0000 0.18911  0.51421  0.29840  Biso   1.000  H
  C205     1.0000 0.26230  0.54699  0.28390  Biso   1.000  C
  C206     1.0000 0.48192  0.22951  0.30309  Biso   1.000  C
  C207     1.0000 0.48121  0.26011  0.25999  Biso   1.000  C
  H334     1.0000 0.45002  0.30262  0.28890  Biso   1.000  H
  H335     1.0000 0.35060  0.25068  0.34621  Biso   1.000  H
  O169     1.0000 0.47712  0.20110  0.34362  Biso   1.000  O
  H336     1.0000 0.44602  0.27489  0.33219  Biso   1.000  H
  O170     1.0000 0.20110  0.52292  0.34362  Biso   1.000  O
  C208     1.0000 0.21449  0.61109  0.32179  Biso   1.000  C
  H337     1.0000 0.27489  0.55402  0.33219  Biso   1.000  H
  O171     1.0000 0.24029  0.60322  0.28035  Biso   1.000  O
  C209     1.0000 0.26011  0.51879  0.25999  Biso   1.000  C
  H338     1.0000 0.30262  0.55002  0.28890  Biso   1.000  H
  O172     1.0000 0.53609  0.25359  0.30812  Biso   1.000  O
  H339     1.0000 0.48579  0.18911  0.29840  Biso   1.000  H
  O173     1.0000 0.48491  0.20241  0.25240  Biso   1.000  O
  H340     1.0000 0.45911  0.28221  0.24840  Biso   1.000  H
  H341     1.0000 0.51942  0.27670  0.26100  Biso   1.000  H
  H342     1.0000 0.46109  0.20321  0.35680  Biso   1.000  H
  H343     1.0000 0.20321  0.53891  0.35680  Biso   1.000  H
  O174     1.0000 0.21701  0.64531  0.34208  Biso   1.000  O
  C210     1.0000 0.24420  0.63833  0.30069  Biso   1.000  C
  H344     1.0000 0.17391  0.60781  0.31749  Biso   1.000  H
  O175     1.0000 0.20241  0.51509  0.25240  Biso   1.000  O
  H345     1.0000 0.28221  0.54089  0.24840  Biso   1.000  H
  H346     1.0000 0.27670  0.48062  0.26100  Biso   1.000  H
  C211     1.0000 0.58420  0.22168  0.30091  Biso   1.000  C
  H347     1.0000 0.50911  0.19959  0.24170  Biso   1.000  H
  H348     1.0000 0.25068  0.64940  0.34621  Biso   1.000  H
  O176     1.0000 0.30132  0.64430  0.30716  Biso   1.000  O
  H349     1.0000 0.22732  0.67600  0.29740  Biso   1.000  H
  H350     1.0000 0.19959  0.49089  0.24170  Biso   1.000  H
  O177     1.0000 0.61021  0.24690  0.28004  Biso   1.000  O
  H351     1.0000 0.57241  0.18229  0.29720  Biso   1.000  H
  C212     1.0000 0.62511  0.22122  0.32119  Biso   1.000  C
  C213     1.0000 0.32400  0.70020  0.30330  Biso   1.000  C
  C214     1.0000 0.62953  0.30351  0.28370  Biso   1.000  C
  O178     1.0000 0.59763  0.19748  0.34235  Biso   1.000  O
  H352     1.0000 0.65731  0.19609  0.31689  Biso   1.000  H
  C215     1.0000 0.64872  0.28061  0.32601  Biso   1.000  C
  C216     1.0000 0.35132  0.71943  0.32601  Biso   1.000  C
  H353     1.0000 0.29362  0.72692  0.29851  Biso   1.000  H
  C217     1.0000 0.37051  0.69649  0.28370  Biso   1.000  C
  C218     1.0000 0.67600  0.29980  0.30330  Biso   1.000  C
  H354     1.0000 0.59779  0.32842  0.28890  Biso   1.000  H
  C219     1.0000 0.65222  0.32203  0.26029  Biso   1.000  C
  H355     1.0000 0.61690  0.20451  0.35380  Biso   1.000  H
  O179     1.0000 0.69010  0.27888  0.34377  Biso   1.000  O
  H356     1.0000 0.61762  0.30692  0.33061  Biso   1.000  H
  O180     1.0000 0.30990  0.72112  0.34377  Biso   1.000  O
  C220     1.0000 0.37489  0.77882  0.32119  Biso   1.000  C
  H357     1.0000 0.38242  0.69313  0.33061  Biso   1.000  H
  O181     1.0000 0.38979  0.75310  0.28004  Biso   1.000  O
  H358     1.0000 0.40221  0.67162  0.28890  Biso   1.000  H
  C221     1.0000 0.34783  0.67802  0.26029  Biso   1.000  C
  O182     1.0000 0.69872  0.35570  0.30716  Biso   1.000  O
  H359     1.0000 0.70643  0.27312  0.29851  Biso   1.000  H
  O183     1.0000 0.69582  0.28242  0.25337  Biso   1.000  O
  H360     1.0000 0.62183  0.32249  0.24840  Biso   1.000  H
  H361     1.0000 0.66813  0.36041  0.26149  Biso   1.000  H
  H362     1.0000 0.67482  0.27282  0.35691  Biso   1.000  H
  H363     1.0000 0.32522  0.72722  0.35691  Biso   1.000  H
  O184     1.0000 0.40242  0.80252  0.34235  Biso   1.000  O
  C222     1.0000 0.41580  0.77832  0.30091  Biso   1.000  C
  H364     1.0000 0.34269  0.80391  0.31689  Biso   1.000  H
  O185     1.0000 0.30422  0.71762  0.25337  Biso   1.000  O
  H365     1.0000 0.37821  0.67751  0.24840  Biso   1.000  H
  H366     1.0000 0.33192  0.63963  0.26149  Biso   1.000  H
  C223     1.0000 0.75580  0.36172  0.30069  Biso   1.000  C
  Na2      1.0000 0.66320  0.18389  0.24080  Biso   1.000  Na
  H367     1.0000 0.71493  0.29622  0.24230  Biso   1.000  H
  H368     1.0000 0.38310  0.79553  0.35380  Biso   1.000  H
  O186     1.0000 0.46391  0.74641  0.30812  Biso   1.000  O
  H369     1.0000 0.42763  0.81771  0.29720  Biso   1.000  H
  Na3      1.0000 0.33680  0.81611  0.24080  Biso   1.000  Na
  H370     1.0000 0.28511  0.70382  0.24230  Biso   1.000  H
  O187     1.0000 0.75971  0.39682  0.28035  Biso   1.000  O
  H371     1.0000 0.77272  0.32400  0.29740  Biso   1.000  H
  C224     1.0000 0.78551  0.38891  0.32179  Biso   1.000  C
  C225     1.0000 0.51812  0.77053  0.30309  Biso   1.000  C
  C226     1.0000 0.73770  0.45301  0.28390  Biso   1.000  C
  O188     1.0000 0.78303  0.35469  0.34208  Biso   1.000  O
  H372     1.0000 0.82613  0.39219  0.31749  Biso   1.000  H
  C227     1.0000 0.76531  0.44699  0.32691  Biso   1.000  C
  C228     1.0000 0.55301  0.76531  0.32691  Biso   1.000  C
  H373     1.0000 0.51421  0.81089  0.29840  Biso   1.000  H
  C229     1.0000 0.54699  0.73770  0.28390  Biso   1.000  C
  C230     1.0000 0.77053  0.48192  0.30309  Biso   1.000  C
  C231     1.0000 0.73993  0.48121  0.25999  Biso   1.000  C
  H374     1.0000 0.69742  0.45002  0.28890  Biso   1.000  H
  H375     1.0000 0.74932  0.35060  0.34621  Biso   1.000  H
  O189     1.0000 0.79890  0.47712  0.34362  Biso   1.000  O
  H376     1.0000 0.72511  0.44602  0.33219  Biso   1.000  H
  O190     1.0000 0.52292  0.79890  0.34362  Biso   1.000  O
  C232     1.0000 0.61109  0.78551  0.32179  Biso   1.000  C
  H377     1.0000 0.55402  0.72511  0.33219  Biso   1.000  H
  O191     1.0000 0.60322  0.75971  0.28035  Biso   1.000  O
  C233     1.0000 0.51879  0.73993  0.25999  Biso   1.000  C
  H378     1.0000 0.55002  0.69742  0.28890  Biso   1.000  H
  O192     1.0000 0.74641  0.53609  0.30812  Biso   1.000  O
  H379     1.0000 0.81089  0.48579  0.29840  Biso   1.000  H
  O193     1.0000 0.79759  0.48491  0.25240  Biso   1.000  O
  H380     1.0000 0.71779  0.45911  0.24840  Biso   1.000  H
  H381     1.0000 0.72330  0.51942  0.26100  Biso   1.000  H
  H382     1.0000 0.79679  0.46109  0.35680  Biso   1.000  H
  H383     1.0000 0.53891  0.79679  0.35680  Biso   1.000  H
  O194     1.0000 0.64531  0.78303  0.34208  Biso   1.000  O
  C234     1.0000 0.63833  0.75580  0.30069  Biso   1.000  C
  H384     1.0000 0.60781  0.82613  0.31749  Biso   1.000  H
  O195     1.0000 0.51509  0.79759  0.25240  Biso   1.000  O
  H385     1.0000 0.54089  0.71779  0.24840  Biso   1.000  H
  H386     1.0000 0.48062  0.72330  0.26100  Biso   1.000  H
  C235     1.0000 0.77832  0.58420  0.30091  Biso   1.000  C
  H387     1.0000 0.80041  0.50911  0.24170  Biso   1.000  H
  H388     1.0000 0.64940  0.74932  0.34621  Biso   1.000  H
  O196     1.0000 0.64430  0.69872  0.30716  Biso   1.000  O
  H389     1.0000 0.67600  0.77272  0.29740  Biso   1.000  H
  H390     1.0000 0.49089  0.80041  0.24170  Biso   1.000  H
  O197     1.0000 0.75310  0.61021  0.28004  Biso   1.000  O
  H391     1.0000 0.81771  0.57241  0.29720  Biso   1.000  H
  C236     1.0000 0.77882  0.62511  0.32119  Biso   1.000  C
  C237     1.0000 0.70020  0.67600  0.30330  Biso   1.000  C
  C238     1.0000 0.69649  0.62953  0.28370  Biso   1.000  C
  C239     1.0000 0.71943  0.64872  0.32601  Biso   1.000  C
  O198     1.0000 0.80252  0.59763  0.34235  Biso   1.000  O
  H392     1.0000 0.80391  0.65731  0.31689  Biso   1.000  H
  H393     1.0000 0.72692  0.70643  0.29851  Biso   1.000  H
  H394     1.0000 0.67162  0.59779  0.28890  Biso   1.000  H
  C240     1.0000 0.67802  0.65222  0.26029  Biso   1.000  C
  O199     1.0000 0.72112  0.69010  0.34377  Biso   1.000  O
  H395     1.0000 0.69313  0.61762  0.33061  Biso   1.000  H
  H396     1.0000 0.79553  0.61690  0.35380  Biso   1.000  H
  O200     1.0000 0.71762  0.69582  0.25337  Biso   1.000  O
  H397     1.0000 0.67751  0.62183  0.24840  Biso   1.000  H
  H398     1.0000 0.63963  0.66813  0.26149  Biso   1.000  H
  H399     1.0000 0.72722  0.67482  0.35691  Biso   1.000  H
  Na4      1.0000 0.81611  0.66320  0.24080  Biso   1.000  Na
  H400     1.0000 0.70382  0.71493  0.24230  Biso   1.000  H
  O201     1.0000 0.30990  0.27888  0.65623  Biso   1.000  O
  H401     1.0000 0.32522  0.27282  0.64309  Biso   1.000  H
  C241     1.0000 0.35132  0.28061  0.67399  Biso   1.000  C
  C242     1.0000 0.37489  0.22122  0.67881  Biso   1.000  C
  H402     1.0000 0.38242  0.30692  0.66939  Biso   1.000  H
  C243     1.0000 0.32400  0.29980  0.69670  Biso   1.000  C
  O202     1.0000 0.40242  0.19748  0.65765  Biso   1.000  O
  C244     1.0000 0.41580  0.22168  0.69909  Biso   1.000  C
  H403     1.0000 0.34269  0.19609  0.68311  Biso   1.000  H
  O203     1.0000 0.30132  0.35570  0.69284  Biso   1.000  O
  H404     1.0000 0.29362  0.27312  0.70149  Biso   1.000  H
  C245     1.0000 0.37051  0.30351  0.71630  Biso   1.000  C
  H405     1.0000 0.38310  0.20451  0.64620  Biso   1.000  H
  O204     1.0000 0.46391  0.25359  0.69188  Biso   1.000  O
  O205     1.0000 0.38979  0.24690  0.71996  Biso   1.000  O
  H406     1.0000 0.42763  0.18229  0.70280  Biso   1.000  H
  C246     1.0000 0.24420  0.36172  0.69931  Biso   1.000  C
  H407     1.0000 0.40221  0.32842  0.71110  Biso   1.000  H
  C247     1.0000 0.34783  0.32203  0.73971  Biso   1.000  C
  C248     1.0000 0.51812  0.22951  0.69691  Biso   1.000  C
  O206     1.0000 0.24029  0.39682  0.71965  Biso   1.000  O
  H408     1.0000 0.22732  0.32400  0.70260  Biso   1.000  H
  C249     1.0000 0.21449  0.38891  0.67821  Biso   1.000  C
  O207     1.0000 0.30422  0.28242  0.74663  Biso   1.000  O
  H409     1.0000 0.37821  0.32249  0.75160  Biso   1.000  H
  H410     1.0000 0.33192  0.36041  0.73851  Biso   1.000  H
  C250     1.0000 0.55301  0.23469  0.67309  Biso   1.000  C
  H411     1.0000 0.51421  0.18911  0.70160  Biso   1.000  H
  C251     1.0000 0.54699  0.26230  0.71610  Biso   1.000  C
  C252     1.0000 0.26230  0.45301  0.71610  Biso   1.000  C
  O208     1.0000 0.21701  0.35469  0.65792  Biso   1.000  O
  H412     1.0000 0.17391  0.39219  0.68251  Biso   1.000  H
  C253     1.0000 0.23469  0.44699  0.67309  Biso   1.000  C
  Na5      1.0000 0.33680  0.18389  0.75920  Biso   1.000  Na
  H413     1.0000 0.28511  0.29622  0.75770  Biso   1.000  H
  O209     1.0000 0.52292  0.20110  0.65638  Biso   1.000  O
  C254     1.0000 0.61109  0.21449  0.67821  Biso   1.000  C
  H414     1.0000 0.55402  0.27489  0.66781  Biso   1.000  H
  O210     1.0000 0.60322  0.24029  0.71965  Biso   1.000  O
  C255     1.0000 0.51879  0.26011  0.74001  Biso   1.000  C
  H415     1.0000 0.55002  0.30262  0.71110  Biso   1.000  H
  C256     1.0000 0.22951  0.48192  0.69691  Biso   1.000  C
  C257     1.0000 0.26011  0.48121  0.74001  Biso   1.000  C
  H416     1.0000 0.30262  0.45002  0.71110  Biso   1.000  H
  H417     1.0000 0.25068  0.35060  0.65379  Biso   1.000  H
  O211     1.0000 0.20110  0.47712  0.65638  Biso   1.000  O
  H418     1.0000 0.27489  0.44602  0.66781  Biso   1.000  H
  H419     1.0000 0.53891  0.20321  0.64320  Biso   1.000  H
  O212     1.0000 0.64531  0.21701  0.65792  Biso   1.000  O
  C258     1.0000 0.63833  0.24420  0.69931  Biso   1.000  C
  H420     1.0000 0.60781  0.17391  0.68251  Biso   1.000  H
  O213     1.0000 0.51509  0.20241  0.74760  Biso   1.000  O
  H421     1.0000 0.54089  0.28221  0.75160  Biso   1.000  H
  H422     1.0000 0.48062  0.27670  0.73900  Biso   1.000  H
  O214     1.0000 0.25359  0.53609  0.69188  Biso   1.000  O
  H423     1.0000 0.18911  0.48579  0.70160  Biso   1.000  H
  O215     1.0000 0.20241  0.48491  0.74760  Biso   1.000  O
  H424     1.0000 0.28221  0.45911  0.75160  Biso   1.000  H
  H425     1.0000 0.27670  0.51942  0.73900  Biso   1.000  H
  H426     1.0000 0.20321  0.46109  0.64320  Biso   1.000  H
  H427     1.0000 0.64940  0.25068  0.65379  Biso   1.000  H
  O216     1.0000 0.64430  0.30132  0.69284  Biso   1.000  O
  H428     1.0000 0.67600  0.22732  0.70260  Biso   1.000  H
  H429     1.0000 0.49089  0.19959  0.75830  Biso   1.000  H
  C259     1.0000 0.22168  0.58420  0.69909  Biso   1.000  C
  H430     1.0000 0.19959  0.50911  0.75830  Biso   1.000  H
  C260     1.0000 0.70020  0.32400  0.69670  Biso   1.000  C
  O217     1.0000 0.24690  0.61021  0.71996  Biso   1.000  O
  H431     1.0000 0.18229  0.57241  0.70280  Biso   1.000  H
  C261     1.0000 0.22122  0.62511  0.67881  Biso   1.000  C
  C262     1.0000 0.71943  0.35132  0.67399  Biso   1.000  C
  H432     1.0000 0.72692  0.29362  0.70149  Biso   1.000  H
  C263     1.0000 0.69649  0.37051  0.71630  Biso   1.000  C
  C264     1.0000 0.30351  0.62953  0.71630  Biso   1.000  C
  O218     1.0000 0.19748  0.59763  0.65765  Biso   1.000  O
  H433     1.0000 0.19609  0.65731  0.68311  Biso   1.000  H
  C265     1.0000 0.28061  0.64872  0.67399  Biso   1.000  C
  O219     1.0000 0.72112  0.30990  0.65623  Biso   1.000  O
  C266     1.0000 0.77882  0.37489  0.67881  Biso   1.000  C
  H434     1.0000 0.69313  0.38242  0.66939  Biso   1.000  H
  O220     1.0000 0.75310  0.38979  0.71996  Biso   1.000  O
  H435     1.0000 0.67162  0.40221  0.71110  Biso   1.000  H
  C267     1.0000 0.67802  0.34783  0.73971  Biso   1.000  C
  C268     1.0000 0.29980  0.67600  0.69670  Biso   1.000  C
  H436     1.0000 0.32842  0.59779  0.71110  Biso   1.000  H
  C269     1.0000 0.32203  0.65222  0.73971  Biso   1.000  C
  H437     1.0000 0.20451  0.61690  0.64620  Biso   1.000  H
  O221     1.0000 0.27888  0.69010  0.65623  Biso   1.000  O
  H438     1.0000 0.30692  0.61762  0.66939  Biso   1.000  H
  H439     1.0000 0.72722  0.32522  0.64309  Biso   1.000  H
  O222     1.0000 0.80252  0.40242  0.65765  Biso   1.000  O
  C270     1.0000 0.77832  0.41580  0.69909  Biso   1.000  C
  H440     1.0000 0.80391  0.34269  0.68311  Biso   1.000  H
  O223     1.0000 0.71762  0.30422  0.74663  Biso   1.000  O
  H441     1.0000 0.67751  0.37821  0.75160  Biso   1.000  H
  H442     1.0000 0.63963  0.33192  0.73851  Biso   1.000  H
  O224     1.0000 0.35570  0.69872  0.69284  Biso   1.000  O
  H443     1.0000 0.27312  0.70643  0.70149  Biso   1.000  H
  O225     1.0000 0.28242  0.69582  0.74663  Biso   1.000  O
  H444     1.0000 0.32249  0.62183  0.75160  Biso   1.000  H
  H445     1.0000 0.36041  0.66813  0.73851  Biso   1.000  H
  H446     1.0000 0.27282  0.67482  0.64309  Biso   1.000  H
  H447     1.0000 0.79553  0.38310  0.64620  Biso   1.000  H
  O226     1.0000 0.74641  0.46391  0.69188  Biso   1.000  O
  H448     1.0000 0.81771  0.42763  0.70280  Biso   1.000  H
  Na6      1.0000 0.81611  0.33680  0.75920  Biso   1.000  Na
  H449     1.0000 0.70382  0.28511  0.75770  Biso   1.000  H
  C271     1.0000 0.36172  0.75580  0.69931  Biso   1.000  C
  Na7      1.0000 0.18389  0.66320  0.75920  Biso   1.000  Na
  H450     1.0000 0.29622  0.71493  0.75770  Biso   1.000  H
  C272     1.0000 0.77053  0.51812  0.69691  Biso   1.000  C
  O227     1.0000 0.39682  0.75971  0.71965  Biso   1.000  O
  H451     1.0000 0.32400  0.77272  0.70260  Biso   1.000  H
  C273     1.0000 0.38891  0.78551  0.67821  Biso   1.000  C
  C274     1.0000 0.76531  0.55301  0.67309  Biso   1.000  C
  H452     1.0000 0.81089  0.51421  0.70160  Biso   1.000  H
  C275     1.0000 0.73770  0.54699  0.71610  Biso   1.000  C
  C276     1.0000 0.45301  0.73770  0.71610  Biso   1.000  C
  O228     1.0000 0.35469  0.78303  0.65792  Biso   1.000  O
  H453     1.0000 0.39219  0.82613  0.68251  Biso   1.000  H
  C277     1.0000 0.44699  0.76531  0.67309  Biso   1.000  C
  O229     1.0000 0.79890  0.52292  0.65638  Biso   1.000  O
  C278     1.0000 0.78551  0.61109  0.67821  Biso   1.000  C
  H454     1.0000 0.72511  0.55402  0.66781  Biso   1.000  H
  O230     1.0000 0.75971  0.60322  0.71965  Biso   1.000  O
  C279     1.0000 0.73993  0.51879  0.74001  Biso   1.000  C
  H455     1.0000 0.69742  0.55002  0.71110  Biso   1.000  H
  C280     1.0000 0.48192  0.77053  0.69691  Biso   1.000  C
  C281     1.0000 0.48121  0.73993  0.74001  Biso   1.000  C
  H456     1.0000 0.45002  0.69742  0.71110  Biso   1.000  H
  H457     1.0000 0.35060  0.74932  0.65379  Biso   1.000  H
  O231     1.0000 0.47712  0.79890  0.65638  Biso   1.000  O
  H458     1.0000 0.44602  0.72511  0.66781  Biso   1.000  H
  H459     1.0000 0.79679  0.53891  0.64320  Biso   1.000  H
  O232     1.0000 0.78303  0.64531  0.65792  Biso   1.000  O
  C282     1.0000 0.75580  0.63833  0.69931  Biso   1.000  C
  H460     1.0000 0.82613  0.60781  0.68251  Biso   1.000  H
  O233     1.0000 0.79759  0.51509  0.74760  Biso   1.000  O
  H461     1.0000 0.71779  0.54089  0.75160  Biso   1.000  H
  H462     1.0000 0.72330  0.48062  0.73900  Biso   1.000  H
  O234     1.0000 0.53609  0.74641  0.69188  Biso   1.000  O
  H463     1.0000 0.48579  0.81089  0.70160  Biso   1.000  H
  O235     1.0000 0.48491  0.79759  0.74760  Biso   1.000  O
  H464     1.0000 0.45911  0.71779  0.75160  Biso   1.000  H
  H465     1.0000 0.51942  0.72330  0.73900  Biso   1.000  H
  H466     1.0000 0.46109  0.79679  0.64320  Biso   1.000  H
  H467     1.0000 0.74932  0.64940  0.65379  Biso   1.000  H
  O236     1.0000 0.69872  0.64430  0.69284  Biso   1.000  O
  H468     1.0000 0.77272  0.67600  0.70260  Biso   1.000  H
  H469     1.0000 0.80041  0.49089  0.75830  Biso   1.000  H
  C283     1.0000 0.58420  0.77832  0.69909  Biso   1.000  C
  H470     1.0000 0.50911  0.80041  0.75830  Biso   1.000  H
  C284     1.0000 0.67600  0.70020  0.69670  Biso   1.000  C
  O237     1.0000 0.61021  0.75310  0.71996  Biso   1.000  O
  H471     1.0000 0.57241  0.81771  0.70280  Biso   1.000  H
  C285     1.0000 0.62511  0.77882  0.67881  Biso   1.000  C
  C286     1.0000 0.64872  0.71943  0.67399  Biso   1.000  C
  H472     1.0000 0.70643  0.72692  0.70149  Biso   1.000  H
  C287     1.0000 0.62953  0.69649  0.71630  Biso   1.000  C
  O238     1.0000 0.59763  0.80252  0.65765  Biso   1.000  O
  H473     1.0000 0.65731  0.80391  0.68311  Biso   1.000  H
  O239     1.0000 0.69010  0.72112  0.65623  Biso   1.000  O
  H474     1.0000 0.61762  0.69313  0.66939  Biso   1.000  H
  H475     1.0000 0.59779  0.67162  0.71110  Biso   1.000  H
  C288     1.0000 0.65222  0.67802  0.73971  Biso   1.000  C
  H476     1.0000 0.61690  0.79553  0.64620  Biso   1.000  H
  H477     1.0000 0.67482  0.72722  0.64309  Biso   1.000  H
  O240     1.0000 0.69582  0.71762  0.74663  Biso   1.000  O
  H478     1.0000 0.62183  0.67751  0.75160  Biso   1.000  H
  H479     1.0000 0.66813  0.63963  0.73851  Biso   1.000  H
  Na8      1.0000 0.66320  0.81611  0.75920  Biso   1.000  Na
  H480     1.0000 0.71493  0.70382  0.75770  Biso   1.000  H
  Na9      1.0000 0.16322  0.31609  0.25920  Biso   1.000  Na
  O241     1.0000 0.19580  0.21760  0.24663  Biso   1.000  O
  H481     1.0000 0.21491  0.20380  0.25770  Biso   1.000  H
  C289     1.0000 0.15219  0.17800  0.23971  Biso   1.000  C
  C290     1.0000 0.12951  0.19652  0.21630  Biso   1.000  C
  H482     1.0000 0.12181  0.17749  0.25160  Biso   1.000  H
  H483     1.0000 0.16810  0.13961  0.23851  Biso   1.000  H
  O242     1.0000 0.11019  0.25313  0.21996  Biso   1.000  O
  C291     1.0000 0.17602  0.20022  0.19670  Biso   1.000  C
  H484     1.0000 0.09782  0.17160  0.21110  Biso   1.000  H
  C292     1.0000 0.08422  0.27829  0.19909  Biso   1.000  C
  O243     1.0000 0.19870  0.14428  0.19284  Biso   1.000  O
  C293     1.0000 0.14870  0.21941  0.17399  Biso   1.000  C
  H485     1.0000 0.20641  0.22690  0.20149  Biso   1.000  H
  O244     1.0000 0.03611  0.24639  0.19188  Biso   1.000  O
  H486     1.0000 0.07239  0.31769  0.20280  Biso   1.000  H
  C294     1.0000 0.12509  0.27880  0.17881  Biso   1.000  C
  C295     1.0000 0.25582  0.13831  0.19931  Biso   1.000  C
  O245     1.0000 0.19012  0.22110  0.15623  Biso   1.000  O
  H487     1.0000 0.11760  0.19311  0.16939  Biso   1.000  H
  C296     1.0000 0.98190  0.27051  0.19691  Biso   1.000  C
  O246     1.0000 0.09761  0.30250  0.15765  Biso   1.000  O
  H488     1.0000 0.15729  0.30388  0.18311  Biso   1.000  H
  O247     1.0000 0.25969  0.10320  0.21965  Biso   1.000  O
  H489     1.0000 0.27270  0.17602  0.20260  Biso   1.000  H
  C297     1.0000 0.28549  0.11112  0.17821  Biso   1.000  C
  H490     1.0000 0.17480  0.22720  0.14309  Biso   1.000  H
  C298     1.0000 0.94701  0.26529  0.17309  Biso   1.000  C
  H491     1.0000 0.98582  0.31091  0.20160  Biso   1.000  H
  C299     1.0000 0.95303  0.23772  0.21610  Biso   1.000  C
  H492     1.0000 0.11688  0.29551  0.14620  Biso   1.000  H
  C300     1.0000 0.23772  0.04701  0.21610  Biso   1.000  C
  O248     1.0000 0.28301  0.14529  0.15792  Biso   1.000  O
  H493     1.0000 0.32611  0.10779  0.18251  Biso   1.000  H
  C301     1.0000 0.26529  0.05299  0.17309  Biso   1.000  C
  O249     1.0000 0.97710  0.29892  0.15638  Biso   1.000  O
  C302     1.0000 0.88893  0.28549  0.17821  Biso   1.000  C
  H494     1.0000 0.94600  0.22509  0.16781  Biso   1.000  H
  O250     1.0000 0.89680  0.25969  0.21965  Biso   1.000  O
  C303     1.0000 0.98123  0.23991  0.24001  Biso   1.000  C
  H495     1.0000 0.95000  0.19740  0.21110  Biso   1.000  H
  C304     1.0000 0.27051  0.01810  0.19691  Biso   1.000  C
  C305     1.0000 0.23991  0.01881  0.24001  Biso   1.000  C
  H496     1.0000 0.19740  0.05000  0.21110  Biso   1.000  H
  H497     1.0000 0.24930  0.14942  0.15379  Biso   1.000  H
  O251     1.0000 0.29892  0.02290  0.15638  Biso   1.000  O
  H498     1.0000 0.22509  0.05400  0.16781  Biso   1.000  H
  H499     1.0000 0.96111  0.29681  0.14320  Biso   1.000  H
  O252     1.0000 0.85471  0.28301  0.15792  Biso   1.000  O
  C306     1.0000 0.86169  0.25582  0.19931  Biso   1.000  C
  H500     1.0000 0.89221  0.32611  0.18251  Biso   1.000  H
  H501     1.0000 0.01940  0.22328  0.23900  Biso   1.000  H
  O253     1.0000 0.98493  0.29761  0.24760  Biso   1.000  O
  H502     1.0000 0.95913  0.21781  0.25160  Biso   1.000  H
  H503     1.0000 0.31091  0.01418  0.20160  Biso   1.000  H
  O254     1.0000 0.24639  0.96393  0.19188  Biso   1.000  O
  O255     1.0000 0.29761  0.01511  0.24760  Biso   1.000  O
  H504     1.0000 0.21781  0.04091  0.25160  Biso   1.000  H
  H505     1.0000 0.22328  0.98060  0.23900  Biso   1.000  H
  H506     1.0000 0.29681  0.03889  0.14320  Biso   1.000  H
  H507     1.0000 0.85063  0.24930  0.15379  Biso   1.000  H
  O256     1.0000 0.85572  0.19870  0.19284  Biso   1.000  O
  H508     1.0000 0.82402  0.27270  0.20260  Biso   1.000  H
  H509     1.0000 0.00909  0.30039  0.25830  Biso   1.000  H
  C307     1.0000 0.27829  0.91582  0.19909  Biso   1.000  C
  H510     1.0000 0.30039  0.99091  0.25830  Biso   1.000  H
  C308     1.0000 0.79982  0.17602  0.19670  Biso   1.000  C
  O257     1.0000 0.25313  0.88981  0.21996  Biso   1.000  O
  H511     1.0000 0.31769  0.92761  0.20280  Biso   1.000  H
  C309     1.0000 0.27880  0.87491  0.17881  Biso   1.000  C
  C310     1.0000 0.78063  0.14870  0.17399  Biso   1.000  C
  H512     1.0000 0.77310  0.20641  0.20149  Biso   1.000  H
  C311     1.0000 0.80353  0.12951  0.21630  Biso   1.000  C
  C312     1.0000 0.19652  0.87053  0.21630  Biso   1.000  C
  O258     1.0000 0.30250  0.90239  0.15765  Biso   1.000  O
  H513     1.0000 0.30388  0.84271  0.18311  Biso   1.000  H
  C313     1.0000 0.21941  0.85130  0.17399  Biso   1.000  C
  O259     1.0000 0.77890  0.19012  0.15623  Biso   1.000  O
  C314     1.0000 0.72120  0.12509  0.17881  Biso   1.000  C
  H514     1.0000 0.80689  0.11760  0.16939  Biso   1.000  H
  O260     1.0000 0.74692  0.11019  0.21996  Biso   1.000  O
  H515     1.0000 0.82840  0.09782  0.21110  Biso   1.000  H
  C315     1.0000 0.82200  0.15219  0.23971  Biso   1.000  C
  C316     1.0000 0.20022  0.82402  0.19670  Biso   1.000  C
  H516     1.0000 0.17160  0.90223  0.21110  Biso   1.000  H
  C317     1.0000 0.17800  0.84781  0.23971  Biso   1.000  C
  H517     1.0000 0.29551  0.88312  0.14620  Biso   1.000  H
  O261     1.0000 0.22110  0.80992  0.15623  Biso   1.000  O
  H518     1.0000 0.19311  0.88240  0.16939  Biso   1.000  H
  H519     1.0000 0.77280  0.17480  0.14309  Biso   1.000  H
  O262     1.0000 0.69750  0.09761  0.15765  Biso   1.000  O
  C318     1.0000 0.72171  0.08422  0.19909  Biso   1.000  C
  H520     1.0000 0.69612  0.15729  0.18311  Biso   1.000  H
  O263     1.0000 0.78240  0.19580  0.24663  Biso   1.000  O
  H521     1.0000 0.82251  0.12181  0.25160  Biso   1.000  H
  H522     1.0000 0.86043  0.16810  0.23851  Biso   1.000  H
  O264     1.0000 0.14428  0.80130  0.19284  Biso   1.000  O
  H523     1.0000 0.22690  0.79359  0.20149  Biso   1.000  H
  O265     1.0000 0.21760  0.80420  0.24663  Biso   1.000  O
  H524     1.0000 0.17749  0.87824  0.25160  Biso   1.000  H
  H525     1.0000 0.13961  0.83190  0.23851  Biso   1.000  H
  H526     1.0000 0.22720  0.82520  0.14309  Biso   1.000  H
  H527     1.0000 0.70449  0.11688  0.14620  Biso   1.000  H
  O266     1.0000 0.75361  0.03611  0.19188  Biso   1.000  O
  H528     1.0000 0.68231  0.07239  0.20280  Biso   1.000  H
  Na10     1.0000 0.68391  0.16322  0.25920  Biso   1.000  Na
  H529     1.0000 0.79620  0.21491  0.25770  Biso   1.000  H
  C319     1.0000 0.13831  0.74422  0.19931  Biso   1.000  C
  Na11     1.0000 0.31609  0.83682  0.25920  Biso   1.000  Na
  H530     1.0000 0.20380  0.78513  0.25770  Biso   1.000  H
  C320     1.0000 0.72949  0.98190  0.19691  Biso   1.000  C
  O267     1.0000 0.10320  0.74031  0.21965  Biso   1.000  O
  H531     1.0000 0.17602  0.72730  0.20260  Biso   1.000  H
  C321     1.0000 0.11112  0.71451  0.17821  Biso   1.000  C
  C322     1.0000 0.73471  0.94701  0.17309  Biso   1.000  C
  H532     1.0000 0.68913  0.98582  0.20160  Biso   1.000  H
  C323     1.0000 0.76232  0.95303  0.21610  Biso   1.000  C
  C324     1.0000 0.04701  0.76232  0.21610  Biso   1.000  C
  O268     1.0000 0.14529  0.71699  0.15792  Biso   1.000  O
  H533     1.0000 0.10779  0.67389  0.18251  Biso   1.000  H
  C325     1.0000 0.05299  0.73471  0.17309  Biso   1.000  C
  O269     1.0000 0.70112  0.97710  0.15638  Biso   1.000  O
  C326     1.0000 0.71451  0.88893  0.17821  Biso   1.000  C
  H534     1.0000 0.77491  0.94600  0.16781  Biso   1.000  H
  O270     1.0000 0.74031  0.89680  0.21965  Biso   1.000  O
  C327     1.0000 0.76013  0.98123  0.24001  Biso   1.000  C
  H535     1.0000 0.80260  0.95000  0.21110  Biso   1.000  H
  C328     1.0000 0.01810  0.72949  0.19691  Biso   1.000  C
  C329     1.0000 0.01881  0.76013  0.24001  Biso   1.000  C
  H536     1.0000 0.05000  0.80260  0.21110  Biso   1.000  H
  H537     1.0000 0.14942  0.75070  0.15379  Biso   1.000  H
  O271     1.0000 0.02290  0.70112  0.15638  Biso   1.000  O
  H538     1.0000 0.05400  0.77491  0.16781  Biso   1.000  H
  H539     1.0000 0.70323  0.96111  0.14320  Biso   1.000  H
  O272     1.0000 0.71699  0.85471  0.15792  Biso   1.000  O
  C330     1.0000 0.74422  0.86169  0.19931  Biso   1.000  C
  H540     1.0000 0.67389  0.89221  0.18251  Biso   1.000  H
  O273     1.0000 0.70243  0.98493  0.24760  Biso   1.000  O
  H541     1.0000 0.78223  0.95913  0.25160  Biso   1.000  H
  H542     1.0000 0.77672  0.01940  0.23900  Biso   1.000  H
  O274     1.0000 0.96393  0.75361  0.19188  Biso   1.000  O
  H543     1.0000 0.01418  0.68913  0.20160  Biso   1.000  H
  H544     1.0000 0.98060  0.77672  0.23900  Biso   1.000  H
  O275     1.0000 0.01511  0.70243  0.24760  Biso   1.000  O
  H545     1.0000 0.04091  0.78223  0.25160  Biso   1.000  H
  H546     1.0000 0.03889  0.70323  0.14320  Biso   1.000  H
  H547     1.0000 0.75070  0.85063  0.15379  Biso   1.000  H
  O276     1.0000 0.80130  0.85572  0.19284  Biso   1.000  O
  H548     1.0000 0.72730  0.82402  0.20260  Biso   1.000  H
  H549     1.0000 0.69961  0.00909  0.25830  Biso   1.000  H
  C331     1.0000 0.91582  0.72171  0.19909  Biso   1.000  C
  H550     1.0000 0.99091  0.69961  0.25830  Biso   1.000  H
  C332     1.0000 0.82402  0.79982  0.19670  Biso   1.000  C
  O277     1.0000 0.88981  0.74692  0.21996  Biso   1.000  O
  H551     1.0000 0.92761  0.68231  0.20280  Biso   1.000  H
  C333     1.0000 0.87491  0.72120  0.17881  Biso   1.000  C
  C334     1.0000 0.85130  0.78063  0.17399  Biso   1.000  C
  H552     1.0000 0.79359  0.77310  0.20149  Biso   1.000  H
  C335     1.0000 0.87053  0.80353  0.21630  Biso   1.000  C
  O278     1.0000 0.90239  0.69750  0.15765  Biso   1.000  O
  H553     1.0000 0.84271  0.69612  0.18311  Biso   1.000  H
  O279     1.0000 0.80992  0.77890  0.15623  Biso   1.000  O
  H554     1.0000 0.88240  0.80689  0.16939  Biso   1.000  H
  H555     1.0000 0.90223  0.82840  0.21110  Biso   1.000  H
  C336     1.0000 0.84781  0.82200  0.23971  Biso   1.000  C
  H556     1.0000 0.88312  0.70449  0.14620  Biso   1.000  H
  H557     1.0000 0.82520  0.77280  0.14309  Biso   1.000  H
  O280     1.0000 0.80420  0.78240  0.24663  Biso   1.000  O
  H558     1.0000 0.87824  0.82251  0.25160  Biso   1.000  H
  H559     1.0000 0.83190  0.86043  0.23851  Biso   1.000  H
  Na12     1.0000 0.83682  0.68391  0.25920  Biso   1.000  Na
  H560     1.0000 0.78513  0.79620  0.25770  Biso   1.000  H
  Na13     1.0000 0.31609  0.16322  0.74080  Biso   1.000  Na
  O281     1.0000 0.21760  0.19580  0.75337  Biso   1.000  O
  H561     1.0000 0.20380  0.21491  0.74230  Biso   1.000  H
  C337     1.0000 0.17800  0.15219  0.76029  Biso   1.000  C
  C338     1.0000 0.19652  0.12951  0.78370  Biso   1.000  C
  H562     1.0000 0.17749  0.12181  0.74840  Biso   1.000  H
  H563     1.0000 0.13961  0.16810  0.76149  Biso   1.000  H
  O282     1.0000 0.25313  0.11019  0.78004  Biso   1.000  O
  C339     1.0000 0.20022  0.17602  0.80330  Biso   1.000  C
  H564     1.0000 0.17160  0.09782  0.78890  Biso   1.000  H
  C340     1.0000 0.27829  0.08422  0.80091  Biso   1.000  C
  O283     1.0000 0.14428  0.19870  0.80716  Biso   1.000  O
  C341     1.0000 0.21941  0.14870  0.82601  Biso   1.000  C
  H565     1.0000 0.22690  0.20641  0.79851  Biso   1.000  H
  O284     1.0000 0.24639  0.03611  0.80812  Biso   1.000  O
  H566     1.0000 0.31769  0.07239  0.79720  Biso   1.000  H
  C342     1.0000 0.27880  0.12509  0.82119  Biso   1.000  C
  C343     1.0000 0.13831  0.25582  0.80069  Biso   1.000  C
  O285     1.0000 0.22110  0.19012  0.84377  Biso   1.000  O
  H567     1.0000 0.19311  0.11760  0.83061  Biso   1.000  H
  C344     1.0000 0.27051  0.98190  0.80309  Biso   1.000  C
  O286     1.0000 0.30250  0.09761  0.84235  Biso   1.000  O
  H568     1.0000 0.30388  0.15729  0.81689  Biso   1.000  H
  O287     1.0000 0.10320  0.25969  0.78035  Biso   1.000  O
  H569     1.0000 0.17602  0.27270  0.79740  Biso   1.000  H
  C345     1.0000 0.11112  0.28549  0.82179  Biso   1.000  C
  H570     1.0000 0.22720  0.17480  0.85691  Biso   1.000  H
  C346     1.0000 0.26529  0.94701  0.82691  Biso   1.000  C
  H571     1.0000 0.31091  0.98582  0.79840  Biso   1.000  H
  C347     1.0000 0.23772  0.95303  0.78390  Biso   1.000  C
  H572     1.0000 0.29551  0.11688  0.85380  Biso   1.000  H
  C348     1.0000 0.04701  0.23772  0.78390  Biso   1.000  C
  O288     1.0000 0.14529  0.28301  0.84208  Biso   1.000  O
  H573     1.0000 0.10779  0.32611  0.81749  Biso   1.000  H
  C349     1.0000 0.05299  0.26529  0.82691  Biso   1.000  C
  O289     1.0000 0.29892  0.97710  0.84362  Biso   1.000  O
  C350     1.0000 0.28549  0.88893  0.82179  Biso   1.000  C
  H574     1.0000 0.22509  0.94600  0.83219  Biso   1.000  H
  O290     1.0000 0.25969  0.89680  0.78035  Biso   1.000  O
  C351     1.0000 0.23991  0.98123  0.75999  Biso   1.000  C
  H575     1.0000 0.19740  0.95000  0.78890  Biso   1.000  H
  C352     1.0000 0.01810  0.27051  0.80309  Biso   1.000  C
  C353     1.0000 0.01881  0.23991  0.75999  Biso   1.000  C
  H576     1.0000 0.05000  0.19740  0.78890  Biso   1.000  H
  H577     1.0000 0.14942  0.24930  0.84621  Biso   1.000  H
  O291     1.0000 0.02290  0.29892  0.84362  Biso   1.000  O
  H578     1.0000 0.05400  0.22509  0.83219  Biso   1.000  H
  H579     1.0000 0.29681  0.96111  0.85680  Biso   1.000  H
  O292     1.0000 0.28301  0.85471  0.84208  Biso   1.000  O
  C354     1.0000 0.25582  0.86169  0.80069  Biso   1.000  C
  H580     1.0000 0.32611  0.89221  0.81749  Biso   1.000  H
  H581     1.0000 0.22328  0.01940  0.76100  Biso   1.000  H
  O293     1.0000 0.29761  0.98493  0.75240  Biso   1.000  O
  H582     1.0000 0.21781  0.95913  0.74840  Biso   1.000  H
  H583     1.0000 0.01418  0.31091  0.79840  Biso   1.000  H
  O294     1.0000 0.96393  0.24639  0.80812  Biso   1.000  O
  O295     1.0000 0.01511  0.29761  0.75240  Biso   1.000  O
  H584     1.0000 0.04091  0.21781  0.74840  Biso   1.000  H
  H585     1.0000 0.98060  0.22328  0.76100  Biso   1.000  H
  H586     1.0000 0.03889  0.29681  0.85680  Biso   1.000  H
  H587     1.0000 0.24930  0.85063  0.84621  Biso   1.000  H
  O296     1.0000 0.19870  0.85572  0.80716  Biso   1.000  O
  H588     1.0000 0.27270  0.82402  0.79740  Biso   1.000  H
  H589     1.0000 0.30039  0.00909  0.74170  Biso   1.000  H
  C355     1.0000 0.91582  0.27829  0.80091  Biso   1.000  C
  H590     1.0000 0.99091  0.30039  0.74170  Biso   1.000  H
  C356     1.0000 0.17602  0.79982  0.80330  Biso   1.000  C
  O297     1.0000 0.88981  0.25313  0.78004  Biso   1.000  O
  H591     1.0000 0.92761  0.31769  0.79720  Biso   1.000  H
  C357     1.0000 0.87491  0.27880  0.82119  Biso   1.000  C
  C358     1.0000 0.14870  0.78063  0.82601  Biso   1.000  C
  H592     1.0000 0.20641  0.77310  0.79851  Biso   1.000  H
  C359     1.0000 0.12951  0.80353  0.78370  Biso   1.000  C
  C360     1.0000 0.87053  0.19652  0.78370  Biso   1.000  C
  O298     1.0000 0.90239  0.30250  0.84235  Biso   1.000  O
  H593     1.0000 0.84271  0.30388  0.81689  Biso   1.000  H
  C361     1.0000 0.85130  0.21941  0.82601  Biso   1.000  C
  O299     1.0000 0.19012  0.77890  0.84377  Biso   1.000  O
  C362     1.0000 0.12509  0.72120  0.82119  Biso   1.000  C
  H594     1.0000 0.11760  0.80689  0.83061  Biso   1.000  H
  O300     1.0000 0.11019  0.74692  0.78004  Biso   1.000  O
  H595     1.0000 0.09782  0.82840  0.78890  Biso   1.000  H
  C363     1.0000 0.15219  0.82200  0.76029  Biso   1.000  C
  C364     1.0000 0.82402  0.20022  0.80330  Biso   1.000  C
  H596     1.0000 0.90223  0.17160  0.78890  Biso   1.000  H
  C365     1.0000 0.84781  0.17800  0.76029  Biso   1.000  C
  H597     1.0000 0.88312  0.29551  0.85380  Biso   1.000  H
  O301     1.0000 0.80992  0.22110  0.84377  Biso   1.000  O
  H598     1.0000 0.88240  0.19311  0.83061  Biso   1.000  H
  H599     1.0000 0.17480  0.77280  0.85691  Biso   1.000  H
  O302     1.0000 0.09761  0.69750  0.84235  Biso   1.000  O
  C366     1.0000 0.08422  0.72171  0.80091  Biso   1.000  C
  H600     1.0000 0.15729  0.69612  0.81689  Biso   1.000  H
  O303     1.0000 0.19580  0.78240  0.75337  Biso   1.000  O
  H601     1.0000 0.12181  0.82251  0.74840  Biso   1.000  H
  H602     1.0000 0.16810  0.86043  0.76149  Biso   1.000  H
  O304     1.0000 0.80130  0.14428  0.80716  Biso   1.000  O
  H603     1.0000 0.79359  0.22690  0.79851  Biso   1.000  H
  O305     1.0000 0.80420  0.21760  0.75337  Biso   1.000  O
  H604     1.0000 0.87824  0.17749  0.74840  Biso   1.000  H
  H605     1.0000 0.83190  0.13961  0.76149  Biso   1.000  H
  H606     1.0000 0.82520  0.22720  0.85691  Biso   1.000  H
  H607     1.0000 0.11688  0.70449  0.85380  Biso   1.000  H
  O306     1.0000 0.03611  0.75361  0.80812  Biso   1.000  O
  H608     1.0000 0.07239  0.68231  0.79720  Biso   1.000  H
  Na14     1.0000 0.16322  0.68391  0.74080  Biso   1.000  Na
  H609     1.0000 0.21491  0.79620  0.74230  Biso   1.000  H
  C367     1.0000 0.74422  0.13831  0.80069  Biso   1.000  C
  Na15     1.0000 0.83682  0.31609  0.74080  Biso   1.000  Na
  H610     1.0000 0.78513  0.20380  0.74230  Biso   1.000  H
  C368     1.0000 0.98190  0.72949  0.80309  Biso   1.000  C
  O307     1.0000 0.74031  0.10320  0.78035  Biso   1.000  O
  H611     1.0000 0.72730  0.17602  0.79740  Biso   1.000  H
  C369     1.0000 0.71451  0.11112  0.82179  Biso   1.000  C
  C370     1.0000 0.94701  0.73471  0.82691  Biso   1.000  C
  H612     1.0000 0.98582  0.68913  0.79840  Biso   1.000  H
  C371     1.0000 0.95303  0.76232  0.78390  Biso   1.000  C
  C372     1.0000 0.76232  0.04701  0.78390  Biso   1.000  C
  O308     1.0000 0.71699  0.14529  0.84208  Biso   1.000  O
  H613     1.0000 0.67389  0.10779  0.81749  Biso   1.000  H
  C373     1.0000 0.73471  0.05299  0.82691  Biso   1.000  C
  O309     1.0000 0.97710  0.70112  0.84362  Biso   1.000  O
  C374     1.0000 0.88893  0.71451  0.82179  Biso   1.000  C
  H614     1.0000 0.94600  0.77491  0.83219  Biso   1.000  H
  O310     1.0000 0.89680  0.74031  0.78035  Biso   1.000  O
  C375     1.0000 0.98123  0.76013  0.75999  Biso   1.000  C
  H615     1.0000 0.95000  0.80260  0.78890  Biso   1.000  H
  C376     1.0000 0.72949  0.01810  0.80309  Biso   1.000  C
  C377     1.0000 0.76013  0.01881  0.75999  Biso   1.000  C
  H616     1.0000 0.80260  0.05000  0.78890  Biso   1.000  H
  H617     1.0000 0.75070  0.14942  0.84621  Biso   1.000  H
  O311     1.0000 0.70112  0.02290  0.84362  Biso   1.000  O
  H618     1.0000 0.77491  0.05400  0.83219  Biso   1.000  H
  H619     1.0000 0.96111  0.70323  0.85680  Biso   1.000  H
  O312     1.0000 0.85471  0.71699  0.84208  Biso   1.000  O
  C378     1.0000 0.86169  0.74422  0.80069  Biso   1.000  C
  H620     1.0000 0.89221  0.67389  0.81749  Biso   1.000  H
  O313     1.0000 0.98493  0.70243  0.75240  Biso   1.000  O
  H621     1.0000 0.95913  0.78223  0.74840  Biso   1.000  H
  H622     1.0000 0.01940  0.77672  0.76100  Biso   1.000  H
  O314     1.0000 0.75361  0.96393  0.80812  Biso   1.000  O
  H623     1.0000 0.68913  0.01418  0.79840  Biso   1.000  H
  H624     1.0000 0.77672  0.98060  0.76100  Biso   1.000  H
  O315     1.0000 0.70243  0.01511  0.75240  Biso   1.000  O
  H625     1.0000 0.78223  0.04091  0.74840  Biso   1.000  H
  H626     1.0000 0.70323  0.03889  0.85680  Biso   1.000  H
  H627     1.0000 0.85063  0.75070  0.84621  Biso   1.000  H
  O316     1.0000 0.85572  0.80130  0.80716  Biso   1.000  O
  H628     1.0000 0.82402  0.72730  0.79740  Biso   1.000  H
  H629     1.0000 0.00909  0.69961  0.74170  Biso   1.000  H
  C379     1.0000 0.72171  0.91582  0.80091  Biso   1.000  C
  H630     1.0000 0.69961  0.99091  0.74170  Biso   1.000  H
  C380     1.0000 0.79982  0.82402  0.80330  Biso   1.000  C
  O317     1.0000 0.74692  0.88981  0.78004  Biso   1.000  O
  H631     1.0000 0.68231  0.92761  0.79720  Biso   1.000  H
  C381     1.0000 0.72120  0.87491  0.82119  Biso   1.000  C
  C382     1.0000 0.78063  0.85130  0.82601  Biso   1.000  C
  H632     1.0000 0.77310  0.79359  0.79851  Biso   1.000  H
  C383     1.0000 0.80353  0.87053  0.78370  Biso   1.000  C
  O318     1.0000 0.69750  0.90239  0.84235  Biso   1.000  O
  H633     1.0000 0.69612  0.84271  0.81689  Biso   1.000  H
  O319     1.0000 0.77890  0.80992  0.84377  Biso   1.000  O
  H634     1.0000 0.80689  0.88240  0.83061  Biso   1.000  H
  H635     1.0000 0.82840  0.90223  0.78890  Biso   1.000  H
  C384     1.0000 0.82200  0.84781  0.76029  Biso   1.000  C
  H636     1.0000 0.70449  0.88312  0.85380  Biso   1.000  H
  H637     1.0000 0.77280  0.82520  0.85691  Biso   1.000  H
  O320     1.0000 0.78240  0.80420  0.75337  Biso   1.000  O
  H638     1.0000 0.82251  0.87824  0.74840  Biso   1.000  H
  H639     1.0000 0.86043  0.83190  0.76149  Biso   1.000  H
  Na16     1.0000 0.68391  0.83682  0.74080  Biso   1.000  Na
  H640     1.0000 0.79620  0.78513  0.74230  Biso   1.000  H
  O321     1.0000 0.32830  0.25801  0.21274  Biso   1.000  O
  H641     1.0000 0.34429  0.22640  0.21270  Biso   1.000  H
  C385     1.0000 0.36681  0.30052  0.20399  Biso   1.000  C
  C386     1.0000 0.39093  0.28722  0.18030  Biso   1.000  C
  H642     1.0000 0.39800  0.30481  0.21540  Biso   1.000  H
  H643     1.0000 0.34669  0.33692  0.20310  Biso   1.000  H
  O322     1.0000 0.41689  0.23221  0.18335  Biso   1.000  O
  C387     1.0000 0.34522  0.27960  0.16100  Biso   1.000  C
  H644     1.0000 0.41942  0.31601  0.17549  Biso   1.000  H
  C388     1.0000 0.44632  0.21331  0.16321  Biso   1.000  C
  O323     1.0000 0.31929  0.33360  0.15591  Biso   1.000  O
  C389     1.0000 0.37539  0.26281  0.13770  Biso   1.000  C
  H645     1.0000 0.31651  0.25102  0.16569  Biso   1.000  H
  O324     1.0000 0.48950  0.25119  0.15640  Biso   1.000  O
  H646     1.0000 0.46319  0.17560  0.16650  Biso   1.000  H
  C390     1.0000 0.40570  0.20838  0.14200  Biso   1.000  C
  C391     1.0000 0.26222  0.33730  0.16210  Biso   1.000  C
  O325     1.0000 0.33389  0.25599  0.11905  Biso   1.000  O
  H647     1.0000 0.40301  0.29260  0.13321  Biso   1.000  H
  C392     1.0000 0.54619  0.23570  0.16120  Biso   1.000  C
  O326     1.0000 0.43790  0.19302  0.12106  Biso   1.000  O
  H648     1.0000 0.37750  0.17821  0.14530  Biso   1.000  H
  O327     1.0000 0.25481  0.36900  0.18342  Biso   1.000  O
  H649     1.0000 0.24850  0.29820  0.16509  Biso   1.000  H
  C393     1.0000 0.22791  0.36079  0.14211  Biso   1.000  C
  H650     1.0000 0.30919  0.28162  0.12240  Biso   1.000  H
  C394     1.0000 0.57793  0.24189  0.13781  Biso   1.000  C
  H651     1.0000 0.54733  0.19542  0.16620  Biso   1.000  H
  C395     1.0000 0.57300  0.27072  0.17949  Biso   1.000  C
  H652     1.0000 0.42670  0.15889  0.11900  Biso   1.000  H
  C396     1.0000 0.27072  0.42700  0.17949  Biso   1.000  C
  O328     1.0000 0.23852  0.32880  0.12087  Biso   1.000  O
  H653     1.0000 0.18709  0.35759  0.14611  Biso   1.000  H
  C397     1.0000 0.24189  0.42211  0.13781  Biso   1.000  C
  O329     1.0000 0.55432  0.20300  0.12115  Biso   1.000  O
  C398     1.0000 0.63921  0.22791  0.14211  Biso   1.000  C
  H654     1.0000 0.57431  0.28132  0.13180  Biso   1.000  H
  O330     1.0000 0.63100  0.25481  0.18342  Biso   1.000  O
  H655     1.0000 0.57199  0.31091  0.17429  Biso   1.000  H
  C399     1.0000 0.54560  0.26651  0.20399  Biso   1.000  C
  C400     1.0000 0.23570  0.45381  0.16120  Biso   1.000  C
  H656     1.0000 0.31091  0.42801  0.17429  Biso   1.000  H
  C401     1.0000 0.26651  0.45440  0.20399  Biso   1.000  C
  H657     1.0000 0.21512  0.30468  0.11870  Biso   1.000  H
  O331     1.0000 0.20300  0.44573  0.12115  Biso   1.000  O
  H658     1.0000 0.28132  0.42569  0.13180  Biso   1.000  H
  H659     1.0000 0.56202  0.16970  0.12071  Biso   1.000  H
  O332     1.0000 0.67120  0.23852  0.12087  Biso   1.000  O
  C402     1.0000 0.66270  0.26222  0.16210  Biso   1.000  C
  H660     1.0000 0.64241  0.18709  0.14611  Biso   1.000  H
  O333     1.0000 0.55091  0.20321  0.21210  Biso   1.000  O
  H661     1.0000 0.50549  0.27779  0.20320  Biso   1.000  H
  H662     1.0000 0.56509  0.29159  0.21529  Biso   1.000  H
  O334     1.0000 0.25119  0.51050  0.15640  Biso   1.000  O
  H663     1.0000 0.19542  0.45271  0.16620  Biso   1.000  H
  O335     1.0000 0.20321  0.44909  0.21210  Biso   1.000  O
  H664     1.0000 0.27779  0.49451  0.20320  Biso   1.000  H
  H665     1.0000 0.29159  0.43491  0.21529  Biso   1.000  H
  H666     1.0000 0.16970  0.43802  0.12071  Biso   1.000  H
  H667     1.0000 0.69532  0.21512  0.11870  Biso   1.000  H
  O336     1.0000 0.66640  0.31929  0.15591  Biso   1.000  O
  H668     1.0000 0.70180  0.24850  0.16509  Biso   1.000  H
  H669     1.0000 0.54859  0.18199  0.20029  Biso   1.000  H
  C403     1.0000 0.21331  0.55373  0.16321  Biso   1.000  C
  H670     1.0000 0.18199  0.45141  0.20029  Biso   1.000  H
  C404     1.0000 0.72040  0.34522  0.16100  Biso   1.000  C
  O337     1.0000 0.23221  0.58311  0.18335  Biso   1.000  O
  H671     1.0000 0.17560  0.53681  0.16650  Biso   1.000  H
  C405     1.0000 0.20838  0.59430  0.14200  Biso   1.000  C
  C406     1.0000 0.73719  0.37539  0.13770  Biso   1.000  C
  H672     1.0000 0.74902  0.31651  0.16569  Biso   1.000  H
  C407     1.0000 0.71282  0.39093  0.18030  Biso   1.000  C
  C408     1.0000 0.28722  0.60912  0.18030  Biso   1.000  C
  O338     1.0000 0.19302  0.56210  0.12106  Biso   1.000  O
  H673     1.0000 0.17821  0.62250  0.14530  Biso   1.000  H
  C409     1.0000 0.26281  0.62461  0.13770  Biso   1.000  C
  O339     1.0000 0.74401  0.33389  0.11905  Biso   1.000  O
  C410     1.0000 0.79162  0.40570  0.14200  Biso   1.000  C
  H674     1.0000 0.70740  0.40301  0.13321  Biso   1.000  H
  O340     1.0000 0.76779  0.41689  0.18335  Biso   1.000  O
  H675     1.0000 0.68399  0.41942  0.17549  Biso   1.000  H
  C411     1.0000 0.69952  0.36681  0.20399  Biso   1.000  C
  C412     1.0000 0.27960  0.65483  0.16100  Biso   1.000  C
  H676     1.0000 0.31601  0.58062  0.17549  Biso   1.000  H
  C413     1.0000 0.30052  0.63319  0.20399  Biso   1.000  C
  H677     1.0000 0.15889  0.57330  0.11900  Biso   1.000  H
  O341     1.0000 0.25599  0.66611  0.11905  Biso   1.000  O
  H678     1.0000 0.29260  0.59699  0.13321  Biso   1.000  H
  H679     1.0000 0.71842  0.30919  0.12240  Biso   1.000  H
  O342     1.0000 0.80702  0.43790  0.12106  Biso   1.000  O
  C414     1.0000 0.78673  0.44632  0.16321  Biso   1.000  C
  H680     1.0000 0.82179  0.37750  0.14530  Biso   1.000  H
  O343     1.0000 0.74199  0.32830  0.21274  Biso   1.000  O
  H681     1.0000 0.69523  0.39800  0.21540  Biso   1.000  H
  H682     1.0000 0.66312  0.34669  0.20310  Biso   1.000  H
  O344     1.0000 0.33360  0.68071  0.15591  Biso   1.000  O
  H683     1.0000 0.25102  0.68353  0.16569  Biso   1.000  H
  O345     1.0000 0.25801  0.67170  0.21274  Biso   1.000  O
  H684     1.0000 0.30481  0.60200  0.21540  Biso   1.000  H
  H685     1.0000 0.33692  0.65331  0.20310  Biso   1.000  H
  H686     1.0000 0.28162  0.69081  0.12240  Biso   1.000  H
  H687     1.0000 0.84111  0.42670  0.11900  Biso   1.000  H
  O346     1.0000 0.74881  0.48950  0.15640  Biso   1.000  O
  H688     1.0000 0.82440  0.46319  0.16650  Biso   1.000  H
  H689     1.0000 0.77360  0.34429  0.21270  Biso   1.000  H
  C415     1.0000 0.33730  0.73783  0.16210  Biso   1.000  C
  H690     1.0000 0.22640  0.65571  0.21270  Biso   1.000  H
  C416     1.0000 0.76430  0.54619  0.16120  Biso   1.000  C
  O347     1.0000 0.36900  0.74523  0.18342  Biso   1.000  O
  H691     1.0000 0.29820  0.75150  0.16509  Biso   1.000  H
  C417     1.0000 0.36079  0.77213  0.14211  Biso   1.000  C
  C418     1.0000 0.75811  0.57793  0.13781  Biso   1.000  C
  H692     1.0000 0.80462  0.54733  0.16620  Biso   1.000  H
  C419     1.0000 0.72932  0.57300  0.17949  Biso   1.000  C
  C420     1.0000 0.42700  0.72932  0.17949  Biso   1.000  C
  O348     1.0000 0.32880  0.76152  0.12087  Biso   1.000  O
  H693     1.0000 0.35759  0.81291  0.14611  Biso   1.000  H
  C421     1.0000 0.42211  0.75811  0.13781  Biso   1.000  C
  O349     1.0000 0.79700  0.55432  0.12115  Biso   1.000  O
  C422     1.0000 0.77213  0.63921  0.14211  Biso   1.000  C
  H694     1.0000 0.71872  0.57431  0.13180  Biso   1.000  H
  O350     1.0000 0.74523  0.63100  0.18342  Biso   1.000  O
  H695     1.0000 0.68913  0.57199  0.17429  Biso   1.000  H
  C423     1.0000 0.73353  0.54560  0.20399  Biso   1.000  C
  C424     1.0000 0.45381  0.76430  0.16120  Biso   1.000  C
  H696     1.0000 0.42801  0.68913  0.17429  Biso   1.000  H
  C425     1.0000 0.45440  0.73353  0.20399  Biso   1.000  C
  H697     1.0000 0.30468  0.78492  0.11870  Biso   1.000  H
  O351     1.0000 0.44573  0.79700  0.12115  Biso   1.000  O
  H698     1.0000 0.42569  0.71872  0.13180  Biso   1.000  H
  H699     1.0000 0.83030  0.56202  0.12071  Biso   1.000  H
  O352     1.0000 0.76152  0.67120  0.12087  Biso   1.000  O
  C426     1.0000 0.73783  0.66270  0.16210  Biso   1.000  C
  H700     1.0000 0.81291  0.64241  0.14611  Biso   1.000  H
  O353     1.0000 0.79679  0.55091  0.21210  Biso   1.000  O
  H701     1.0000 0.72221  0.50549  0.20320  Biso   1.000  H
  H702     1.0000 0.70841  0.56509  0.21529  Biso   1.000  H
  O354     1.0000 0.51050  0.74881  0.15640  Biso   1.000  O
  H703     1.0000 0.45271  0.80462  0.16620  Biso   1.000  H
  O355     1.0000 0.44909  0.79679  0.21210  Biso   1.000  O
  H704     1.0000 0.49451  0.72221  0.20320  Biso   1.000  H
  H705     1.0000 0.43491  0.70841  0.21529  Biso   1.000  H
  H706     1.0000 0.43802  0.83030  0.12071  Biso   1.000  H
  H707     1.0000 0.78492  0.69532  0.11870  Biso   1.000  H
  O356     1.0000 0.68071  0.66640  0.15591  Biso   1.000  O
  H708     1.0000 0.75150  0.70180  0.16509  Biso   1.000  H
  H709     1.0000 0.81801  0.54859  0.20029  Biso   1.000  H
  C427     1.0000 0.55373  0.78673  0.16321  Biso   1.000  C
  H710     1.0000 0.45141  0.81801  0.20029  Biso   1.000  H
  C428     1.0000 0.65483  0.72040  0.16100  Biso   1.000  C
  O357     1.0000 0.58311  0.76779  0.18335  Biso   1.000  O
  H711     1.0000 0.53681  0.82440  0.16650  Biso   1.000  H
  C429     1.0000 0.59430  0.79162  0.14200  Biso   1.000  C
  C430     1.0000 0.62461  0.73719  0.13770  Biso   1.000  C
  H712     1.0000 0.68353  0.74902  0.16569  Biso   1.000  H
  C431     1.0000 0.60912  0.71282  0.18030  Biso   1.000  C
  O358     1.0000 0.56210  0.80702  0.12106  Biso   1.000  O
  H713     1.0000 0.62250  0.82179  0.14530  Biso   1.000  H
  O359     1.0000 0.66611  0.74401  0.11905  Biso   1.000  O
  H714     1.0000 0.59699  0.70740  0.13321  Biso   1.000  H
  H715     1.0000 0.58062  0.68399  0.17549  Biso   1.000  H
  C432     1.0000 0.63319  0.69952  0.20399  Biso   1.000  C
  H716     1.0000 0.57330  0.84111  0.11900  Biso   1.000  H
  H717     1.0000 0.69081  0.71842  0.12240  Biso   1.000  H
  O360     1.0000 0.67170  0.74199  0.21274  Biso   1.000  O
  H718     1.0000 0.60200  0.69523  0.21540  Biso   1.000  H
  H719     1.0000 0.65331  0.66312  0.20310  Biso   1.000  H
  H720     1.0000 0.65571  0.77360  0.21270  Biso   1.000  H
  O361     1.0000 0.25801  0.32830  0.78726  Biso   1.000  O
  H721     1.0000 0.22640  0.34429  0.78730  Biso   1.000  H
  C433     1.0000 0.30052  0.36681  0.79601  Biso   1.000  C
  C434     1.0000 0.28722  0.39093  0.81970  Biso   1.000  C
  H722     1.0000 0.30481  0.39800  0.78460  Biso   1.000  H
  H723     1.0000 0.33692  0.34669  0.79690  Biso   1.000  H
  O362     1.0000 0.23221  0.41689  0.81665  Biso   1.000  O
  C435     1.0000 0.27960  0.34522  0.83900  Biso   1.000  C
  H724     1.0000 0.31601  0.41942  0.82451  Biso   1.000  H
  C436     1.0000 0.21331  0.44632  0.83679  Biso   1.000  C
  O363     1.0000 0.33360  0.31929  0.84409  Biso   1.000  O
  C437     1.0000 0.26281  0.37539  0.86230  Biso   1.000  C
  H725     1.0000 0.25102  0.31651  0.83431  Biso   1.000  H
  O364     1.0000 0.25119  0.48950  0.84360  Biso   1.000  O
  H726     1.0000 0.17560  0.46319  0.83350  Biso   1.000  H
  C438     1.0000 0.20838  0.40570  0.85800  Biso   1.000  C
  C439     1.0000 0.33730  0.26222  0.83790  Biso   1.000  C
  O365     1.0000 0.25599  0.33389  0.88095  Biso   1.000  O
  H727     1.0000 0.29260  0.40301  0.86679  Biso   1.000  H
  C440     1.0000 0.23570  0.54619  0.83880  Biso   1.000  C
  O366     1.0000 0.19302  0.43790  0.87894  Biso   1.000  O
  H728     1.0000 0.17821  0.37750  0.85470  Biso   1.000  H
  O367     1.0000 0.36900  0.25481  0.81658  Biso   1.000  O
  H729     1.0000 0.29820  0.24850  0.83491  Biso   1.000  H
  C441     1.0000 0.36079  0.22791  0.85789  Biso   1.000  C
  H730     1.0000 0.28162  0.30919  0.87760  Biso   1.000  H
  C442     1.0000 0.24189  0.57793  0.86219  Biso   1.000  C
  H731     1.0000 0.19542  0.54733  0.83380  Biso   1.000  H
  C443     1.0000 0.27072  0.57300  0.82051  Biso   1.000  C
  H732     1.0000 0.15889  0.42670  0.88100  Biso   1.000  H
  C444     1.0000 0.42700  0.27072  0.82051  Biso   1.000  C
  O368     1.0000 0.32880  0.23852  0.87913  Biso   1.000  O
  H733     1.0000 0.35759  0.18709  0.85389  Biso   1.000  H
  C445     1.0000 0.42211  0.24189  0.86219  Biso   1.000  C
  O369     1.0000 0.20300  0.55432  0.87885  Biso   1.000  O
  C446     1.0000 0.22791  0.63921  0.85789  Biso   1.000  C
  H734     1.0000 0.28132  0.57431  0.86820  Biso   1.000  H
  O370     1.0000 0.25481  0.63100  0.81658  Biso   1.000  O
  H735     1.0000 0.31091  0.57199  0.82571  Biso   1.000  H
  C447     1.0000 0.26651  0.54560  0.79601  Biso   1.000  C
  C448     1.0000 0.45381  0.23570  0.83880  Biso   1.000  C
  H736     1.0000 0.42801  0.31091  0.82571  Biso   1.000  H
  C449     1.0000 0.45440  0.26651  0.79601  Biso   1.000  C
  H737     1.0000 0.30468  0.21512  0.88130  Biso   1.000  H
  O371     1.0000 0.44573  0.20300  0.87885  Biso   1.000  O
  H738     1.0000 0.42569  0.28132  0.86820  Biso   1.000  H
  H739     1.0000 0.16970  0.56202  0.87929  Biso   1.000  H
  O372     1.0000 0.23852  0.67120  0.87913  Biso   1.000  O
  C450     1.0000 0.26222  0.66270  0.83790  Biso   1.000  C
  H740     1.0000 0.18709  0.64241  0.85389  Biso   1.000  H
  O373     1.0000 0.20321  0.55091  0.78790  Biso   1.000  O
  H741     1.0000 0.27779  0.50549  0.79680  Biso   1.000  H
  H742     1.0000 0.29159  0.56509  0.78471  Biso   1.000  H
  O374     1.0000 0.51050  0.25119  0.84360  Biso   1.000  O
  H743     1.0000 0.45271  0.19542  0.83380  Biso   1.000  H
  O375     1.0000 0.44909  0.20321  0.78790  Biso   1.000  O
  H744     1.0000 0.49451  0.27779  0.79680  Biso   1.000  H
  H745     1.0000 0.43491  0.29159  0.78471  Biso   1.000  H
  H746     1.0000 0.43802  0.16970  0.87929  Biso   1.000  H
  H747     1.0000 0.21512  0.69532  0.88130  Biso   1.000  H
  O376     1.0000 0.31929  0.66640  0.84409  Biso   1.000  O
  H748     1.0000 0.24850  0.70180  0.83491  Biso   1.000  H
  H749     1.0000 0.18199  0.54859  0.79971  Biso   1.000  H
  C451     1.0000 0.55373  0.21331  0.83679  Biso   1.000  C
  H750     1.0000 0.45141  0.18199  0.79971  Biso   1.000  H
  C452     1.0000 0.34522  0.72040  0.83900  Biso   1.000  C
  O377     1.0000 0.58311  0.23221  0.81665  Biso   1.000  O
  H751     1.0000 0.53681  0.17560  0.83350  Biso   1.000  H
  C453     1.0000 0.59430  0.20838  0.85800  Biso   1.000  C
  C454     1.0000 0.37539  0.73719  0.86230  Biso   1.000  C
  H752     1.0000 0.31651  0.74902  0.83431  Biso   1.000  H
  C455     1.0000 0.39093  0.71282  0.81970  Biso   1.000  C
  C456     1.0000 0.60912  0.28722  0.81970  Biso   1.000  C
  O378     1.0000 0.56210  0.19302  0.87894  Biso   1.000  O
  H753     1.0000 0.62250  0.17821  0.85470  Biso   1.000  H
  C457     1.0000 0.62461  0.26281  0.86230  Biso   1.000  C
  O379     1.0000 0.33389  0.74401  0.88095  Biso   1.000  O
  C458     1.0000 0.40570  0.79162  0.85800  Biso   1.000  C
  H754     1.0000 0.40301  0.70740  0.86679  Biso   1.000  H
  O380     1.0000 0.41689  0.76779  0.81665  Biso   1.000  O
  H755     1.0000 0.41942  0.68399  0.82451  Biso   1.000  H
  C459     1.0000 0.36681  0.69952  0.79601  Biso   1.000  C
  C460     1.0000 0.65483  0.27960  0.83900  Biso   1.000  C
  H756     1.0000 0.58062  0.31601  0.82451  Biso   1.000  H
  C461     1.0000 0.63319  0.30052  0.79601  Biso   1.000  C
  H757     1.0000 0.57330  0.15889  0.88100  Biso   1.000  H
  O381     1.0000 0.66611  0.25599  0.88095  Biso   1.000  O
  H758     1.0000 0.59699  0.29260  0.86679  Biso   1.000  H
  H759     1.0000 0.30919  0.71842  0.87760  Biso   1.000  H
  O382     1.0000 0.43790  0.80702  0.87894  Biso   1.000  O
  C462     1.0000 0.44632  0.78673  0.83679  Biso   1.000  C
  H760     1.0000 0.37750  0.82179  0.85470  Biso   1.000  H
  O383     1.0000 0.32830  0.74199  0.78726  Biso   1.000  O
  H761     1.0000 0.39800  0.69523  0.78460  Biso   1.000  H
  H762     1.0000 0.34669  0.66312  0.79690  Biso   1.000  H
  O384     1.0000 0.68071  0.33360  0.84409  Biso   1.000  O
  H763     1.0000 0.68353  0.25102  0.83431  Biso   1.000  H
  O385     1.0000 0.67170  0.25801  0.78726  Biso   1.000  O
  H764     1.0000 0.60200  0.30481  0.78460  Biso   1.000  H
  H765     1.0000 0.65331  0.33692  0.79690  Biso   1.000  H
  H766     1.0000 0.69081  0.28162  0.87760  Biso   1.000  H
  H767     1.0000 0.42670  0.84111  0.88100  Biso   1.000  H
  O386     1.0000 0.48950  0.74881  0.84360  Biso   1.000  O
  H768     1.0000 0.46319  0.82440  0.83350  Biso   1.000  H
  H769     1.0000 0.34429  0.77360  0.78730  Biso   1.000  H
  C463     1.0000 0.73783  0.33730  0.83790  Biso   1.000  C
  H770     1.0000 0.65571  0.22640  0.78730  Biso   1.000  H
  C464     1.0000 0.54619  0.76430  0.83880  Biso   1.000  C
  O387     1.0000 0.74523  0.36900  0.81658  Biso   1.000  O
  H771     1.0000 0.75150  0.29820  0.83491  Biso   1.000  H
  C465     1.0000 0.77213  0.36079  0.85789  Biso   1.000  C
  C466     1.0000 0.57793  0.75811  0.86219  Biso   1.000  C
  H772     1.0000 0.54733  0.80462  0.83380  Biso   1.000  H
  C467     1.0000 0.57300  0.72932  0.82051  Biso   1.000  C
  C468     1.0000 0.72932  0.42700  0.82051  Biso   1.000  C
  O388     1.0000 0.76152  0.32880  0.87913  Biso   1.000  O
  H773     1.0000 0.81291  0.35759  0.85389  Biso   1.000  H
  C469     1.0000 0.75811  0.42211  0.86219  Biso   1.000  C
  O389     1.0000 0.55432  0.79700  0.87885  Biso   1.000  O
  C470     1.0000 0.63921  0.77213  0.85789  Biso   1.000  C
  H774     1.0000 0.57431  0.71872  0.86820  Biso   1.000  H
  O390     1.0000 0.63100  0.74523  0.81658  Biso   1.000  O
  H775     1.0000 0.57199  0.68913  0.82571  Biso   1.000  H
  C471     1.0000 0.54560  0.73353  0.79601  Biso   1.000  C
  C472     1.0000 0.76430  0.45381  0.83880  Biso   1.000  C
  H776     1.0000 0.68913  0.42801  0.82571  Biso   1.000  H
  C473     1.0000 0.73353  0.45440  0.79601  Biso   1.000  C
  H777     1.0000 0.78492  0.30468  0.88130  Biso   1.000  H
  O391     1.0000 0.79700  0.44573  0.87885  Biso   1.000  O
  H778     1.0000 0.71872  0.42569  0.86820  Biso   1.000  H
  H779     1.0000 0.56202  0.83030  0.87929  Biso   1.000  H
  O392     1.0000 0.67120  0.76152  0.87913  Biso   1.000  O
  C474     1.0000 0.66270  0.73783  0.83790  Biso   1.000  C
  H780     1.0000 0.64241  0.81291  0.85389  Biso   1.000  H
  O393     1.0000 0.55091  0.79679  0.78790  Biso   1.000  O
  H781     1.0000 0.50549  0.72221  0.79680  Biso   1.000  H
  H782     1.0000 0.56509  0.70841  0.78471  Biso   1.000  H
  O394     1.0000 0.74881  0.51050  0.84360  Biso   1.000  O
  H783     1.0000 0.80462  0.45271  0.83380  Biso   1.000  H
  O395     1.0000 0.79679  0.44909  0.78790  Biso   1.000  O
  H784     1.0000 0.72221  0.49451  0.79680  Biso   1.000  H
  H785     1.0000 0.70841  0.43491  0.78471  Biso   1.000  H
  H786     1.0000 0.83030  0.43802  0.87929  Biso   1.000  H
  H787     1.0000 0.69532  0.78492  0.88130  Biso   1.000  H
  O396     1.0000 0.66640  0.68071  0.84409  Biso   1.000  O
  H788     1.0000 0.70180  0.75150  0.83491  Biso   1.000  H
  H789     1.0000 0.54859  0.81801  0.79971  Biso   1.000  H
  C475     1.0000 0.78673  0.55373  0.83679  Biso   1.000  C
  H790     1.0000 0.81801  0.45141  0.79971  Biso   1.000  H
  C476     1.0000 0.72040  0.65483  0.83900  Biso   1.000  C
  O397     1.0000 0.76779  0.58311  0.81665  Biso   1.000  O
  H791     1.0000 0.82440  0.53681  0.83350  Biso   1.000  H
  C477     1.0000 0.79162  0.59430  0.85800  Biso   1.000  C
  C478     1.0000 0.73719  0.62461  0.86230  Biso   1.000  C
  H792     1.0000 0.74902  0.68353  0.83431  Biso   1.000  H
  C479     1.0000 0.71282  0.60912  0.81970  Biso   1.000  C
  O398     1.0000 0.80702  0.56210  0.87894  Biso   1.000  O
  H793     1.0000 0.82179  0.62250  0.85470  Biso   1.000  H
  O399     1.0000 0.74401  0.66611  0.88095  Biso   1.000  O
  H794     1.0000 0.70740  0.59699  0.86679  Biso   1.000  H
  H795     1.0000 0.68399  0.58062  0.82451  Biso   1.000  H
  C480     1.0000 0.69952  0.63319  0.79601  Biso   1.000  C
  H796     1.0000 0.84111  0.57330  0.88100  Biso   1.000  H
  H797     1.0000 0.71842  0.69081  0.87760  Biso   1.000  H
  O400     1.0000 0.74199  0.67170  0.78726  Biso   1.000  O
  H798     1.0000 0.69523  0.60200  0.78460  Biso   1.000  H
  H799     1.0000 0.66312  0.65331  0.79690  Biso   1.000  H
  H800     1.0000 0.77360  0.65571  0.78730  Biso   1.000  H
  O401     1.0000 0.15619  0.25249  0.11182  Biso   1.000  O
  C481     1.0000 0.16390  0.21032  0.09319  Biso   1.000  C
  H801     1.0000 0.12429  0.26752  0.11040  Biso   1.000  H
  C482     1.0000 0.22720  0.20211  0.08910  Biso   1.000  C
  C483     1.0000 0.13730  0.23179  0.07010  Biso   1.000  C
  H802     1.0000 0.14622  0.17391  0.09800  Biso   1.000  H
  O402     1.0000 0.25089  0.17741  0.10994  Biso   1.000  O
  H803     1.0000 0.24509  0.23961  0.08641  Biso   1.000  H
  C484     1.0000 0.23898  0.16402  0.06809  Biso   1.000  C
  O403     1.0000 0.07749  0.23532  0.07431  Biso   1.000  O
  H804     1.0000 0.15312  0.26912  0.06540  Biso   1.000  H
  C485     1.0000 0.14879  0.18679  0.05110  Biso   1.000  C
  H805     1.0000 0.27552  0.19588  0.11500  Biso   1.000  H
  O404     1.0000 0.22042  0.10952  0.07433  Biso   1.000  O
  O405     1.0000 0.20990  0.18351  0.04763  Biso   1.000  O
  H806     1.0000 0.28040  0.16322  0.06490  Biso   1.000  H
  C486     1.0000 0.05181  0.28469  0.06820  Biso   1.000  C
  H807     1.0000 0.13481  0.14950  0.05690  Biso   1.000  H
  C487     1.0000 0.12261  0.19908  0.02679  Biso   1.000  C
  C488     1.0000 0.25990  0.06339  0.06991  Biso   1.000  C
  O406     1.0000 0.01911  0.27901  0.04720  Biso   1.000  O
  C489     1.0000 0.01629  0.30372  0.08850  Biso   1.000  C
  H808     1.0000 0.08161  0.31361  0.06531  Biso   1.000  H
  O407     1.0000 0.14142  0.25313  0.01870  Biso   1.000  O
  H809     1.0000 0.13389  0.16962  0.01541  Biso   1.000  H
  H810     1.0000 0.08102  0.19879  0.02810  Biso   1.000  H
  H811     1.0000 0.29719  0.07909  0.06490  Biso   1.000  H
  C490     1.0000 0.26643  0.03169  0.09280  Biso   1.000  C
  C491     1.0000 0.23772  0.02639  0.05140  Biso   1.000  C
  C492     1.0000 0.97361  0.23772  0.05140  Biso   1.000  C
  O408     1.0000 0.05139  0.30889  0.11024  Biso   1.000  O
  H812     1.0000 0.00122  0.34189  0.08470  Biso   1.000  H
  C493     1.0000 0.96831  0.26643  0.09280  Biso   1.000  C
  H813     1.0000 0.12000  0.27000  0.00811  Biso   1.000  H
  O409     1.0000 0.28941  0.06781  0.11133  Biso   1.000  O
  H814     1.0000 0.22871  0.01738  0.09790  Biso   1.000  H
  C494     1.0000 0.30372  0.98371  0.08850  Biso   1.000  C
  H815     1.0000 0.20081  0.01010  0.05641  Biso   1.000  H
  C495     1.0000 0.23212  0.05421  0.02660  Biso   1.000  C
  O410     1.0000 0.27901  0.98093  0.04720  Biso   1.000  O
  C496     1.0000 0.93661  0.25990  0.06991  Biso   1.000  C
  H816     1.0000 0.98990  0.20081  0.05641  Biso   1.000  H
  C497     1.0000 0.94583  0.23212  0.02660  Biso   1.000  C
  H817     1.0000 0.03022  0.31159  0.12210  Biso   1.000  H
  O411     1.0000 0.93224  0.28941  0.11133  Biso   1.000  O
  H818     1.0000 0.98262  0.22871  0.09790  Biso   1.000  H
  H819     1.0000 0.31171  0.09129  0.10530  Biso   1.000  H
  O412     1.0000 0.30889  0.94861  0.11024  Biso   1.000  O
  H820     1.0000 0.34189  0.99882  0.08470  Biso   1.000  H
  C498     1.0000 0.28469  0.94823  0.06820  Biso   1.000  C
  O413     1.0000 0.28170  0.07791  0.01950  Biso   1.000  O
  H821     1.0000 0.22042  0.02538  0.01500  Biso   1.000  H
  H822     1.0000 0.20249  0.08351  0.02709  Biso   1.000  H
  O414     1.0000 0.89053  0.22042  0.07433  Biso   1.000  O
  H823     1.0000 0.92091  0.29719  0.06490  Biso   1.000  H
  O415     1.0000 0.92213  0.28170  0.01950  Biso   1.000  O
  H824     1.0000 0.97462  0.22042  0.01500  Biso   1.000  H
  H825     1.0000 0.91649  0.20249  0.02709  Biso   1.000  H
  H826     1.0000 0.90871  0.31171  0.10530  Biso   1.000  H
  H827     1.0000 0.31159  0.96982  0.12210  Biso   1.000  H
  O416     1.0000 0.23532  0.92251  0.07431  Biso   1.000  O
  H828     1.0000 0.31361  0.91843  0.06531  Biso   1.000  H
  H829     1.0000 0.30729  0.05619  0.01511  Biso   1.000  H
  C499     1.0000 0.83602  0.23898  0.06809  Biso   1.000  C
  H830     1.0000 0.94381  0.30729  0.01511  Biso   1.000  H
  C500     1.0000 0.23179  0.86270  0.07010  Biso   1.000  C
  O417     1.0000 0.81653  0.20990  0.04763  Biso   1.000  O
  C501     1.0000 0.79793  0.22720  0.08910  Biso   1.000  C
  H831     1.0000 0.83682  0.28040  0.06490  Biso   1.000  H
  H832     1.0000 0.26912  0.84692  0.06540  Biso   1.000  H
  C502     1.0000 0.21032  0.83610  0.09319  Biso   1.000  C
  C503     1.0000 0.18679  0.85121  0.05110  Biso   1.000  C
  C504     1.0000 0.81321  0.14879  0.05110  Biso   1.000  C
  O418     1.0000 0.82259  0.25089  0.10994  Biso   1.000  O
  C505     1.0000 0.78972  0.16390  0.09319  Biso   1.000  C
  H833     1.0000 0.76043  0.24509  0.08641  Biso   1.000  H
  O419     1.0000 0.25249  0.84381  0.11182  Biso   1.000  O
  H834     1.0000 0.17391  0.85382  0.09800  Biso   1.000  H
  C506     1.0000 0.20211  0.77280  0.08910  Biso   1.000  C
  O420     1.0000 0.18351  0.79010  0.04763  Biso   1.000  O
  H835     1.0000 0.14950  0.86523  0.05690  Biso   1.000  H
  C507     1.0000 0.19908  0.87739  0.02679  Biso   1.000  C
  C508     1.0000 0.76821  0.13730  0.07010  Biso   1.000  C
  H836     1.0000 0.85050  0.13481  0.05690  Biso   1.000  H
  C509     1.0000 0.80092  0.12261  0.02679  Biso   1.000  C
  H837     1.0000 0.80412  0.27552  0.11500  Biso   1.000  H
  O421     1.0000 0.74751  0.15619  0.11182  Biso   1.000  O
  H838     1.0000 0.82613  0.14622  0.09800  Biso   1.000  H
  H839     1.0000 0.26752  0.87571  0.11040  Biso   1.000  H
  O422     1.0000 0.17741  0.74911  0.10994  Biso   1.000  O
  H840     1.0000 0.23961  0.75491  0.08641  Biso   1.000  H
  C510     1.0000 0.16402  0.76102  0.06809  Biso   1.000  C
  O423     1.0000 0.25313  0.85862  0.01870  Biso   1.000  O
  H841     1.0000 0.16962  0.86611  0.01541  Biso   1.000  H
  H842     1.0000 0.19879  0.91902  0.02810  Biso   1.000  H
  O424     1.0000 0.76472  0.07749  0.07431  Biso   1.000  O
  H843     1.0000 0.73092  0.15312  0.06540  Biso   1.000  H
  O425     1.0000 0.74692  0.14142  0.01870  Biso   1.000  O
  H844     1.0000 0.83042  0.13389  0.01541  Biso   1.000  H
  H845     1.0000 0.80121  0.08102  0.02810  Biso   1.000  H
  H846     1.0000 0.73252  0.12429  0.11040  Biso   1.000  H
  H847     1.0000 0.19588  0.72453  0.11500  Biso   1.000  H
  O426     1.0000 0.10952  0.77962  0.07433  Biso   1.000  O
  H848     1.0000 0.16322  0.71960  0.06490  Biso   1.000  H
  H849     1.0000 0.27000  0.88000  0.00811  Biso   1.000  H
  C511     1.0000 0.71531  0.05181  0.06820  Biso   1.000  C
  H850     1.0000 0.73000  0.12000  0.00811  Biso   1.000  H
  C512     1.0000 0.06339  0.74010  0.06991  Biso   1.000  C
  O427     1.0000 0.72103  0.01911  0.04720  Biso   1.000  O
  C513     1.0000 0.69633  0.01629  0.08850  Biso   1.000  C
  H851     1.0000 0.68639  0.08161  0.06531  Biso   1.000  H
  H852     1.0000 0.07909  0.70281  0.06490  Biso   1.000  H
  C514     1.0000 0.03169  0.73362  0.09280  Biso   1.000  C
  C515     1.0000 0.02639  0.76232  0.05140  Biso   1.000  C
  C516     1.0000 0.76232  0.97361  0.05140  Biso   1.000  C
  C517     1.0000 0.73362  0.96831  0.09280  Biso   1.000  C
  O428     1.0000 0.69111  0.05139  0.11024  Biso   1.000  O
  H853     1.0000 0.65811  0.00122  0.08470  Biso   1.000  H
  C518     1.0000 0.98371  0.69633  0.08850  Biso   1.000  C
  O429     1.0000 0.06781  0.71059  0.11133  Biso   1.000  O
  H854     1.0000 0.01738  0.77133  0.09790  Biso   1.000  H
  O430     1.0000 0.98093  0.72103  0.04720  Biso   1.000  O
  H855     1.0000 0.01010  0.79923  0.05641  Biso   1.000  H
  C519     1.0000 0.05421  0.76792  0.02660  Biso   1.000  C
  C520     1.0000 0.74010  0.93661  0.06991  Biso   1.000  C
  H856     1.0000 0.79923  0.98990  0.05641  Biso   1.000  H
  C521     1.0000 0.76792  0.94583  0.02660  Biso   1.000  C
  O431     1.0000 0.71059  0.93224  0.11133  Biso   1.000  O
  H857     1.0000 0.77133  0.98262  0.09790  Biso   1.000  H
  H858     1.0000 0.68841  0.03022  0.12210  Biso   1.000  H
  O432     1.0000 0.94861  0.69111  0.11024  Biso   1.000  O
  H859     1.0000 0.99882  0.65811  0.08470  Biso   1.000  H
  C522     1.0000 0.94823  0.71531  0.06820  Biso   1.000  C
  H860     1.0000 0.09129  0.68833  0.10530  Biso   1.000  H
  O433     1.0000 0.07791  0.71830  0.01950  Biso   1.000  O
  H861     1.0000 0.02538  0.77962  0.01500  Biso   1.000  H
  H862     1.0000 0.08351  0.79751  0.02709  Biso   1.000  H
  O434     1.0000 0.77962  0.89053  0.07433  Biso   1.000  O
  H863     1.0000 0.70281  0.92091  0.06490  Biso   1.000  H
  O435     1.0000 0.71830  0.92213  0.01950  Biso   1.000  O
  H864     1.0000 0.77962  0.97462  0.01500  Biso   1.000  H
  H865     1.0000 0.79751  0.91649  0.02709  Biso   1.000  H
  H866     1.0000 0.68833  0.90871  0.10530  Biso   1.000  H
  H867     1.0000 0.96982  0.68841  0.12210  Biso   1.000  H
  O436     1.0000 0.92251  0.76472  0.07431  Biso   1.000  O
  H868     1.0000 0.91843  0.68639  0.06531  Biso   1.000  H
  H869     1.0000 0.05619  0.69271  0.01511  Biso   1.000  H
  C523     1.0000 0.76102  0.83602  0.06809  Biso   1.000  C
  H870     1.0000 0.69271  0.94381  0.01511  Biso   1.000  H
  C524     1.0000 0.86270  0.76821  0.07010  Biso   1.000  C
  O437     1.0000 0.79010  0.81653  0.04763  Biso   1.000  O
  C525     1.0000 0.77280  0.79793  0.08910  Biso   1.000  C
  H871     1.0000 0.71960  0.83682  0.06490  Biso   1.000  H
  H872     1.0000 0.84692  0.73092  0.06540  Biso   1.000  H
  C526     1.0000 0.83610  0.78972  0.09319  Biso   1.000  C
  C527     1.0000 0.85121  0.81321  0.05110  Biso   1.000  C
  O438     1.0000 0.74911  0.82259  0.10994  Biso   1.000  O
  H873     1.0000 0.75491  0.76043  0.08641  Biso   1.000  H
  O439     1.0000 0.84381  0.74751  0.11182  Biso   1.000  O
  H874     1.0000 0.85382  0.82613  0.09800  Biso   1.000  H
  H875     1.0000 0.86523  0.85050  0.05690  Biso   1.000  H
  C528     1.0000 0.87739  0.80092  0.02679  Biso   1.000  C
  H876     1.0000 0.72453  0.80412  0.11500  Biso   1.000  H
  H877     1.0000 0.87571  0.73252  0.11040  Biso   1.000  H
  O440     1.0000 0.85862  0.74692  0.01870  Biso   1.000  O
  H878     1.0000 0.86611  0.83042  0.01541  Biso   1.000  H
  H879     1.0000 0.91902  0.80121  0.02810  Biso   1.000  H
  H880     1.0000 0.88000  0.73000  0.00811  Biso   1.000  H
  O441     1.0000 0.25249  0.15619  0.88818  Biso   1.000  O
  H881     1.0000 0.26752  0.12429  0.88960  Biso   1.000  H
  C529     1.0000 0.21032  0.16390  0.90681  Biso   1.000  C
  C530     1.0000 0.23179  0.13730  0.92990  Biso   1.000  C
  H882     1.0000 0.17391  0.14622  0.90200  Biso   1.000  H
  C531     1.0000 0.20211  0.22720  0.91090  Biso   1.000  C
  O442     1.0000 0.23532  0.07749  0.92569  Biso   1.000  O
  H883     1.0000 0.26912  0.15312  0.93460  Biso   1.000  H
  C532     1.0000 0.18679  0.14879  0.94890  Biso   1.000  C
  O443     1.0000 0.17741  0.25089  0.89006  Biso   1.000  O
  H884     1.0000 0.23961  0.24509  0.91359  Biso   1.000  H
  C533     1.0000 0.16402  0.23898  0.93191  Biso   1.000  C
  C534     1.0000 0.28469  0.05181  0.93180  Biso   1.000  C
  O444     1.0000 0.18351  0.20990  0.95237  Biso   1.000  O
  H885     1.0000 0.14950  0.13481  0.94310  Biso   1.000  H
  C535     1.0000 0.19908  0.12261  0.97321  Biso   1.000  C
  H886     1.0000 0.19588  0.27552  0.88500  Biso   1.000  H
  O445     1.0000 0.10952  0.22042  0.92567  Biso   1.000  O
  H887     1.0000 0.16322  0.28040  0.93510  Biso   1.000  H
  O446     1.0000 0.27901  0.01911  0.95280  Biso   1.000  O
  C536     1.0000 0.30372  0.01629  0.91150  Biso   1.000  C
  H888     1.0000 0.31361  0.08161  0.93469  Biso   1.000  H
  O447     1.0000 0.25313  0.14142  0.98130  Biso   1.000  O
  H889     1.0000 0.16962  0.13389  0.98459  Biso   1.000  H
  H890     1.0000 0.19879  0.08102  0.97190  Biso   1.000  H
  C537     1.0000 0.06339  0.25990  0.93009  Biso   1.000  C
  C538     1.0000 0.23772  0.97361  0.94860  Biso   1.000  C
  O448     1.0000 0.30889  0.05139  0.88976  Biso   1.000  O
  H891     1.0000 0.34189  0.00122  0.91530  Biso   1.000  H
  C539     1.0000 0.26643  0.96831  0.90720  Biso   1.000  C
  H892     1.0000 0.27000  0.12000  0.99189  Biso   1.000  H
  H893     1.0000 0.07909  0.29719  0.93510  Biso   1.000  H
  C540     1.0000 0.03169  0.26643  0.90720  Biso   1.000  C
  C541     1.0000 0.02639  0.23772  0.94860  Biso   1.000  C
  C542     1.0000 0.25990  0.93661  0.93009  Biso   1.000  C
  H894     1.0000 0.20081  0.98990  0.94359  Biso   1.000  H
  C543     1.0000 0.23212  0.94583  0.97340  Biso   1.000  C
  H895     1.0000 0.31159  0.03022  0.87790  Biso   1.000  H
  O449     1.0000 0.28941  0.93224  0.88867  Biso   1.000  O
  H896     1.0000 0.22871  0.98262  0.90210  Biso   1.000  H
  O450     1.0000 0.06781  0.28941  0.88867  Biso   1.000  O
  H897     1.0000 0.01738  0.22871  0.90210  Biso   1.000  H
  C544     1.0000 0.98371  0.30372  0.91150  Biso   1.000  C
  H898     1.0000 0.01010  0.20081  0.94359  Biso   1.000  H
  C545     1.0000 0.05421  0.23212  0.97340  Biso   1.000  C
  O451     1.0000 0.98093  0.27901  0.95280  Biso   1.000  O
  O452     1.0000 0.22042  0.89053  0.92567  Biso   1.000  O
  H899     1.0000 0.29719  0.92091  0.93510  Biso   1.000  H
  O453     1.0000 0.28170  0.92213  0.98050  Biso   1.000  O
  H900     1.0000 0.22042  0.97462  0.98500  Biso   1.000  H
  H901     1.0000 0.20249  0.91649  0.97291  Biso   1.000  H
  H902     1.0000 0.31171  0.90871  0.89470  Biso   1.000  H
  H903     1.0000 0.09129  0.31171  0.89470  Biso   1.000  H
  O454     1.0000 0.94861  0.30889  0.88976  Biso   1.000  O
  H904     1.0000 0.99882  0.34189  0.91530  Biso   1.000  H
  C546     1.0000 0.94823  0.28469  0.93180  Biso   1.000  C
  O455     1.0000 0.07791  0.28170  0.98050  Biso   1.000  O
  H905     1.0000 0.02538  0.22042  0.98500  Biso   1.000  H
  H906     1.0000 0.08351  0.20249  0.97291  Biso   1.000  H
  C547     1.0000 0.23898  0.83602  0.93191  Biso   1.000  C
  H907     1.0000 0.30729  0.94381  0.98489  Biso   1.000  H
  H908     1.0000 0.96982  0.31159  0.87790  Biso   1.000  H
  O456     1.0000 0.92251  0.23532  0.92569  Biso   1.000  O
  H909     1.0000 0.91843  0.31361  0.93469  Biso   1.000  H
  H910     1.0000 0.05619  0.30729  0.98489  Biso   1.000  H
  O457     1.0000 0.20990  0.81653  0.95237  Biso   1.000  O
  C548     1.0000 0.22720  0.79793  0.91090  Biso   1.000  C
  H911     1.0000 0.28040  0.83682  0.93510  Biso   1.000  H
  C549     1.0000 0.86270  0.23179  0.92990  Biso   1.000  C
  C550     1.0000 0.14879  0.81321  0.94890  Biso   1.000  C
  O458     1.0000 0.25089  0.82259  0.89006  Biso   1.000  O
  C551     1.0000 0.16390  0.78972  0.90681  Biso   1.000  C
  H912     1.0000 0.24509  0.76043  0.91359  Biso   1.000  H
  H913     1.0000 0.84692  0.26912  0.93460  Biso   1.000  H
  C552     1.0000 0.83610  0.21032  0.90681  Biso   1.000  C
  C553     1.0000 0.85121  0.18679  0.94890  Biso   1.000  C
  C554     1.0000 0.13730  0.76821  0.92990  Biso   1.000  C
  H914     1.0000 0.13481  0.85050  0.94310  Biso   1.000  H
  C555     1.0000 0.12261  0.80092  0.97321  Biso   1.000  C
  H915     1.0000 0.27552  0.80412  0.88500  Biso   1.000  H
  O459     1.0000 0.15619  0.74751  0.88818  Biso   1.000  O
  H916     1.0000 0.14622  0.82613  0.90200  Biso   1.000  H
  O460     1.0000 0.84381  0.25249  0.88818  Biso   1.000  O
  H917     1.0000 0.85382  0.17391  0.90200  Biso   1.000  H
  C556     1.0000 0.77280  0.20211  0.91090  Biso   1.000  C
  O461     1.0000 0.79010  0.18351  0.95237  Biso   1.000  O
  H918     1.0000 0.86523  0.14950  0.94310  Biso   1.000  H
  C557     1.0000 0.87739  0.19908  0.97321  Biso   1.000  C
  O462     1.0000 0.07749  0.76472  0.92569  Biso   1.000  O
  H919     1.0000 0.15312  0.73092  0.93460  Biso   1.000  H
  O463     1.0000 0.14142  0.74692  0.98130  Biso   1.000  O
  H920     1.0000 0.13389  0.83042  0.98459  Biso   1.000  H
  H921     1.0000 0.08102  0.80121  0.97190  Biso   1.000  H
  H922     1.0000 0.12429  0.73252  0.88960  Biso   1.000  H
  H923     1.0000 0.87571  0.26752  0.88960  Biso   1.000  H
  O464     1.0000 0.74911  0.17741  0.89006  Biso   1.000  O
  H924     1.0000 0.75491  0.23961  0.91359  Biso   1.000  H
  C558     1.0000 0.76102  0.16402  0.93191  Biso   1.000  C
  O465     1.0000 0.85862  0.25313  0.98130  Biso   1.000  O
  H925     1.0000 0.86611  0.16962  0.98459  Biso   1.000  H
  H926     1.0000 0.91902  0.19879  0.97190  Biso   1.000  H
  C559     1.0000 0.05181  0.71531  0.93180  Biso   1.000  C
  H927     1.0000 0.12000  0.73000  0.99189  Biso   1.000  H
  H928     1.0000 0.72453  0.19588  0.88500  Biso   1.000  H
  O466     1.0000 0.77962  0.10952  0.92567  Biso   1.000  O
  H929     1.0000 0.71960  0.16322  0.93510  Biso   1.000  H
  H930     1.0000 0.88000  0.27000  0.99189  Biso   1.000  H
  O467     1.0000 0.01911  0.72103  0.95280  Biso   1.000  O
  C560     1.0000 0.01629  0.69633  0.91150  Biso   1.000  C
  H931     1.0000 0.08161  0.68639  0.93469  Biso   1.000  H
  C561     1.0000 0.74010  0.06339  0.93009  Biso   1.000  C
  C562     1.0000 0.97361  0.76232  0.94860  Biso   1.000  C
  C563     1.0000 0.96831  0.73362  0.90720  Biso   1.000  C
  O468     1.0000 0.05139  0.69111  0.88976  Biso   1.000  O
  H932     1.0000 0.00122  0.65811  0.91530  Biso   1.000  H
  H933     1.0000 0.70281  0.07909  0.93510  Biso   1.000  H
  C564     1.0000 0.73362  0.03169  0.90720  Biso   1.000  C
  C565     1.0000 0.76232  0.02639  0.94860  Biso   1.000  C
  C566     1.0000 0.93661  0.74010  0.93009  Biso   1.000  C
  H934     1.0000 0.98990  0.79923  0.94359  Biso   1.000  H
  C567     1.0000 0.94583  0.76792  0.97340  Biso   1.000  C
  O469     1.0000 0.93224  0.71059  0.88867  Biso   1.000  O
  H935     1.0000 0.98262  0.77133  0.90210  Biso   1.000  H
  H936     1.0000 0.03022  0.68841  0.87790  Biso   1.000  H
  C568     1.0000 0.69633  0.98371  0.91150  Biso   1.000  C
  O470     1.0000 0.71059  0.06781  0.88867  Biso   1.000  O
  H937     1.0000 0.77133  0.01738  0.90210  Biso   1.000  H
  O471     1.0000 0.72103  0.98093  0.95280  Biso   1.000  O
  H938     1.0000 0.79923  0.01010  0.94359  Biso   1.000  H
  C569     1.0000 0.76792  0.05421  0.97340  Biso   1.000  C
  O472     1.0000 0.89053  0.77962  0.92567  Biso   1.000  O
  H939     1.0000 0.92091  0.70281  0.93510  Biso   1.000  H
  O473     1.0000 0.92213  0.71830  0.98050  Biso   1.000  O
  H940     1.0000 0.97462  0.77962  0.98500  Biso   1.000  H
  H941     1.0000 0.91649  0.79751  0.97291  Biso   1.000  H
  H942     1.0000 0.90871  0.68833  0.89470  Biso   1.000  H
  O474     1.0000 0.69111  0.94861  0.88976  Biso   1.000  O
  H943     1.0000 0.65811  0.99882  0.91530  Biso   1.000  H
  C570     1.0000 0.71531  0.94823  0.93180  Biso   1.000  C
  H944     1.0000 0.68833  0.09129  0.89470  Biso   1.000  H
  O475     1.0000 0.71830  0.07791  0.98050  Biso   1.000  O
  H945     1.0000 0.77962  0.02538  0.98500  Biso   1.000  H
  H946     1.0000 0.79751  0.08351  0.97291  Biso   1.000  H
  C571     1.0000 0.83602  0.76102  0.93191  Biso   1.000  C
  H947     1.0000 0.94381  0.69271  0.98489  Biso   1.000  H
  H948     1.0000 0.68841  0.96982  0.87790  Biso   1.000  H
  O476     1.0000 0.76472  0.92251  0.92569  Biso   1.000  O
  H949     1.0000 0.68639  0.91843  0.93469  Biso   1.000  H
  H950     1.0000 0.69271  0.05619  0.98489  Biso   1.000  H
  O477     1.0000 0.81653  0.79010  0.95237  Biso   1.000  O
  C572     1.0000 0.79793  0.77280  0.91090  Biso   1.000  C
  H951     1.0000 0.83682  0.71960  0.93510  Biso   1.000  H
  C573     1.0000 0.76821  0.86270  0.92990  Biso   1.000  C
  C574     1.0000 0.81321  0.85121  0.94890  Biso   1.000  C
  O478     1.0000 0.82259  0.74911  0.89006  Biso   1.000  O
  C575     1.0000 0.78972  0.83610  0.90681  Biso   1.000  C
  H952     1.0000 0.76043  0.75491  0.91359  Biso   1.000  H
  H953     1.0000 0.73092  0.84692  0.93460  Biso   1.000  H
  H954     1.0000 0.85050  0.86523  0.94310  Biso   1.000  H
  C576     1.0000 0.80092  0.87739  0.97321  Biso   1.000  C
  H955     1.0000 0.80412  0.72453  0.88500  Biso   1.000  H
  O479     1.0000 0.74751  0.84381  0.88818  Biso   1.000  O
  H956     1.0000 0.82613  0.85382  0.90200  Biso   1.000  H
  O480     1.0000 0.74692  0.85862  0.98130  Biso   1.000  O
  H957     1.0000 0.83042  0.86611  0.98459  Biso   1.000  H
  H958     1.0000 0.80121  0.91902  0.97190  Biso   1.000  H
  H959     1.0000 0.73252  0.87571  0.88960  Biso   1.000  H
  H960     1.0000 0.73000  0.88000  0.99189  Biso   1.000  H
