data_image0
_cell_length_a       55.948
_cell_length_b       44.329
_cell_length_c       12.482
_cell_angle_alpha    90
_cell_angle_beta     90
_cell_angle_gamma    90

_symmetry_space_group_name_H-M    "P 1"
_symmetry_int_tables_number       1

loop_
  _symmetry_equiv_pos_as_xyz
  'x, y, z'

loop_
  _atom_site_label
  _atom_site_occupancy
  _atom_site_fract_x
  _atom_site_fract_y
  _atom_site_fract_z
  _atom_site_thermal_displace_type
  _atom_site_B_iso_or_equiv
  _atom_site_type_symbol
  C1       1.0000 0.50733  0.54585  0.43014  Biso   1.000  C
  O1       1.0000 0.48368  0.54648  0.46002  Biso   1.000  O
  C2       1.0000 0.52374  0.54842  0.51162  Biso   1.000  C
  C3       1.0000 0.51457  0.54330  0.32527  Biso   1.000  C
  C4       1.0000 0.46597  0.53680  0.39208  Biso   1.000  C
  C5       1.0000 0.54801  0.54996  0.48494  Biso   1.000  C
  C6       1.0000 0.51582  0.55133  0.62674  Biso   1.000  C
  H1       1.0000 0.50320  0.54100  0.27167  Biso   1.000  H
  C7       1.0000 0.53904  0.54405  0.29763  Biso   1.000  C
  C8       1.0000 0.44125  0.53931  0.44360  Biso   1.000  C
  H2       1.0000 0.46870  0.52961  0.32311  Biso   1.000  H
  H3       1.0000 0.55920  0.55241  0.53918  Biso   1.000  H
  C9       1.0000 0.55569  0.54790  0.38071  Biso   1.000  C
  C10      1.0000 0.51543  0.58431  0.65871  Biso   1.000  C
  H4       1.0000 0.52670  0.54030  0.67281  Biso   1.000  H
  H5       1.0000 0.50000  0.54271  0.63523  Biso   1.000  H
  C11      1.0000 0.54724  0.54156  0.18194  Biso   1.000  C
  C12      1.0000 0.42243  0.52961  0.36324  Biso   1.000  C
  C13      1.0000 0.44019  0.53281  0.56121  Biso   1.000  C
  O2       1.0000 0.57957  0.54930  0.35002  Biso   1.000  O
  C14      1.0000 0.49473  0.60150  0.63868  Biso   1.000  C
  C15      1.0000 0.53526  0.59875  0.70061  Biso   1.000  C
  C16      1.0000 0.54858  0.57173  0.12746  Biso   1.000  C
  H6       1.0000 0.56290  0.53211  0.17994  Biso   1.000  H
  H7       1.0000 0.53619  0.52871  0.14293  Biso   1.000  H
  H8       1.0000 0.42509  0.53980  0.29643  Biso   1.000  H
  H9       1.0000 0.40690  0.53480  0.38992  Biso   1.000  H
  H10      1.0000 0.42339  0.50820  0.35243  Biso   1.000  H
  H11      1.0000 0.44979  0.51540  0.57707  Biso   1.000  H
  H12      1.0000 0.42389  0.52880  0.58164  Biso   1.000  H
  H13      1.0000 0.44600  0.54991  0.60038  Biso   1.000  H
  C17      1.0000 0.59627  0.55661  0.43551  Biso   1.000  C
  C18      1.0000 0.49457  0.63236  0.65671  Biso   1.000  C
  H14      1.0000 0.48100  0.59201  0.61304  Biso   1.000  H
  O3       1.0000 0.55548  0.58104  0.71791  Biso   1.000  O
  C19      1.0000 0.53466  0.62957  0.71871  Biso   1.000  C
  C20      1.0000 0.52887  0.58422  0.07603  Biso   1.000  C
  C21      1.0000 0.56942  0.58862  0.13139  Biso   1.000  C
  C22      1.0000 0.62111  0.55799  0.38680  Biso   1.000  C
  H15      1.0000 0.59570  0.54132  0.49095  Biso   1.000  H
  H16      1.0000 0.59219  0.57590  0.46731  Biso   1.000  H
  O4       1.0000 0.47474  0.64994  0.63604  Biso   1.000  O
  C23      1.0000 0.51476  0.64664  0.69604  Biso   1.000  C
  C24      1.0000 0.57114  0.58973  0.79779  Biso   1.000  C
  H17      1.0000 0.54810  0.63899  0.74700  Biso   1.000  H
  O5       1.0000 0.50797  0.56703  0.07170  Biso   1.000  O
  C25      1.0000 0.53028  0.61249  0.02988  Biso   1.000  C
  C26      1.0000 0.57096  0.61732  0.08508  Biso   1.000  C
  H18      1.0000 0.58279  0.58070  0.16584  Biso   1.000  H
  H19      1.0000 0.62040  0.57100  0.32343  Biso   1.000  H
  C27      1.0000 0.62991  0.52812  0.35347  Biso   1.000  C
  C28      1.0000 0.63784  0.57258  0.46819  Biso   1.000  C
  C29      1.0000 0.45394  0.63599  0.59542  Biso   1.000  C
  C30      1.0000 0.51462  0.68073  0.71399  Biso   1.000  C
  C31      1.0000 0.58649  0.56182  0.83048  Biso   1.000  C
  H20      1.0000 0.57230  0.60901  0.82711  Biso   1.000  H
  C32      1.0000 0.49605  0.56568  0.97308  Biso   1.000  C
  C33      1.0000 0.55105  0.62970  0.03493  Biso   1.000  C
  H21      1.0000 0.51700  0.62020  0.99471  Biso   1.000  H
  O6       1.0000 0.59123  0.63444  0.08508  Biso   1.000  O
  H22      1.0000 0.63139  0.51531  0.41524  Biso   1.000  H
  H23      1.0000 0.64530  0.53031  0.31990  Biso   1.000  H
  H24      1.0000 0.61890  0.51930  0.30372  Biso   1.000  H
  H25      1.0000 0.63200  0.59230  0.48638  Biso   1.000  H
  H26      1.0000 0.65350  0.57430  0.43791  Biso   1.000  H
  H27      1.0000 0.63849  0.56031  0.53149  Biso   1.000  H
  C34      1.0000 0.43610  0.65957  0.56257  Biso   1.000  C
  H28      1.0000 0.44700  0.62311  0.64990  Biso   1.000  H
  H29      1.0000 0.45800  0.62361  0.53413  Biso   1.000  H
  C35      1.0000 0.51846  0.69846  0.61208  Biso   1.000  C
  H30      1.0000 0.49939  0.68650  0.74523  Biso   1.000  H
  H31      1.0000 0.52710  0.68592  0.76478  Biso   1.000  H
  H32      1.0000 0.59720  0.56821  0.88848  Biso   1.000  H
  C36      1.0000 0.60179  0.55111  0.73971  Biso   1.000  C
  C37      1.0000 0.57257  0.53741  0.86973  Biso   1.000  C
  H33      1.0000 0.50139  0.57671  0.91460  Biso   1.000  H
  C38      1.0000 0.47612  0.54750  0.96531  Biso   1.000  C
  C39      1.0000 0.55132  0.66097  0.98670  Biso   1.000  C
  C40      1.0000 0.61230  0.62275  0.13411  Biso   1.000  C
  H34      1.0000 0.44380  0.67261  0.50937  Biso   1.000  H
  C41      1.0000 0.41492  0.64416  0.50801  Biso   1.000  C
  C42      1.0000 0.42890  0.67931  0.65719  Biso   1.000  C
  C43      1.0000 0.49957  0.71231  0.55929  Biso   1.000  C
  C44      1.0000 0.54150  0.70245  0.56882  Biso   1.000  C
  H35      1.0000 0.59200  0.54111  0.68739  Biso   1.000  H
  H36      1.0000 0.61359  0.53721  0.76638  Biso   1.000  H
  H37      1.0000 0.60969  0.56800  0.70718  Biso   1.000  H
  H38      1.0000 0.56309  0.52920  0.81245  Biso   1.000  H
  H39      1.0000 0.56220  0.54441  0.92581  Biso   1.000  H
  H40      1.0000 0.58299  0.52201  0.89729  Biso   1.000  H
  C45      1.0000 0.46550  0.53241  0.04502  Biso   1.000  C
  C46      1.0000 0.46220  0.54971  0.86156  Biso   1.000  C
  C47      1.0000 0.54579  0.68477  0.06938  Biso   1.000  C
  H41      1.0000 0.56690  0.66491  0.95594  Biso   1.000  H
  H42      1.0000 0.53959  0.66200  0.92950  Biso   1.000  H
  H43      1.0000 0.61859  0.60619  0.09181  Biso   1.000  H
  H44      1.0000 0.60860  0.61520  0.20518  Biso   1.000  H
  C48      1.0000 0.63080  0.64788  0.14180  Biso   1.000  C
  H45      1.0000 0.42060  0.63171  0.45057  Biso   1.000  H
  H46      1.0000 0.40430  0.65921  0.47989  Biso   1.000  H
  H47      1.0000 0.40659  0.63191  0.55921  Biso   1.000  H
  H48      1.0000 0.42019  0.66740  0.70830  Biso   1.000  H
  H49      1.0000 0.41900  0.69550  0.63243  Biso   1.000  H
  H50      1.0000 0.44300  0.68741  0.69043  Biso   1.000  H
  C49      1.0000 0.50279  0.72862  0.46539  Biso   1.000  C
  H51      1.0000 0.48429  0.71060  0.58773  Biso   1.000  H
  O7       1.0000 0.55973  0.68822  0.62394  Biso   1.000  O
  C50      1.0000 0.54486  0.71912  0.47661  Biso   1.000  C
  H52      1.0000 0.47750  0.52471  0.09301  Biso   1.000  H
  H53      1.0000 0.45650  0.51592  0.01610  Biso   1.000  H
  H54      1.0000 0.45510  0.54581  0.08332  Biso   1.000  H
  H55      1.0000 0.46500  0.53191  0.81926  Biso   1.000  H
  H56      1.0000 0.46729  0.56710  0.82238  Biso   1.000  H
  H57      1.0000 0.44540  0.55131  0.87718  Biso   1.000  H
  C51      1.0000 0.52223  0.69329  0.09101  Biso   1.000  C
  C52      1.0000 0.56418  0.69792  0.12891  Biso   1.000  C
  H58      1.0000 0.62379  0.66460  0.18218  Biso   1.000  H
  C53      1.0000 0.65241  0.63710  0.20037  Biso   1.000  C
  C54      1.0000 0.63768  0.65941  0.03068  Biso   1.000  C
  O8       1.0000 0.48456  0.74261  0.40931  Biso   1.000  O
  C55      1.0000 0.52579  0.73250  0.42389  Biso   1.000  C
  C56      1.0000 0.58322  0.68880  0.57683  Biso   1.000  C
  H59      1.0000 0.56020  0.72140  0.44929  Biso   1.000  H
  O9       1.0000 0.50490  0.68016  0.02860  Biso   1.000  O
  C57      1.0000 0.51787  0.71418  0.17033  Biso   1.000  C
  H60      1.0000 0.57990  0.69230  0.11497  Biso   1.000  H
  C58      1.0000 0.55981  0.71906  0.20774  Biso   1.000  C
  H61      1.0000 0.64780  0.62990  0.26991  Biso   1.000  H
  H62      1.0000 0.66349  0.65350  0.20822  Biso   1.000  H
  H63      1.0000 0.65979  0.62111  0.16079  Biso   1.000  H
  H64      1.0000 0.64519  0.67870  0.03709  Biso   1.000  H
  H65      1.0000 0.64860  0.64540  0.99792  Biso   1.000  H
  H66      1.0000 0.62360  0.66110  0.98726  Biso   1.000  H
  C59      1.0000 0.46073  0.73735  0.44592  Biso   1.000  C
  C60      1.0000 0.53026  0.74913  0.31942  Biso   1.000  C
  H67      1.0000 0.58989  0.70890  0.58172  Biso   1.000  H
  H68      1.0000 0.58229  0.68321  0.50168  Biso   1.000  H
  C61      1.0000 0.59875  0.66674  0.63660  Biso   1.000  C
  C62      1.0000 0.48096  0.69029  0.04246  Biso   1.000  C
  C63      1.0000 0.53594  0.72713  0.23073  Biso   1.000  C
  H69      1.0000 0.50220  0.71980  0.18378  Biso   1.000  H
  O10      1.0000 0.57741  0.73306  0.26622  Biso   1.000  O
  C64      1.0000 0.44338  0.75152  0.36869  Biso   1.000  C
  H70      1.0000 0.45860  0.74601  0.51658  Biso   1.000  H
  H71      1.0000 0.45780  0.71581  0.45057  Biso   1.000  H
  H72      1.0000 0.51619  0.76081  0.30043  Biso   1.000  H
  H73      1.0000 0.54349  0.76300  0.32839  Biso   1.000  H
  H74      1.0000 0.59080  0.64712  0.63483  Biso   1.000  H
  C65      1.0000 0.60218  0.67520  0.75172  Biso   1.000  C
  C66      1.0000 0.62231  0.66363  0.57779  Biso   1.000  C
  H75      1.0000 0.48070  0.71220  0.04350  Biso   1.000  H
  H76      1.0000 0.47489  0.68310  0.11080  Biso   1.000  H
  C67      1.0000 0.46497  0.67883  0.95273  Biso   1.000  C
  C68      1.0000 0.60095  0.72172  0.25709  Biso   1.000  C
  H77      1.0000 0.44659  0.77320  0.36693  Biso   1.000  H
  C69      1.0000 0.41819  0.74710  0.41307  Biso   1.000  C
  C70      1.0000 0.44554  0.73979  0.25701  Biso   1.000  C
  H78      1.0000 0.60999  0.69440  0.75589  Biso   1.000  H
  H79      1.0000 0.61180  0.66020  0.78649  Biso   1.000  H
  H80      1.0000 0.58690  0.67640  0.78649  Biso   1.000  H
  H81      1.0000 0.61949  0.65521  0.50809  Biso   1.000  H
  H82      1.0000 0.63280  0.65061  0.61761  Biso   1.000  H
  H83      1.0000 0.62960  0.68310  0.57050  Biso   1.000  H
  H84      1.0000 0.47010  0.68860  0.88624  Biso   1.000  H
  C71      1.0000 0.43984  0.68912  0.97677  Biso   1.000  C
  C72      1.0000 0.46674  0.64509  0.93623  Biso   1.000  C
  H85      1.0000 0.60660  0.72411  0.18402  Biso   1.000  H
  H86      1.0000 0.60109  0.70040  0.27432  Biso   1.000  H
  C73      1.0000 0.61727  0.73850  0.33264  Biso   1.000  C
  H87      1.0000 0.40670  0.75461  0.36244  Biso   1.000  H
  H88      1.0000 0.41660  0.75790  0.47941  Biso   1.000  H
  H89      1.0000 0.41540  0.72600  0.42541  Biso   1.000  H
  H90      1.0000 0.46109  0.74461  0.22921  Biso   1.000  H
  H91      1.0000 0.43349  0.74890  0.21279  Biso   1.000  H
  H92      1.0000 0.44350  0.71831  0.25717  Biso   1.000  H
  H93      1.0000 0.43430  0.67951  0.04110  Biso   1.000  H
  H94      1.0000 0.42949  0.68380  0.91828  Biso   1.000  H
  H95      1.0000 0.43969  0.71060  0.98638  Biso   1.000  H
  H96      1.0000 0.48320  0.63960  0.92517  Biso   1.000  H
  H97      1.0000 0.45750  0.63940  0.87470  Biso   1.000  H
  H98      1.0000 0.46070  0.63491  0.99840  Biso   1.000  H
  H99      1.0000 0.61110  0.73631  0.40570  Biso   1.000  H
  C74      1.0000 0.64204  0.72499  0.32791  Biso   1.000  C
  C75      1.0000 0.61809  0.77227  0.30428  Biso   1.000  C
  H100     1.0000 0.64140  0.70421  0.34938  Biso   1.000  H
  H101     1.0000 0.65250  0.73591  0.37534  Biso   1.000  H
  H102     1.0000 0.64799  0.72630  0.25597  Biso   1.000  H
  H103     1.0000 0.62479  0.77480  0.23402  Biso   1.000  H
  H104     1.0000 0.62780  0.78272  0.35563  Biso   1.000  H
  H105     1.0000 0.60220  0.78041  0.30564  Biso   1.000  H
  C76      1.0000 0.49265  0.45415  0.43014  Biso   1.000  C
  C77      1.0000 0.48543  0.45672  0.32527  Biso   1.000  C
  C78      1.0000 0.47626  0.45158  0.51162  Biso   1.000  C
  O11      1.0000 0.51630  0.45354  0.46002  Biso   1.000  O
  C79      1.0000 0.46096  0.45598  0.29763  Biso   1.000  C
  H106     1.0000 0.49680  0.45900  0.27167  Biso   1.000  H
  C80      1.0000 0.45197  0.45004  0.48494  Biso   1.000  C
  C81      1.0000 0.48416  0.44869  0.62674  Biso   1.000  C
  C82      1.0000 0.53401  0.46320  0.39208  Biso   1.000  C
  C83      1.0000 0.45274  0.45844  0.18194  Biso   1.000  C
  C84      1.0000 0.44429  0.45210  0.38071  Biso   1.000  C
  H107     1.0000 0.44080  0.44761  0.53918  Biso   1.000  H
  C85      1.0000 0.48456  0.41571  0.65871  Biso   1.000  C
  H108     1.0000 0.47330  0.45970  0.67281  Biso   1.000  H
  H109     1.0000 0.50000  0.45731  0.63523  Biso   1.000  H
  H110     1.0000 0.53130  0.47041  0.32311  Biso   1.000  H
  C86      1.0000 0.55875  0.46071  0.44360  Biso   1.000  C
  C87      1.0000 0.45140  0.42827  0.12746  Biso   1.000  C
  H111     1.0000 0.43710  0.46791  0.17994  Biso   1.000  H
  H112     1.0000 0.46379  0.47129  0.14293  Biso   1.000  H
  O12      1.0000 0.42041  0.45072  0.35002  Biso   1.000  O
  C88      1.0000 0.50525  0.39852  0.63868  Biso   1.000  C
  C89      1.0000 0.46472  0.40125  0.70061  Biso   1.000  C
  C90      1.0000 0.57757  0.47041  0.36324  Biso   1.000  C
  C91      1.0000 0.55979  0.46721  0.56121  Biso   1.000  C
  C92      1.0000 0.43058  0.41138  0.13139  Biso   1.000  C
  C93      1.0000 0.47113  0.41580  0.07603  Biso   1.000  C
  C94      1.0000 0.40371  0.44341  0.43551  Biso   1.000  C
  C95      1.0000 0.50543  0.36766  0.65671  Biso   1.000  C
  H113     1.0000 0.51900  0.40799  0.61304  Biso   1.000  H
  C96      1.0000 0.46532  0.37046  0.71871  Biso   1.000  C
  O13      1.0000 0.44450  0.41896  0.71791  Biso   1.000  O
  H114     1.0000 0.57489  0.46020  0.29643  Biso   1.000  H
  H115     1.0000 0.59309  0.46520  0.38992  Biso   1.000  H
  H116     1.0000 0.57659  0.49180  0.35243  Biso   1.000  H
  H117     1.0000 0.55019  0.48460  0.57707  Biso   1.000  H
  H118     1.0000 0.57609  0.47120  0.58164  Biso   1.000  H
  H119     1.0000 0.55400  0.45011  0.60038  Biso   1.000  H
  C97      1.0000 0.42904  0.38271  0.08508  Biso   1.000  C
  H120     1.0000 0.41719  0.41930  0.16584  Biso   1.000  H
  C98      1.0000 0.46970  0.38753  0.02988  Biso   1.000  C
  O14      1.0000 0.49201  0.43299  0.07170  Biso   1.000  O
  C99      1.0000 0.37887  0.44201  0.38680  Biso   1.000  C
  H121     1.0000 0.40430  0.45871  0.49095  Biso   1.000  H
  H122     1.0000 0.40779  0.42410  0.46731  Biso   1.000  H
  C100     1.0000 0.48522  0.35338  0.69604  Biso   1.000  C
  O15      1.0000 0.52524  0.35006  0.63604  Biso   1.000  O
  H123     1.0000 0.45190  0.36101  0.74700  Biso   1.000  H
  C101     1.0000 0.42886  0.41027  0.79779  Biso   1.000  C
  C102     1.0000 0.44895  0.37030  0.03493  Biso   1.000  C
  O16      1.0000 0.40877  0.36556  0.08508  Biso   1.000  O
  H124     1.0000 0.48300  0.37980  0.99471  Biso   1.000  H
  C103     1.0000 0.50395  0.43434  0.97308  Biso   1.000  C
  H125     1.0000 0.37960  0.42900  0.32343  Biso   1.000  H
  C104     1.0000 0.37009  0.47188  0.35347  Biso   1.000  C
  C105     1.0000 0.36216  0.42742  0.46819  Biso   1.000  C
  C106     1.0000 0.48538  0.31927  0.71399  Biso   1.000  C
  C107     1.0000 0.54604  0.36401  0.59542  Biso   1.000  C
  C108     1.0000 0.41349  0.43818  0.83048  Biso   1.000  C
  H126     1.0000 0.42770  0.39101  0.82711  Biso   1.000  H
  C109     1.0000 0.44868  0.33903  0.98670  Biso   1.000  C
  C110     1.0000 0.38770  0.37725  0.13411  Biso   1.000  C
  H127     1.0000 0.49859  0.42331  0.91460  Biso   1.000  H
  C111     1.0000 0.52388  0.45250  0.96531  Biso   1.000  C
  H128     1.0000 0.36859  0.48469  0.41524  Biso   1.000  H
  H129     1.0000 0.35470  0.46972  0.31990  Biso   1.000  H
  H130     1.0000 0.38110  0.48070  0.30372  Biso   1.000  H
  H131     1.0000 0.36800  0.40770  0.48638  Biso   1.000  H
  H132     1.0000 0.34650  0.42570  0.43791  Biso   1.000  H
  H133     1.0000 0.36150  0.43971  0.53149  Biso   1.000  H
  C112     1.0000 0.48152  0.30156  0.61208  Biso   1.000  C
  H134     1.0000 0.50059  0.31350  0.74523  Biso   1.000  H
  H135     1.0000 0.47290  0.31411  0.76478  Biso   1.000  H
  C113     1.0000 0.56390  0.34043  0.56257  Biso   1.000  C
  H136     1.0000 0.55300  0.37691  0.64990  Biso   1.000  H
  H137     1.0000 0.54200  0.37641  0.53413  Biso   1.000  H
  H138     1.0000 0.40280  0.43179  0.88848  Biso   1.000  H
  C114     1.0000 0.39819  0.44889  0.73971  Biso   1.000  C
  C115     1.0000 0.42741  0.46261  0.86973  Biso   1.000  C
  C116     1.0000 0.45419  0.31526  0.06938  Biso   1.000  C
  H139     1.0000 0.43310  0.33511  0.95594  Biso   1.000  H
  H140     1.0000 0.46039  0.33800  0.92950  Biso   1.000  H
  H141     1.0000 0.38139  0.39381  0.09181  Biso   1.000  H
  H142     1.0000 0.39140  0.38480  0.20518  Biso   1.000  H
  C117     1.0000 0.36920  0.35214  0.14180  Biso   1.000  C
  C118     1.0000 0.53450  0.46759  0.04502  Biso   1.000  C
  C119     1.0000 0.53780  0.45031  0.86156  Biso   1.000  C
  C120     1.0000 0.50041  0.28769  0.55929  Biso   1.000  C
  C121     1.0000 0.45848  0.29757  0.56882  Biso   1.000  C
  H143     1.0000 0.55620  0.32739  0.50937  Biso   1.000  H
  C122     1.0000 0.58506  0.35586  0.50801  Biso   1.000  C
  C123     1.0000 0.57110  0.32072  0.65719  Biso   1.000  C
  H144     1.0000 0.40800  0.45891  0.68739  Biso   1.000  H
  H145     1.0000 0.38639  0.46281  0.76638  Biso   1.000  H
  H146     1.0000 0.39029  0.43200  0.70718  Biso   1.000  H
  H147     1.0000 0.43689  0.47080  0.81245  Biso   1.000  H
  H148     1.0000 0.43780  0.45559  0.92581  Biso   1.000  H
  H149     1.0000 0.41699  0.47799  0.89729  Biso   1.000  H
  C124     1.0000 0.43580  0.30208  0.12891  Biso   1.000  C
  C125     1.0000 0.47775  0.30673  0.09101  Biso   1.000  C
  H150     1.0000 0.37619  0.33540  0.18218  Biso   1.000  H
  C126     1.0000 0.34759  0.36290  0.20037  Biso   1.000  C
  C127     1.0000 0.36232  0.34061  0.03068  Biso   1.000  C
  H151     1.0000 0.52250  0.47531  0.09301  Biso   1.000  H
  H152     1.0000 0.54349  0.48411  0.01610  Biso   1.000  H
  H153     1.0000 0.54490  0.45419  0.08332  Biso   1.000  H
  H154     1.0000 0.53500  0.46811  0.81926  Biso   1.000  H
  H155     1.0000 0.53269  0.43290  0.82238  Biso   1.000  H
  H156     1.0000 0.55459  0.44871  0.87718  Biso   1.000  H
  C128     1.0000 0.49719  0.27138  0.46539  Biso   1.000  C
  H157     1.0000 0.51569  0.28940  0.58773  Biso   1.000  H
  C129     1.0000 0.45512  0.28090  0.47661  Biso   1.000  C
  O17      1.0000 0.44025  0.31178  0.62394  Biso   1.000  O
  H158     1.0000 0.57940  0.36831  0.45057  Biso   1.000  H
  H159     1.0000 0.59570  0.34079  0.47989  Biso   1.000  H
  H160     1.0000 0.59339  0.36811  0.55921  Biso   1.000  H
  H161     1.0000 0.57979  0.33260  0.70830  Biso   1.000  H
  H162     1.0000 0.58099  0.30450  0.63243  Biso   1.000  H
  H163     1.0000 0.55700  0.31259  0.69043  Biso   1.000  H
  C130     1.0000 0.44019  0.28094  0.20774  Biso   1.000  C
  H164     1.0000 0.42010  0.30770  0.11497  Biso   1.000  H
  C131     1.0000 0.48213  0.28584  0.17033  Biso   1.000  C
  O18      1.0000 0.49510  0.31986  0.02860  Biso   1.000  O
  H165     1.0000 0.35220  0.37010  0.26991  Biso   1.000  H
  H166     1.0000 0.33649  0.34650  0.20822  Biso   1.000  H
  H167     1.0000 0.34019  0.37889  0.16079  Biso   1.000  H
  H168     1.0000 0.35479  0.32130  0.03709  Biso   1.000  H
  H169     1.0000 0.35140  0.35460  0.99792  Biso   1.000  H
  H170     1.0000 0.37640  0.33890  0.98726  Biso   1.000  H
  C132     1.0000 0.47419  0.26750  0.42389  Biso   1.000  C
  O19      1.0000 0.51544  0.25739  0.40931  Biso   1.000  O
  H171     1.0000 0.43980  0.27860  0.44929  Biso   1.000  H
  C133     1.0000 0.41676  0.31120  0.57683  Biso   1.000  C
  O20      1.0000 0.42259  0.26696  0.26622  Biso   1.000  O
  C134     1.0000 0.46406  0.27287  0.23073  Biso   1.000  C
  H172     1.0000 0.49780  0.28020  0.18378  Biso   1.000  H
  C135     1.0000 0.51902  0.30973  0.04246  Biso   1.000  C
  C136     1.0000 0.46972  0.25087  0.31942  Biso   1.000  C
  C137     1.0000 0.53927  0.26267  0.44592  Biso   1.000  C
  H173     1.0000 0.41010  0.29110  0.58172  Biso   1.000  H
  H174     1.0000 0.41769  0.31681  0.50168  Biso   1.000  H
  C138     1.0000 0.40125  0.33328  0.63660  Biso   1.000  C
  C139     1.0000 0.39903  0.27828  0.25709  Biso   1.000  C
  H175     1.0000 0.51930  0.28780  0.04350  Biso   1.000  H
  H176     1.0000 0.52509  0.31690  0.11080  Biso   1.000  H
  C140     1.0000 0.53501  0.32119  0.95273  Biso   1.000  C
  H177     1.0000 0.48379  0.23921  0.30043  Biso   1.000  H
  H178     1.0000 0.45650  0.23700  0.32839  Biso   1.000  H
  C141     1.0000 0.55661  0.24848  0.36869  Biso   1.000  C
  H179     1.0000 0.54140  0.25401  0.51658  Biso   1.000  H
  H180     1.0000 0.54220  0.28419  0.45057  Biso   1.000  H
  H181     1.0000 0.40920  0.35291  0.63483  Biso   1.000  H
  C142     1.0000 0.39780  0.32482  0.75172  Biso   1.000  C
  C143     1.0000 0.37767  0.33637  0.57779  Biso   1.000  C
  C144     1.0000 0.38271  0.26152  0.33264  Biso   1.000  C
  H182     1.0000 0.39340  0.27589  0.18402  Biso   1.000  H
  H183     1.0000 0.39889  0.29960  0.27432  Biso   1.000  H
  H184     1.0000 0.52990  0.31140  0.88624  Biso   1.000  H
  C145     1.0000 0.56016  0.31090  0.97677  Biso   1.000  C
  C146     1.0000 0.53325  0.35494  0.93623  Biso   1.000  C
  H185     1.0000 0.55339  0.22680  0.36693  Biso   1.000  H
  C147     1.0000 0.58179  0.25290  0.41307  Biso   1.000  C
  C148     1.0000 0.55446  0.26021  0.25701  Biso   1.000  C
  H186     1.0000 0.39001  0.30560  0.75589  Biso   1.000  H
  H187     1.0000 0.38820  0.33980  0.78649  Biso   1.000  H
  H188     1.0000 0.41310  0.32360  0.78649  Biso   1.000  H
  H189     1.0000 0.38050  0.34481  0.50809  Biso   1.000  H
  H190     1.0000 0.36720  0.34941  0.61761  Biso   1.000  H
  H191     1.0000 0.37040  0.31690  0.57050  Biso   1.000  H
  C149     1.0000 0.35796  0.27501  0.32791  Biso   1.000  C
  H192     1.0000 0.38890  0.26371  0.40570  Biso   1.000  H
  C150     1.0000 0.38191  0.22775  0.30428  Biso   1.000  C
  H193     1.0000 0.56570  0.32051  0.04110  Biso   1.000  H
  H194     1.0000 0.57049  0.31620  0.91828  Biso   1.000  H
  H195     1.0000 0.56029  0.28940  0.98638  Biso   1.000  H
  H196     1.0000 0.51680  0.36040  0.92517  Biso   1.000  H
  H197     1.0000 0.54250  0.36060  0.87470  Biso   1.000  H
  H198     1.0000 0.53929  0.36511  0.99840  Biso   1.000  H
  H199     1.0000 0.59330  0.24539  0.36244  Biso   1.000  H
  H200     1.0000 0.58340  0.24210  0.47941  Biso   1.000  H
  H201     1.0000 0.58460  0.27400  0.42541  Biso   1.000  H
  H202     1.0000 0.53889  0.25541  0.22921  Biso   1.000  H
  H203     1.0000 0.56649  0.25110  0.21279  Biso   1.000  H
  H204     1.0000 0.55650  0.28171  0.25717  Biso   1.000  H
  H205     1.0000 0.35860  0.29581  0.34938  Biso   1.000  H
  H206     1.0000 0.34750  0.26409  0.37534  Biso   1.000  H
  H207     1.0000 0.35201  0.27370  0.25597  Biso   1.000  H
  H208     1.0000 0.37521  0.22520  0.23402  Biso   1.000  H
  H209     1.0000 0.37220  0.21731  0.35563  Biso   1.000  H
  H210     1.0000 0.39780  0.21961  0.30564  Biso   1.000  H
  C151     1.0000 0.60796  0.47499  0.07787  Biso   1.000  C
  C152     1.0000 0.63271  0.48848  0.08260  Biso   1.000  C
  H211     1.0000 0.60860  0.45419  0.09942  Biso   1.000  H
  H212     1.0000 0.59750  0.48591  0.12530  Biso   1.000  H
  H213     1.0000 0.60199  0.47630  0.00601  Biso   1.000  H
  C153     1.0000 0.64903  0.47172  0.00713  Biso   1.000  C
  H214     1.0000 0.63890  0.48630  0.15566  Biso   1.000  H
  C154     1.0000 0.63191  0.52225  0.05432  Biso   1.000  C
  O21      1.0000 0.67259  0.48305  0.01618  Biso   1.000  O
  H215     1.0000 0.64889  0.45040  0.02427  Biso   1.000  H
  H216     1.0000 0.64340  0.47411  0.93398  Biso   1.000  H
  H217     1.0000 0.62220  0.53270  0.10559  Biso   1.000  H
  H218     1.0000 0.64780  0.53040  0.05560  Biso   1.000  H
  H219     1.0000 0.62519  0.52480  0.98398  Biso   1.000  H
  C155     1.0000 0.69018  0.46906  0.95770  Biso   1.000  C
  C156     1.0000 0.68580  0.44792  0.87887  Biso   1.000  C
  C157     1.0000 0.71406  0.47714  0.98069  Biso   1.000  C
  C158     1.0000 0.70419  0.43475  0.81942  Biso   1.000  C
  H220     1.0000 0.67009  0.44231  0.86501  Biso   1.000  H
  C159     1.0000 0.73213  0.46417  0.92029  Biso   1.000  C
  C160     1.0000 0.71972  0.49913  0.06938  Biso   1.000  C
  C161     1.0000 0.69867  0.41097  0.73666  Biso   1.000  C
  C162     1.0000 0.72775  0.44328  0.84097  Biso   1.000  C
  H221     1.0000 0.74780  0.46981  0.93382  Biso   1.000  H
  C163     1.0000 0.72419  0.48251  0.17393  Biso   1.000  C
  H222     1.0000 0.73379  0.51079  0.05039  Biso   1.000  H
  H223     1.0000 0.70650  0.51301  0.07843  Biso   1.000  H
  C164     1.0000 0.69895  0.37971  0.78489  Biso   1.000  C
  H224     1.0000 0.68310  0.41490  0.70590  Biso   1.000  H
  H225     1.0000 0.71039  0.41201  0.67946  Biso   1.000  H
  O22      1.0000 0.74508  0.43015  0.77856  Biso   1.000  O
  C165     1.0000 0.74719  0.47863  0.21543  Biso   1.000  C
  C166     1.0000 0.70512  0.46911  0.22657  Biso   1.000  C
  C167     1.0000 0.71970  0.36249  0.77992  Biso   1.000  C
  C168     1.0000 0.67904  0.36730  0.83512  Biso   1.000  C
  C169     1.0000 0.76902  0.44028  0.79250  Biso   1.000  C
  C170     1.0000 0.75041  0.46232  0.30933  Biso   1.000  C
  O23      1.0000 0.76543  0.49261  0.15927  Biso   1.000  O
  C171     1.0000 0.70848  0.45244  0.31878  Biso   1.000  C
  H226     1.0000 0.68980  0.47141  0.19933  Biso   1.000  H
  C172     1.0000 0.72112  0.33421  0.82599  Biso   1.000  C
  H227     1.0000 0.73300  0.37021  0.74467  Biso   1.000  H
  C173     1.0000 0.68058  0.33863  0.88143  Biso   1.000  C
  O24      1.0000 0.65877  0.38444  0.83512  Biso   1.000  O
  H228     1.0000 0.76929  0.46220  0.79346  Biso   1.000  H
  H229     1.0000 0.77509  0.43310  0.86076  Biso   1.000  H
  C174     1.0000 0.78501  0.42882  0.70269  Biso   1.000  C
  C175     1.0000 0.73152  0.44846  0.36212  Biso   1.000  C
  H230     1.0000 0.76569  0.46060  0.33769  Biso   1.000  H
  C176     1.0000 0.78927  0.48733  0.19588  Biso   1.000  C
  O25      1.0000 0.69025  0.43822  0.37390  Biso   1.000  O
  C177     1.0000 0.70140  0.32173  0.87750  Biso   1.000  C
  O26      1.0000 0.74201  0.31702  0.82166  Biso   1.000  O
  H231     1.0000 0.66719  0.33071  0.91580  Biso   1.000  H
  C178     1.0000 0.63770  0.37276  0.88407  Biso   1.000  C
  H232     1.0000 0.77988  0.43861  0.63620  Biso   1.000  H
  C179     1.0000 0.81015  0.43910  0.72681  Biso   1.000  C
  C180     1.0000 0.78325  0.39507  0.68619  Biso   1.000  C
  C181     1.0000 0.73538  0.43073  0.46403  Biso   1.000  C
  C182     1.0000 0.80661  0.50152  0.11873  Biso   1.000  C
  H233     1.0000 0.79140  0.49600  0.26662  Biso   1.000  H
  H234     1.0000 0.79220  0.46581  0.20061  Biso   1.000  H
  C183     1.0000 0.66676  0.43881  0.32679  Biso   1.000  C
  C184     1.0000 0.70274  0.29157  0.93190  Biso   1.000  C
  C185     1.0000 0.75395  0.31566  0.72312  Biso   1.000  C
  H235     1.0000 0.63139  0.35620  0.84177  Biso   1.000  H
  H236     1.0000 0.64140  0.36520  0.95522  Biso   1.000  H
  C186     1.0000 0.61920  0.39787  0.89176  Biso   1.000  C
  H237     1.0000 0.82049  0.43380  0.66832  Biso   1.000  H
  H238     1.0000 0.81029  0.46060  0.73642  Biso   1.000  H
  H239     1.0000 0.81569  0.42949  0.79106  Biso   1.000  H
  H240     1.0000 0.76680  0.38961  0.67521  Biso   1.000  H
  H241     1.0000 0.79249  0.38941  0.62466  Biso   1.000  H
  H242     1.0000 0.78929  0.38489  0.74836  Biso   1.000  H
  C187     1.0000 0.73522  0.39663  0.44600  Biso   1.000  C
  H243     1.0000 0.75059  0.43651  0.49519  Biso   1.000  H
  H244     1.0000 0.72289  0.43590  0.51482  Biso   1.000  H
  H245     1.0000 0.80339  0.52320  0.11689  Biso   1.000  H
  C188     1.0000 0.83179  0.49710  0.16311  Biso   1.000  C
  C189     1.0000 0.80446  0.48979  0.00697  Biso   1.000  C
  H246     1.0000 0.66010  0.45891  0.33168  Biso   1.000  H
  H247     1.0000 0.66769  0.43319  0.25172  Biso   1.000  H
  C190     1.0000 0.65125  0.41672  0.38664  Biso   1.000  C
  C191     1.0000 0.71095  0.29403  0.04759  Biso   1.000  C
  H248     1.0000 0.68710  0.28210  0.92990  Biso   1.000  H
  H249     1.0000 0.71379  0.27871  0.89289  Biso   1.000  H
  H250     1.0000 0.74859  0.32669  0.66456  Biso   1.000  H
  C192     1.0000 0.77388  0.29750  0.71527  Biso   1.000  C
  H251     1.0000 0.62619  0.41460  0.93222  Biso   1.000  H
  C193     1.0000 0.59759  0.38711  0.95041  Biso   1.000  C
  C194     1.0000 0.61232  0.40939  0.78072  Biso   1.000  C
  C195     1.0000 0.75542  0.38235  0.40675  Biso   1.000  C
  C196     1.0000 0.71532  0.37955  0.46867  Biso   1.000  C
  H252     1.0000 0.84330  0.50461  0.11240  Biso   1.000  H
  H253     1.0000 0.83340  0.50791  0.22937  Biso   1.000  H
  H254     1.0000 0.83460  0.47601  0.17537  Biso   1.000  H
  H255     1.0000 0.80650  0.46829  0.00721  Biso   1.000  H
  H256     1.0000 0.78889  0.49460  0.97917  Biso   1.000  H
  H257     1.0000 0.81649  0.49891  0.96283  Biso   1.000  H
  H258     1.0000 0.65920  0.39710  0.38479  Biso   1.000  H
  C197     1.0000 0.64780  0.42518  0.50168  Biso   1.000  C
  C198     1.0000 0.62767  0.41363  0.32783  Biso   1.000  C
  C199     1.0000 0.69429  0.29791  0.13067  Biso   1.000  C
  C200     1.0000 0.73542  0.29328  0.07531  Biso   1.000  C
  C201     1.0000 0.78779  0.29971  0.61160  Biso   1.000  C
  C202     1.0000 0.78450  0.28241  0.79498  Biso   1.000  C
  H259     1.0000 0.60220  0.37991  0.01987  Biso   1.000  H
  H260     1.0000 0.58649  0.40351  0.95818  Biso   1.000  H
  H261     1.0000 0.59019  0.37111  0.91083  Biso   1.000  H
  H262     1.0000 0.60140  0.39541  0.74788  Biso   1.000  H
  H263     1.0000 0.60479  0.42870  0.78713  Biso   1.000  H
  H264     1.0000 0.62640  0.41111  0.73730  Biso   1.000  H
  C203     1.0000 0.75525  0.35149  0.38872  Biso   1.000  C
  O27      1.0000 0.77524  0.39994  0.38600  Biso   1.000  O
  C204     1.0000 0.71472  0.34876  0.45057  Biso   1.000  C
  H265     1.0000 0.70190  0.38900  0.49704  Biso   1.000  H
  H266     1.0000 0.63999  0.44440  0.50593  Biso   1.000  H
  H267     1.0000 0.63820  0.41021  0.53653  Biso   1.000  H
  H268     1.0000 0.66310  0.42640  0.53653  Biso   1.000  H
  H269     1.0000 0.63050  0.40520  0.25813  Biso   1.000  H
  H270     1.0000 0.61720  0.40060  0.36757  Biso   1.000  H
  H271     1.0000 0.62040  0.43310  0.32054  Biso   1.000  H
  O28      1.0000 0.67041  0.29928  0.09998  Biso   1.000  O
  C205     1.0000 0.70197  0.29996  0.23490  Biso   1.000  C
  C206     1.0000 0.74265  0.29586  0.18010  Biso   1.000  C
  H272     1.0000 0.74680  0.29101  0.02171  Biso   1.000  H
  H273     1.0000 0.78500  0.28189  0.56930  Biso   1.000  H
  H274     1.0000 0.78269  0.31711  0.57242  Biso   1.000  H
  H275     1.0000 0.80459  0.30129  0.62722  Biso   1.000  H
  H276     1.0000 0.77249  0.27470  0.84297  Biso   1.000  H
  H277     1.0000 0.79349  0.26590  0.76606  Biso   1.000  H
  H278     1.0000 0.79490  0.29581  0.83328  Biso   1.000  H
  C207     1.0000 0.73456  0.33430  0.40867  Biso   1.000  C
  H279     1.0000 0.76900  0.34201  0.36300  Biso   1.000  H
  C208     1.0000 0.79604  0.38600  0.34538  Biso   1.000  C
  O29      1.0000 0.69450  0.33105  0.46787  Biso   1.000  O
  C209     1.0000 0.65371  0.30659  0.18547  Biso   1.000  C
  H280     1.0000 0.69080  0.30240  0.28922  Biso   1.000  H
  C210     1.0000 0.72625  0.29843  0.26158  Biso   1.000  C
  O30      1.0000 0.76630  0.29647  0.20998  Biso   1.000  O
  C211     1.0000 0.73416  0.30132  0.37670  Biso   1.000  C
  C212     1.0000 0.81390  0.40957  0.31261  Biso   1.000  C
  H281     1.0000 0.80300  0.37310  0.39994  Biso   1.000  H
  H282     1.0000 0.79199  0.37359  0.28409  Biso   1.000  H
  C213     1.0000 0.67886  0.33973  0.54783  Biso   1.000  C
  C214     1.0000 0.62887  0.30799  0.13684  Biso   1.000  C
  H283     1.0000 0.65429  0.29130  0.24091  Biso   1.000  H
  H284     1.0000 0.65779  0.32590  0.21727  Biso   1.000  H
  C215     1.0000 0.78401  0.28681  0.14212  Biso   1.000  C
  H285     1.0000 0.72330  0.29031  0.42277  Biso   1.000  H
  H286     1.0000 0.75000  0.29270  0.38519  Biso   1.000  H
  H287     1.0000 0.80620  0.42261  0.25941  Biso   1.000  H
  C216     1.0000 0.83506  0.39414  0.25797  Biso   1.000  C
  C217     1.0000 0.82108  0.42929  0.40723  Biso   1.000  C
  C218     1.0000 0.66349  0.31183  0.58052  Biso   1.000  C
  H288     1.0000 0.67770  0.35900  0.57707  Biso   1.000  H
  C219     1.0000 0.61216  0.32259  0.21823  Biso   1.000  C
  H289     1.0000 0.62960  0.32101  0.07339  Biso   1.000  H
  C220     1.0000 0.62008  0.27812  0.10351  Biso   1.000  C
  H290     1.0000 0.78130  0.27961  0.07307  Biso   1.000  H
  C221     1.0000 0.80875  0.28929  0.19364  Biso   1.000  C
  H291     1.0000 0.82940  0.38171  0.20061  Biso   1.000  H
  H292     1.0000 0.84570  0.40921  0.22993  Biso   1.000  H
  H293     1.0000 0.84339  0.38189  0.30917  Biso   1.000  H
  H294     1.0000 0.82979  0.41740  0.45834  Biso   1.000  H
  H295     1.0000 0.83099  0.44551  0.38239  Biso   1.000  H
  H296     1.0000 0.80700  0.43741  0.44039  Biso   1.000  H
  H297     1.0000 0.65280  0.31821  0.63852  Biso   1.000  H
  C222     1.0000 0.64819  0.30111  0.48975  Biso   1.000  C
  C223     1.0000 0.67741  0.28740  0.61969  Biso   1.000  C
  H298     1.0000 0.61800  0.34230  0.23642  Biso   1.000  H
  H299     1.0000 0.59650  0.32430  0.18787  Biso   1.000  H
  H300     1.0000 0.61150  0.31029  0.28153  Biso   1.000  H
  H301     1.0000 0.61859  0.26531  0.16520  Biso   1.000  H
  H302     1.0000 0.60469  0.28031  0.06994  Biso   1.000  H
  H303     1.0000 0.63109  0.26930  0.05368  Biso   1.000  H
  C224     1.0000 0.82755  0.27961  0.11320  Biso   1.000  C
  C225     1.0000 0.80979  0.28279  0.31117  Biso   1.000  C
  H304     1.0000 0.65799  0.29110  0.43743  Biso   1.000  H
  H305     1.0000 0.63639  0.28719  0.51642  Biso   1.000  H
  H306     1.0000 0.64029  0.31801  0.45722  Biso   1.000  H
  H307     1.0000 0.68689  0.27921  0.56241  Biso   1.000  H
  H308     1.0000 0.68780  0.29441  0.67577  Biso   1.000  H
  H309     1.0000 0.66699  0.27201  0.64733  Biso   1.000  H
  H310     1.0000 0.82489  0.28981  0.04639  Biso   1.000  H
  H311     1.0000 0.84309  0.28480  0.13988  Biso   1.000  H
  H312     1.0000 0.82659  0.25821  0.10239  Biso   1.000  H
  H313     1.0000 0.80019  0.26540  0.32711  Biso   1.000  H
  H314     1.0000 0.82609  0.27880  0.33160  Biso   1.000  H
  H315     1.0000 0.80400  0.29989  0.35042  Biso   1.000  H
  C226     1.0000 0.39204  0.52501  0.07787  Biso   1.000  C
  C227     1.0000 0.36727  0.51152  0.08260  Biso   1.000  C
  H316     1.0000 0.39140  0.54581  0.09942  Biso   1.000  H
  H317     1.0000 0.40250  0.51411  0.12530  Biso   1.000  H
  H318     1.0000 0.39799  0.52370  0.00601  Biso   1.000  H
  C228     1.0000 0.35095  0.52830  0.00713  Biso   1.000  C
  H319     1.0000 0.36110  0.51370  0.15566  Biso   1.000  H
  C229     1.0000 0.36809  0.47775  0.05432  Biso   1.000  C
  O31      1.0000 0.32741  0.51695  0.01618  Biso   1.000  O
  H320     1.0000 0.35109  0.54960  0.02427  Biso   1.000  H
  H321     1.0000 0.35660  0.52591  0.93398  Biso   1.000  H
  H322     1.0000 0.37780  0.46730  0.10559  Biso   1.000  H
  H323     1.0000 0.35220  0.46960  0.05560  Biso   1.000  H
  H324     1.0000 0.37479  0.47520  0.98398  Biso   1.000  H
  C230     1.0000 0.30981  0.53094  0.95770  Biso   1.000  C
  C231     1.0000 0.28594  0.52289  0.98069  Biso   1.000  C
  C232     1.0000 0.31418  0.55208  0.87887  Biso   1.000  C
  C233     1.0000 0.28026  0.50089  0.06938  Biso   1.000  C
  C234     1.0000 0.26787  0.53583  0.92029  Biso   1.000  C
  H325     1.0000 0.32990  0.55772  0.86501  Biso   1.000  H
  C235     1.0000 0.29579  0.56525  0.81942  Biso   1.000  C
  H326     1.0000 0.26619  0.48921  0.05039  Biso   1.000  H
  H327     1.0000 0.29350  0.48699  0.07843  Biso   1.000  H
  C236     1.0000 0.27579  0.51749  0.17393  Biso   1.000  C
  C237     1.0000 0.27223  0.55672  0.84097  Biso   1.000  C
  H328     1.0000 0.25220  0.53019  0.93382  Biso   1.000  H
  C238     1.0000 0.30132  0.58905  0.73666  Biso   1.000  C
  C239     1.0000 0.25281  0.52137  0.21543  Biso   1.000  C
  C240     1.0000 0.29486  0.53089  0.22657  Biso   1.000  C
  O32      1.0000 0.25490  0.56985  0.77856  Biso   1.000  O
  C241     1.0000 0.30105  0.62032  0.78489  Biso   1.000  C
  H329     1.0000 0.31690  0.58510  0.70590  Biso   1.000  H
  H330     1.0000 0.28959  0.58801  0.67946  Biso   1.000  H
  O33      1.0000 0.23456  0.50739  0.15927  Biso   1.000  O
  C242     1.0000 0.24957  0.53768  0.30933  Biso   1.000  C
  H331     1.0000 0.31020  0.52862  0.19933  Biso   1.000  H
  C243     1.0000 0.29150  0.54756  0.31878  Biso   1.000  C
  C244     1.0000 0.23096  0.55972  0.79250  Biso   1.000  C
  C245     1.0000 0.32096  0.63270  0.83512  Biso   1.000  C
  C246     1.0000 0.28030  0.63753  0.77992  Biso   1.000  C
  C247     1.0000 0.21073  0.51267  0.19588  Biso   1.000  C
  H332     1.0000 0.23429  0.53940  0.33769  Biso   1.000  H
  C248     1.0000 0.26846  0.55156  0.36212  Biso   1.000  C
  O34      1.0000 0.30973  0.56180  0.37390  Biso   1.000  O
  H333     1.0000 0.23070  0.53780  0.79346  Biso   1.000  H
  H334     1.0000 0.22491  0.56690  0.86076  Biso   1.000  H
  C249     1.0000 0.21499  0.57118  0.70269  Biso   1.000  C
  O35      1.0000 0.34123  0.61556  0.83512  Biso   1.000  O
  C250     1.0000 0.31942  0.66140  0.88143  Biso   1.000  C
  C251     1.0000 0.27887  0.66579  0.82599  Biso   1.000  C
  H335     1.0000 0.26700  0.62981  0.74467  Biso   1.000  H
  C252     1.0000 0.19338  0.49848  0.11873  Biso   1.000  C
  H336     1.0000 0.20860  0.50400  0.26662  Biso   1.000  H
  H337     1.0000 0.20780  0.53421  0.20061  Biso   1.000  H
  C253     1.0000 0.26462  0.56927  0.46403  Biso   1.000  C
  C254     1.0000 0.33322  0.56121  0.32679  Biso   1.000  C
  H338     1.0000 0.22010  0.56142  0.63620  Biso   1.000  H
  C255     1.0000 0.18984  0.56090  0.72681  Biso   1.000  C
  C256     1.0000 0.21675  0.60493  0.68619  Biso   1.000  C
  C257     1.0000 0.36230  0.62726  0.88407  Biso   1.000  C
  C258     1.0000 0.29858  0.67827  0.87750  Biso   1.000  C
  H339     1.0000 0.33279  0.66931  0.91580  Biso   1.000  H
  O36      1.0000 0.25797  0.68298  0.82166  Biso   1.000  O
  H340     1.0000 0.19659  0.47680  0.11689  Biso   1.000  H
  C259     1.0000 0.16819  0.50290  0.16311  Biso   1.000  C
  C260     1.0000 0.19554  0.51023  0.00697  Biso   1.000  C
  C261     1.0000 0.26476  0.60337  0.44600  Biso   1.000  C
  H341     1.0000 0.24939  0.56351  0.49519  Biso   1.000  H
  H342     1.0000 0.27710  0.56410  0.51482  Biso   1.000  H
  H343     1.0000 0.33990  0.54111  0.33168  Biso   1.000  H
  H344     1.0000 0.33229  0.56681  0.25172  Biso   1.000  H
  C262     1.0000 0.34875  0.58328  0.38664  Biso   1.000  C
  H345     1.0000 0.17951  0.56620  0.66832  Biso   1.000  H
  H346     1.0000 0.18969  0.53940  0.73642  Biso   1.000  H
  H347     1.0000 0.18430  0.57051  0.79106  Biso   1.000  H
  H348     1.0000 0.23320  0.61041  0.67521  Biso   1.000  H
  H349     1.0000 0.20750  0.61062  0.62466  Biso   1.000  H
  H350     1.0000 0.21070  0.61511  0.74836  Biso   1.000  H
  H351     1.0000 0.36859  0.64380  0.84177  Biso   1.000  H
  H352     1.0000 0.35860  0.63480  0.95522  Biso   1.000  H
  C263     1.0000 0.38080  0.60213  0.89176  Biso   1.000  C
  C264     1.0000 0.29724  0.70845  0.93190  Biso   1.000  C
  C265     1.0000 0.24605  0.68434  0.72312  Biso   1.000  C
  H353     1.0000 0.15670  0.49541  0.11240  Biso   1.000  H
  H354     1.0000 0.16660  0.49209  0.22937  Biso   1.000  H
  H355     1.0000 0.16540  0.52401  0.17537  Biso   1.000  H
  H356     1.0000 0.19350  0.53171  0.00721  Biso   1.000  H
  H357     1.0000 0.21111  0.50540  0.97917  Biso   1.000  H
  H358     1.0000 0.18349  0.50109  0.96283  Biso   1.000  H
  C266     1.0000 0.24457  0.61765  0.40675  Biso   1.000  C
  C267     1.0000 0.28468  0.62045  0.46867  Biso   1.000  C
  H359     1.0000 0.34080  0.60290  0.38479  Biso   1.000  H
  C268     1.0000 0.35218  0.57482  0.50168  Biso   1.000  C
  C269     1.0000 0.37231  0.58637  0.32783  Biso   1.000  C
  H360     1.0000 0.37379  0.58540  0.93222  Biso   1.000  H
  C270     1.0000 0.40241  0.61289  0.95041  Biso   1.000  C
  C271     1.0000 0.38768  0.59061  0.78072  Biso   1.000  C
  C272     1.0000 0.28904  0.70597  0.04759  Biso   1.000  C
  H361     1.0000 0.31290  0.71790  0.92990  Biso   1.000  H
  H362     1.0000 0.28619  0.72131  0.89289  Biso   1.000  H
  H363     1.0000 0.25139  0.67331  0.66456  Biso   1.000  H
  C273     1.0000 0.22612  0.70250  0.71527  Biso   1.000  C
  O37      1.0000 0.22474  0.60008  0.38600  Biso   1.000  O
  C274     1.0000 0.24475  0.64851  0.38872  Biso   1.000  C
  C275     1.0000 0.28526  0.65127  0.45057  Biso   1.000  C
  H364     1.0000 0.29810  0.61100  0.49704  Biso   1.000  H
  H365     1.0000 0.35999  0.55560  0.50593  Biso   1.000  H
  H366     1.0000 0.36180  0.58979  0.53653  Biso   1.000  H
  H367     1.0000 0.33690  0.57360  0.53653  Biso   1.000  H
  H368     1.0000 0.36950  0.59480  0.25813  Biso   1.000  H
  H369     1.0000 0.38280  0.59940  0.36757  Biso   1.000  H
  H370     1.0000 0.37960  0.56690  0.32054  Biso   1.000  H
  H371     1.0000 0.39780  0.62011  0.01987  Biso   1.000  H
  H372     1.0000 0.41349  0.59649  0.95818  Biso   1.000  H
  H373     1.0000 0.40979  0.62891  0.91083  Biso   1.000  H
  H374     1.0000 0.39860  0.60462  0.74788  Biso   1.000  H
  H375     1.0000 0.39519  0.57130  0.78713  Biso   1.000  H
  H376     1.0000 0.37360  0.58891  0.73730  Biso   1.000  H
  C276     1.0000 0.30569  0.70211  0.13067  Biso   1.000  C
  C277     1.0000 0.26457  0.70672  0.07531  Biso   1.000  C
  C278     1.0000 0.21220  0.70031  0.61160  Biso   1.000  C
  C279     1.0000 0.21550  0.71761  0.79498  Biso   1.000  C
  C280     1.0000 0.20394  0.61402  0.34538  Biso   1.000  C
  H377     1.0000 0.23100  0.65801  0.36300  Biso   1.000  H
  C281     1.0000 0.26543  0.66570  0.40867  Biso   1.000  C
  O38      1.0000 0.30548  0.66898  0.46787  Biso   1.000  O
  C282     1.0000 0.29801  0.70006  0.23490  Biso   1.000  C
  O39      1.0000 0.32957  0.70072  0.09998  Biso   1.000  O
  C283     1.0000 0.25735  0.70417  0.18010  Biso   1.000  C
  H378     1.0000 0.25320  0.70902  0.02171  Biso   1.000  H
  H379     1.0000 0.21500  0.71811  0.56930  Biso   1.000  H
  H380     1.0000 0.21729  0.68292  0.57242  Biso   1.000  H
  H381     1.0000 0.19540  0.69871  0.62722  Biso   1.000  H
  H382     1.0000 0.22750  0.72530  0.84297  Biso   1.000  H
  H383     1.0000 0.20650  0.73410  0.76606  Biso   1.000  H
  H384     1.0000 0.20510  0.70421  0.83328  Biso   1.000  H
  C284     1.0000 0.18610  0.59043  0.31261  Biso   1.000  C
  H385     1.0000 0.19700  0.62690  0.39994  Biso   1.000  H
  H386     1.0000 0.20800  0.62641  0.28409  Biso   1.000  H
  C285     1.0000 0.26584  0.69868  0.37670  Biso   1.000  C
  C286     1.0000 0.32114  0.66027  0.54783  Biso   1.000  C
  C287     1.0000 0.27374  0.70159  0.26158  Biso   1.000  C
  H387     1.0000 0.30920  0.69760  0.28922  Biso   1.000  H
  C288     1.0000 0.34629  0.69341  0.18547  Biso   1.000  C
  O40      1.0000 0.23368  0.70353  0.20998  Biso   1.000  O
  H388     1.0000 0.19380  0.57741  0.25941  Biso   1.000  H
  C289     1.0000 0.16492  0.60586  0.25797  Biso   1.000  C
  C290     1.0000 0.17890  0.57071  0.40723  Biso   1.000  C
  H389     1.0000 0.27670  0.70972  0.42277  Biso   1.000  H
  H390     1.0000 0.25000  0.70730  0.38519  Biso   1.000  H
  C291     1.0000 0.33649  0.68820  0.58052  Biso   1.000  C
  H391     1.0000 0.32230  0.64100  0.57707  Biso   1.000  H
  C292     1.0000 0.37111  0.69203  0.13684  Biso   1.000  C
  H392     1.0000 0.34570  0.70870  0.24091  Biso   1.000  H
  H393     1.0000 0.34219  0.67410  0.21727  Biso   1.000  H
  C293     1.0000 0.21599  0.71321  0.14212  Biso   1.000  C
  H394     1.0000 0.17060  0.61831  0.20061  Biso   1.000  H
  H395     1.0000 0.15430  0.59081  0.22993  Biso   1.000  H
  H396     1.0000 0.15659  0.61811  0.30917  Biso   1.000  H
  H397     1.0000 0.17019  0.58260  0.45834  Biso   1.000  H
  H398     1.0000 0.16900  0.55451  0.38239  Biso   1.000  H
  H399     1.0000 0.19300  0.56261  0.44039  Biso   1.000  H
  H400     1.0000 0.34720  0.68181  0.63852  Biso   1.000  H
  C294     1.0000 0.35179  0.69891  0.48975  Biso   1.000  C
  C295     1.0000 0.32259  0.71260  0.61969  Biso   1.000  C
  H401     1.0000 0.37040  0.67901  0.07339  Biso   1.000  H
  C296     1.0000 0.37991  0.72190  0.10351  Biso   1.000  C
  C297     1.0000 0.38784  0.67743  0.21823  Biso   1.000  C
  H402     1.0000 0.21870  0.72041  0.07307  Biso   1.000  H
  C298     1.0000 0.19125  0.71071  0.19364  Biso   1.000  C
  H403     1.0000 0.34200  0.70890  0.43743  Biso   1.000  H
  H404     1.0000 0.36361  0.71281  0.51642  Biso   1.000  H
  H405     1.0000 0.35969  0.68201  0.45722  Biso   1.000  H
  H406     1.0000 0.31309  0.72081  0.56241  Biso   1.000  H
  H407     1.0000 0.31220  0.70561  0.67577  Biso   1.000  H
  H408     1.0000 0.33301  0.72801  0.64733  Biso   1.000  H
  H409     1.0000 0.38139  0.73471  0.16520  Biso   1.000  H
  H410     1.0000 0.39530  0.71971  0.06994  Biso   1.000  H
  H411     1.0000 0.36890  0.73070  0.05368  Biso   1.000  H
  H412     1.0000 0.38200  0.65770  0.23642  Biso   1.000  H
  H413     1.0000 0.40350  0.67570  0.18787  Biso   1.000  H
  H414     1.0000 0.38850  0.68971  0.28153  Biso   1.000  H
  C299     1.0000 0.17243  0.72041  0.11320  Biso   1.000  C
  C300     1.0000 0.19019  0.71721  0.31117  Biso   1.000  C
  H415     1.0000 0.17509  0.71021  0.04639  Biso   1.000  H
  H416     1.0000 0.15690  0.71520  0.13988  Biso   1.000  H
  H417     1.0000 0.17339  0.74182  0.10239  Biso   1.000  H
  H418     1.0000 0.19979  0.73460  0.32711  Biso   1.000  H
  H419     1.0000 0.17389  0.72120  0.33160  Biso   1.000  H
  H420     1.0000 0.19600  0.70011  0.35042  Biso   1.000  H
  C301     1.0000 0.66819  0.50290  0.66311  Biso   1.000  C
  C302     1.0000 0.69338  0.49848  0.61873  Biso   1.000  C
  H421     1.0000 0.65670  0.49541  0.61240  Biso   1.000  H
  H422     1.0000 0.66660  0.49209  0.72945  Biso   1.000  H
  H423     1.0000 0.66539  0.52401  0.67537  Biso   1.000  H
  H424     1.0000 0.69659  0.47680  0.61689  Biso   1.000  H
  C303     1.0000 0.71073  0.51267  0.69588  Biso   1.000  C
  C304     1.0000 0.69554  0.51023  0.50697  Biso   1.000  C
  O41      1.0000 0.73456  0.50739  0.65935  Biso   1.000  O
  H425     1.0000 0.70859  0.50400  0.76662  Biso   1.000  H
  H426     1.0000 0.70780  0.53421  0.70061  Biso   1.000  H
  H427     1.0000 0.71109  0.50540  0.47917  Biso   1.000  H
  H428     1.0000 0.68349  0.50109  0.46283  Biso   1.000  H
  H429     1.0000 0.69350  0.53171  0.50721  Biso   1.000  H
  C305     1.0000 0.75279  0.52137  0.71543  Biso   1.000  C
  C306     1.0000 0.74957  0.53768  0.80933  Biso   1.000  C
  C307     1.0000 0.77579  0.51749  0.67393  Biso   1.000  C
  H430     1.0000 0.73429  0.53940  0.83769  Biso   1.000  H
  C308     1.0000 0.76846  0.55156  0.86212  Biso   1.000  C
  C309     1.0000 0.78026  0.50089  0.56938  Biso   1.000  C
  C310     1.0000 0.79486  0.53089  0.72665  Biso   1.000  C
  C311     1.0000 0.79150  0.54756  0.81878  Biso   1.000  C
  C312     1.0000 0.76462  0.56927  0.96403  Biso   1.000  C
  C313     1.0000 0.78593  0.52289  0.48069  Biso   1.000  C
  H431     1.0000 0.76619  0.48921  0.55039  Biso   1.000  H
  H432     1.0000 0.79349  0.48699  0.57843  Biso   1.000  H
  H433     1.0000 0.81020  0.52862  0.69933  Biso   1.000  H
  O42      1.0000 0.80973  0.56180  0.87390  Biso   1.000  O
  C314     1.0000 0.76476  0.60337  0.94600  Biso   1.000  C
  H434     1.0000 0.74939  0.56351  0.99519  Biso   1.000  H
  H435     1.0000 0.77710  0.56410  0.01482  Biso   1.000  H
  C315     1.0000 0.80981  0.53094  0.45770  Biso   1.000  C
  C316     1.0000 0.76786  0.53583  0.42029  Biso   1.000  C
  C317     1.0000 0.83322  0.56121  0.82679  Biso   1.000  C
  C318     1.0000 0.74457  0.61765  0.90675  Biso   1.000  C
  C319     1.0000 0.78466  0.62045  0.96876  Biso   1.000  C
  O43      1.0000 0.82741  0.51695  0.51618  Biso   1.000  O
  C320     1.0000 0.81418  0.55208  0.37895  Biso   1.000  C
  C321     1.0000 0.77223  0.55672  0.34097  Biso   1.000  C
  H436     1.0000 0.75220  0.53019  0.43382  Biso   1.000  H
  H437     1.0000 0.83989  0.54111  0.83168  Biso   1.000  H
  H438     1.0000 0.83229  0.56681  0.75172  Biso   1.000  H
  C322     1.0000 0.84873  0.58328  0.88664  Biso   1.000  C
  O44      1.0000 0.72474  0.60008  0.88600  Biso   1.000  O
  C323     1.0000 0.74473  0.64851  0.88872  Biso   1.000  C
  C324     1.0000 0.78526  0.65127  0.95065  Biso   1.000  C
  H439     1.0000 0.79810  0.61100  0.99704  Biso   1.000  H
  C325     1.0000 0.85095  0.52830  0.50713  Biso   1.000  C
  H440     1.0000 0.82990  0.55772  0.36501  Biso   1.000  H
  C326     1.0000 0.79579  0.56525  0.31942  Biso   1.000  C
  O45      1.0000 0.75490  0.56985  0.27864  Biso   1.000  O
  H441     1.0000 0.84080  0.60290  0.88479  Biso   1.000  H
  C327     1.0000 0.87231  0.58637  0.82783  Biso   1.000  C
  C328     1.0000 0.85218  0.57482  0.00168  Biso   1.000  C
  C329     1.0000 0.70394  0.61402  0.84538  Biso   1.000  C
  H442     1.0000 0.73100  0.65801  0.86300  Biso   1.000  H
  C330     1.0000 0.76543  0.66570  0.90875  Biso   1.000  C
  O46      1.0000 0.80548  0.66898  0.96795  Biso   1.000  O
  H443     1.0000 0.85660  0.52591  0.43398  Biso   1.000  H
  H444     1.0000 0.85109  0.54960  0.52427  Biso   1.000  H
  C331     1.0000 0.86727  0.51152  0.58260  Biso   1.000  C
  C332     1.0000 0.80132  0.58905  0.23674  Biso   1.000  C
  C333     1.0000 0.73096  0.55972  0.29250  Biso   1.000  C
  H445     1.0000 0.86949  0.59480  0.75813  Biso   1.000  H
  H446     1.0000 0.88278  0.59940  0.86765  Biso   1.000  H
  H447     1.0000 0.87958  0.56690  0.82054  Biso   1.000  H
  H448     1.0000 0.85999  0.55560  0.00593  Biso   1.000  H
  H449     1.0000 0.86180  0.58979  0.03653  Biso   1.000  H
  H450     1.0000 0.83688  0.57360  0.03653  Biso   1.000  H
  C334     1.0000 0.68610  0.59043  0.81261  Biso   1.000  C
  H451     1.0000 0.69699  0.62690  0.89994  Biso   1.000  H
  H452     1.0000 0.70800  0.62641  0.78409  Biso   1.000  H
  C335     1.0000 0.76582  0.69868  0.87670  Biso   1.000  C
  C336     1.0000 0.82114  0.66027  0.04783  Biso   1.000  C
  H453     1.0000 0.86109  0.51370  0.65574  Biso   1.000  H
  C337     1.0000 0.89202  0.52501  0.57787  Biso   1.000  C
  C338     1.0000 0.86807  0.47775  0.55432  Biso   1.000  C
  C339     1.0000 0.80105  0.62032  0.28489  Biso   1.000  C
  H454     1.0000 0.81690  0.58510  0.20590  Biso   1.000  H
  H455     1.0000 0.78959  0.58801  0.17954  Biso   1.000  H
  H456     1.0000 0.73070  0.53780  0.29354  Biso   1.000  H
  H457     1.0000 0.72489  0.56690  0.36084  Biso   1.000  H
  C340     1.0000 0.71497  0.57118  0.20269  Biso   1.000  C
  H458     1.0000 0.69379  0.57741  0.75941  Biso   1.000  H
  C341     1.0000 0.66492  0.60586  0.75805  Biso   1.000  C
  C342     1.0000 0.67890  0.57071  0.90723  Biso   1.000  C
  C343     1.0000 0.77374  0.70159  0.76158  Biso   1.000  C
  H459     1.0000 0.77669  0.70972  0.92285  Biso   1.000  H
  H460     1.0000 0.75000  0.70730  0.88519  Biso   1.000  H
  C344     1.0000 0.83649  0.68820  0.08052  Biso   1.000  C
  H461     1.0000 0.82230  0.64100  0.07715  Biso   1.000  H
  H462     1.0000 0.89140  0.54581  0.59942  Biso   1.000  H
  H463     1.0000 0.90250  0.51411  0.62530  Biso   1.000  H
  H464     1.0000 0.89799  0.52370  0.50601  Biso   1.000  H
  H465     1.0000 0.87479  0.47520  0.48398  Biso   1.000  H
  H466     1.0000 0.87780  0.46730  0.60559  Biso   1.000  H
  H467     1.0000 0.85218  0.46960  0.55560  Biso   1.000  H
  C345     1.0000 0.82096  0.63270  0.33512  Biso   1.000  C
  C346     1.0000 0.78028  0.63753  0.27992  Biso   1.000  C
  H468     1.0000 0.72010  0.56142  0.13620  Biso   1.000  H
  C347     1.0000 0.68984  0.56090  0.22681  Biso   1.000  C
  C348     1.0000 0.71674  0.60493  0.18619  Biso   1.000  C
  H469     1.0000 0.67059  0.61831  0.70061  Biso   1.000  H
  H470     1.0000 0.65429  0.59081  0.72993  Biso   1.000  H
  H471     1.0000 0.65659  0.61811  0.80925  Biso   1.000  H
  H472     1.0000 0.67019  0.58260  0.95834  Biso   1.000  H
  H473     1.0000 0.66900  0.55451  0.88239  Biso   1.000  H
  H474     1.0000 0.69300  0.56261  0.94039  Biso   1.000  H
  C349     1.0000 0.79801  0.70006  0.73490  Biso   1.000  C
  C350     1.0000 0.75733  0.70417  0.68010  Biso   1.000  C
  C351     1.0000 0.85179  0.69891  0.98975  Biso   1.000  C
  H475     1.0000 0.84720  0.68181  0.13852  Biso   1.000  H
  C352     1.0000 0.82257  0.71260  0.11969  Biso   1.000  C
  O47      1.0000 0.84123  0.61556  0.33512  Biso   1.000  O
  C353     1.0000 0.81942  0.66140  0.38143  Biso   1.000  C
  C354     1.0000 0.77887  0.66579  0.32599  Biso   1.000  C
  H476     1.0000 0.76700  0.62981  0.24467  Biso   1.000  H
  H477     1.0000 0.67949  0.56620  0.16832  Biso   1.000  H
  H478     1.0000 0.68969  0.53940  0.23642  Biso   1.000  H
  H479     1.0000 0.68430  0.57051  0.29114  Biso   1.000  H
  H480     1.0000 0.73320  0.61041  0.17521  Biso   1.000  H
  H481     1.0000 0.70750  0.61062  0.12474  Biso   1.000  H
  H482     1.0000 0.71070  0.61511  0.24844  Biso   1.000  H
  H483     1.0000 0.80920  0.69760  0.78922  Biso   1.000  H
  C355     1.0000 0.80569  0.70211  0.63075  Biso   1.000  C
  O48      1.0000 0.73368  0.70353  0.70998  Biso   1.000  O
  C356     1.0000 0.76457  0.70672  0.57531  Biso   1.000  C
  H484     1.0000 0.84200  0.70890  0.93743  Biso   1.000  H
  H485     1.0000 0.85969  0.68201  0.95722  Biso   1.000  H
  H486     1.0000 0.86359  0.71281  0.01642  Biso   1.000  H
  H487     1.0000 0.81309  0.72081  0.06241  Biso   1.000  H
  H488     1.0000 0.81220  0.70561  0.17585  Biso   1.000  H
  H489     1.0000 0.83299  0.72801  0.14733  Biso   1.000  H
  C357     1.0000 0.86230  0.62726  0.38407  Biso   1.000  C
  C358     1.0000 0.79858  0.67827  0.37750  Biso   1.000  C
  H490     1.0000 0.83279  0.66931  0.41580  Biso   1.000  H
  O49      1.0000 0.75797  0.68298  0.32174  Biso   1.000  O
  O50      1.0000 0.82957  0.70072  0.59998  Biso   1.000  O
  C359     1.0000 0.78904  0.70597  0.54759  Biso   1.000  C
  C360     1.0000 0.71597  0.71321  0.64212  Biso   1.000  C
  H491     1.0000 0.75320  0.70902  0.52171  Biso   1.000  H
  H492     1.0000 0.86859  0.64380  0.34177  Biso   1.000  H
  H493     1.0000 0.85860  0.63480  0.45522  Biso   1.000  H
  C361     1.0000 0.88080  0.60213  0.39184  Biso   1.000  C
  C362     1.0000 0.79724  0.70845  0.43190  Biso   1.000  C
  C363     1.0000 0.74605  0.68434  0.22312  Biso   1.000  C
  C364     1.0000 0.84627  0.69341  0.68555  Biso   1.000  C
  H494     1.0000 0.71869  0.72041  0.57315  Biso   1.000  H
  C365     1.0000 0.69125  0.71071  0.69364  Biso   1.000  C
  H495     1.0000 0.87379  0.58540  0.43222  Biso   1.000  H
  C366     1.0000 0.90241  0.61289  0.45041  Biso   1.000  C
  C367     1.0000 0.88766  0.59061  0.28072  Biso   1.000  C
  H496     1.0000 0.81290  0.71790  0.42990  Biso   1.000  H
  H497     1.0000 0.78619  0.72131  0.39289  Biso   1.000  H
  H498     1.0000 0.75139  0.67331  0.16464  Biso   1.000  H
  C368     1.0000 0.72612  0.70250  0.21527  Biso   1.000  C
  C369     1.0000 0.87111  0.69203  0.63684  Biso   1.000  C
  H499     1.0000 0.84570  0.70870  0.74091  Biso   1.000  H
  H500     1.0000 0.84219  0.67410  0.71727  Biso   1.000  H
  C370     1.0000 0.67243  0.72041  0.61320  Biso   1.000  C
  C371     1.0000 0.69019  0.71721  0.81125  Biso   1.000  C
  H501     1.0000 0.89780  0.62011  0.51987  Biso   1.000  H
  H502     1.0000 0.91349  0.59649  0.45818  Biso   1.000  H
  H503     1.0000 0.90979  0.62891  0.41083  Biso   1.000  H
  H504     1.0000 0.89858  0.60462  0.24788  Biso   1.000  H
  H505     1.0000 0.89519  0.57130  0.28713  Biso   1.000  H
  H506     1.0000 0.87360  0.58891  0.23730  Biso   1.000  H
  C372     1.0000 0.71220  0.70031  0.11160  Biso   1.000  C
  C373     1.0000 0.71549  0.71761  0.29498  Biso   1.000  C
  H507     1.0000 0.87040  0.67901  0.57339  Biso   1.000  H
  C374     1.0000 0.87991  0.72190  0.60351  Biso   1.000  C
  C375     1.0000 0.88782  0.67743  0.71823  Biso   1.000  C
  H508     1.0000 0.67509  0.71021  0.54639  Biso   1.000  H
  H509     1.0000 0.65690  0.71520  0.63988  Biso   1.000  H
  H510     1.0000 0.67339  0.74182  0.60239  Biso   1.000  H
  H511     1.0000 0.69979  0.73460  0.82711  Biso   1.000  H
  H512     1.0000 0.67389  0.72120  0.83160  Biso   1.000  H
  H513     1.0000 0.69599  0.70011  0.85042  Biso   1.000  H
  H514     1.0000 0.71499  0.71811  0.06930  Biso   1.000  H
  H515     1.0000 0.71729  0.68292  0.07242  Biso   1.000  H
  H516     1.0000 0.69540  0.69871  0.12722  Biso   1.000  H
  H517     1.0000 0.72750  0.72530  0.34297  Biso   1.000  H
  H518     1.0000 0.70650  0.73410  0.26614  Biso   1.000  H
  H519     1.0000 0.70510  0.70421  0.33328  Biso   1.000  H
  H520     1.0000 0.88139  0.73471  0.66520  Biso   1.000  H
  H521     1.0000 0.89530  0.71971  0.56994  Biso   1.000  H
  H522     1.0000 0.86890  0.73070  0.55368  Biso   1.000  H
  H523     1.0000 0.88200  0.65770  0.73642  Biso   1.000  H
  H524     1.0000 0.90350  0.67570  0.68795  Biso   1.000  H
  H525     1.0000 0.88849  0.68971  0.78153  Biso   1.000  H
  C376     1.0000 0.33179  0.49710  0.66311  Biso   1.000  C
  C377     1.0000 0.30662  0.50152  0.61873  Biso   1.000  C
  H526     1.0000 0.34330  0.50461  0.61240  Biso   1.000  H
  H527     1.0000 0.33340  0.50791  0.72945  Biso   1.000  H
  H528     1.0000 0.33460  0.47601  0.67537  Biso   1.000  H
  C378     1.0000 0.28927  0.48733  0.69588  Biso   1.000  C
  H529     1.0000 0.30339  0.52320  0.61689  Biso   1.000  H
  C379     1.0000 0.30446  0.48979  0.50697  Biso   1.000  C
  O51      1.0000 0.26544  0.49261  0.65935  Biso   1.000  O
  H530     1.0000 0.29140  0.49600  0.76662  Biso   1.000  H
  H531     1.0000 0.29220  0.46581  0.70061  Biso   1.000  H
  H532     1.0000 0.28889  0.49460  0.47917  Biso   1.000  H
  H533     1.0000 0.31649  0.49891  0.46283  Biso   1.000  H
  H534     1.0000 0.30650  0.46829  0.50721  Biso   1.000  H
  C380     1.0000 0.24719  0.47863  0.71543  Biso   1.000  C
  C381     1.0000 0.22419  0.48251  0.67393  Biso   1.000  C
  C382     1.0000 0.25041  0.46232  0.80933  Biso   1.000  C
  C383     1.0000 0.21972  0.49913  0.56938  Biso   1.000  C
  C384     1.0000 0.20514  0.46911  0.72665  Biso   1.000  C
  H535     1.0000 0.26569  0.46060  0.83769  Biso   1.000  H
  C385     1.0000 0.23154  0.44846  0.86212  Biso   1.000  C
  C386     1.0000 0.21406  0.47714  0.48069  Biso   1.000  C
  H536     1.0000 0.23381  0.51079  0.55039  Biso   1.000  H
  H537     1.0000 0.20650  0.51301  0.57843  Biso   1.000  H
  H538     1.0000 0.18980  0.47141  0.69933  Biso   1.000  H
  C387     1.0000 0.20848  0.45244  0.81878  Biso   1.000  C
  C388     1.0000 0.23538  0.43073  0.96403  Biso   1.000  C
  C389     1.0000 0.23213  0.46417  0.42029  Biso   1.000  C
  C390     1.0000 0.19019  0.46906  0.45770  Biso   1.000  C
  O52      1.0000 0.19027  0.43822  0.87390  Biso   1.000  O
  C391     1.0000 0.23524  0.39663  0.94600  Biso   1.000  C
  H539     1.0000 0.25059  0.43651  0.99519  Biso   1.000  H
  H540     1.0000 0.22290  0.43590  0.01482  Biso   1.000  H
  C392     1.0000 0.22777  0.44328  0.34097  Biso   1.000  C
  H541     1.0000 0.24780  0.46981  0.43382  Biso   1.000  H
  C393     1.0000 0.18582  0.44792  0.37895  Biso   1.000  C
  O53      1.0000 0.17259  0.48305  0.51618  Biso   1.000  O
  C394     1.0000 0.16676  0.43881  0.82679  Biso   1.000  C
  C395     1.0000 0.25543  0.38235  0.90675  Biso   1.000  C
  C396     1.0000 0.21532  0.37955  0.96876  Biso   1.000  C
  C397     1.0000 0.20419  0.43475  0.31942  Biso   1.000  C
  O54      1.0000 0.24510  0.43015  0.27864  Biso   1.000  O
  H542     1.0000 0.17010  0.44231  0.36501  Biso   1.000  H
  C398     1.0000 0.14903  0.47172  0.50713  Biso   1.000  C
  H543     1.0000 0.16010  0.45891  0.83168  Biso   1.000  H
  H544     1.0000 0.16769  0.43319  0.75172  Biso   1.000  H
  C399     1.0000 0.15125  0.41672  0.88664  Biso   1.000  C
  C400     1.0000 0.25525  0.35149  0.88872  Biso   1.000  C
  O55      1.0000 0.27526  0.39994  0.88600  Biso   1.000  O
  C401     1.0000 0.21474  0.34876  0.95065  Biso   1.000  C
  H545     1.0000 0.20190  0.38900  0.99704  Biso   1.000  H
  C402     1.0000 0.19868  0.41097  0.23674  Biso   1.000  C
  C403     1.0000 0.26904  0.44028  0.29250  Biso   1.000  C
  H546     1.0000 0.14340  0.47411  0.43398  Biso   1.000  H
  H547     1.0000 0.14891  0.45040  0.52427  Biso   1.000  H
  C404     1.0000 0.13271  0.48848  0.58260  Biso   1.000  C
  H548     1.0000 0.15920  0.39710  0.88479  Biso   1.000  H
  C405     1.0000 0.12767  0.41363  0.82783  Biso   1.000  C
  C406     1.0000 0.14782  0.42518  0.00168  Biso   1.000  C
  C407     1.0000 0.23457  0.33430  0.90875  Biso   1.000  C
  H549     1.0000 0.26900  0.34201  0.86300  Biso   1.000  H
  C408     1.0000 0.29604  0.38600  0.84538  Biso   1.000  C
  O56      1.0000 0.19450  0.33105  0.96795  Biso   1.000  O
  C409     1.0000 0.19895  0.37971  0.28489  Biso   1.000  C
  H550     1.0000 0.18310  0.41490  0.20590  Biso   1.000  H
  H551     1.0000 0.21039  0.41201  0.17954  Biso   1.000  H
  H552     1.0000 0.26930  0.46220  0.29354  Biso   1.000  H
  H553     1.0000 0.27509  0.43310  0.36084  Biso   1.000  H
  C410     1.0000 0.28501  0.42882  0.20269  Biso   1.000  C
  H554     1.0000 0.13890  0.48630  0.65574  Biso   1.000  H
  C411     1.0000 0.10796  0.47499  0.57787  Biso   1.000  C
  C412     1.0000 0.13191  0.52225  0.55432  Biso   1.000  C
  H555     1.0000 0.13050  0.40520  0.75813  Biso   1.000  H
  H556     1.0000 0.11720  0.40060  0.86765  Biso   1.000  H
  H557     1.0000 0.12040  0.43310  0.82054  Biso   1.000  H
  H558     1.0000 0.14001  0.44440  0.00593  Biso   1.000  H
  H559     1.0000 0.13820  0.41021  0.03653  Biso   1.000  H
  H560     1.0000 0.16310  0.42640  0.03653  Biso   1.000  H
  C413     1.0000 0.23416  0.30132  0.87670  Biso   1.000  C
  C414     1.0000 0.31390  0.40957  0.81261  Biso   1.000  C
  H561     1.0000 0.30300  0.37310  0.89994  Biso   1.000  H
  H562     1.0000 0.29200  0.37359  0.78409  Biso   1.000  H
  C415     1.0000 0.17886  0.33973  0.04783  Biso   1.000  C
  C416     1.0000 0.21970  0.36249  0.27992  Biso   1.000  C
  C417     1.0000 0.17904  0.36730  0.33512  Biso   1.000  C
  H563     1.0000 0.27990  0.43861  0.13620  Biso   1.000  H
  C418     1.0000 0.31016  0.43910  0.22681  Biso   1.000  C
  C419     1.0000 0.28325  0.39507  0.18619  Biso   1.000  C
  H564     1.0000 0.10860  0.45419  0.59942  Biso   1.000  H
  H565     1.0000 0.09750  0.48591  0.62530  Biso   1.000  H
  H566     1.0000 0.10201  0.47630  0.50601  Biso   1.000  H
  H567     1.0000 0.12521  0.52480  0.48398  Biso   1.000  H
  H568     1.0000 0.12220  0.53270  0.60559  Biso   1.000  H
  H569     1.0000 0.14780  0.53040  0.55560  Biso   1.000  H
  C420     1.0000 0.22626  0.29843  0.76158  Biso   1.000  C
  H570     1.0000 0.22330  0.29031  0.92285  Biso   1.000  H
  H571     1.0000 0.25000  0.29270  0.88519  Biso   1.000  H
  H572     1.0000 0.30620  0.42261  0.75941  Biso   1.000  H
  C421     1.0000 0.33506  0.39414  0.75805  Biso   1.000  C
  C422     1.0000 0.32110  0.42929  0.90723  Biso   1.000  C
  C423     1.0000 0.16349  0.31183  0.08052  Biso   1.000  C
  H573     1.0000 0.17770  0.35900  0.07715  Biso   1.000  H
  C424     1.0000 0.22113  0.33421  0.32599  Biso   1.000  C
  H574     1.0000 0.23300  0.37021  0.24467  Biso   1.000  H
  C425     1.0000 0.18058  0.33863  0.38143  Biso   1.000  C
  O57      1.0000 0.15877  0.38444  0.33512  Biso   1.000  O
  H575     1.0000 0.32049  0.43380  0.16832  Biso   1.000  H
  H576     1.0000 0.31031  0.46060  0.23642  Biso   1.000  H
  H577     1.0000 0.31570  0.42949  0.29114  Biso   1.000  H
  H578     1.0000 0.26680  0.38961  0.17521  Biso   1.000  H
  H579     1.0000 0.29250  0.38941  0.12474  Biso   1.000  H
  H580     1.0000 0.28930  0.38489  0.24844  Biso   1.000  H
  C426     1.0000 0.20197  0.29996  0.73490  Biso   1.000  C
  C427     1.0000 0.24265  0.29586  0.68010  Biso   1.000  C
  H581     1.0000 0.32940  0.38171  0.70061  Biso   1.000  H
  H582     1.0000 0.34570  0.40921  0.72993  Biso   1.000  H
  H583     1.0000 0.34339  0.38189  0.80925  Biso   1.000  H
  H584     1.0000 0.32979  0.41740  0.95834  Biso   1.000  H
  H585     1.0000 0.33100  0.44551  0.88239  Biso   1.000  H
  H586     1.0000 0.30700  0.43741  0.94039  Biso   1.000  H
  C428     1.0000 0.14819  0.30111  0.98975  Biso   1.000  C
  H587     1.0000 0.15280  0.31821  0.13852  Biso   1.000  H
  C429     1.0000 0.17741  0.28740  0.11969  Biso   1.000  C
  O58      1.0000 0.24201  0.31702  0.32174  Biso   1.000  O
  C430     1.0000 0.20140  0.32173  0.37750  Biso   1.000  C
  H588     1.0000 0.16719  0.33071  0.41580  Biso   1.000  H
  C431     1.0000 0.13770  0.37276  0.38407  Biso   1.000  C
  C432     1.0000 0.19431  0.29791  0.63075  Biso   1.000  C
  H589     1.0000 0.19080  0.30240  0.78922  Biso   1.000  H
  C433     1.0000 0.23543  0.29328  0.57531  Biso   1.000  C
  O59      1.0000 0.26630  0.29647  0.70998  Biso   1.000  O
  H590     1.0000 0.15800  0.29110  0.93743  Biso   1.000  H
  H591     1.0000 0.14029  0.31801  0.95722  Biso   1.000  H
  H592     1.0000 0.13639  0.28719  0.01642  Biso   1.000  H
  H593     1.0000 0.18691  0.27921  0.06241  Biso   1.000  H
  H594     1.0000 0.18780  0.29441  0.17585  Biso   1.000  H
  H595     1.0000 0.16699  0.27201  0.14733  Biso   1.000  H
  C434     1.0000 0.25395  0.31566  0.22312  Biso   1.000  C
  C435     1.0000 0.20274  0.29157  0.43190  Biso   1.000  C
  H596     1.0000 0.13141  0.35620  0.34177  Biso   1.000  H
  H597     1.0000 0.14140  0.36520  0.45522  Biso   1.000  H
  C436     1.0000 0.11920  0.39787  0.39184  Biso   1.000  C
  C437     1.0000 0.21096  0.29403  0.54759  Biso   1.000  C
  O60      1.0000 0.17043  0.29928  0.59998  Biso   1.000  O
  H598     1.0000 0.24680  0.29101  0.52171  Biso   1.000  H
  C438     1.0000 0.28401  0.28681  0.64212  Biso   1.000  C
  C439     1.0000 0.27388  0.29750  0.21527  Biso   1.000  C
  H599     1.0000 0.24861  0.32669  0.16464  Biso   1.000  H
  H600     1.0000 0.18710  0.28210  0.42990  Biso   1.000  H
  H601     1.0000 0.21381  0.27871  0.39289  Biso   1.000  H
  H602     1.0000 0.12621  0.41460  0.43222  Biso   1.000  H
  C440     1.0000 0.09759  0.38711  0.45041  Biso   1.000  C
  C441     1.0000 0.11232  0.40939  0.28072  Biso   1.000  C
  C442     1.0000 0.15371  0.30659  0.68555  Biso   1.000  C
  H603     1.0000 0.28130  0.27961  0.57315  Biso   1.000  H
  C443     1.0000 0.30875  0.28929  0.69364  Biso   1.000  C
  C444     1.0000 0.28450  0.28241  0.29498  Biso   1.000  C
  C445     1.0000 0.28780  0.29971  0.11160  Biso   1.000  C
  H604     1.0000 0.10220  0.37991  0.51987  Biso   1.000  H
  H605     1.0000 0.08649  0.40351  0.45818  Biso   1.000  H
  H606     1.0000 0.09019  0.37111  0.41083  Biso   1.000  H
  H607     1.0000 0.10140  0.39541  0.24788  Biso   1.000  H
  H608     1.0000 0.10479  0.42870  0.28713  Biso   1.000  H
  H609     1.0000 0.12640  0.41111  0.23730  Biso   1.000  H
  C446     1.0000 0.12889  0.30799  0.63684  Biso   1.000  C
  H610     1.0000 0.15430  0.29130  0.74091  Biso   1.000  H
  H611     1.0000 0.15781  0.32590  0.71727  Biso   1.000  H
  C447     1.0000 0.32757  0.27961  0.61320  Biso   1.000  C
  C448     1.0000 0.30981  0.28279  0.81125  Biso   1.000  C
  H612     1.0000 0.27250  0.27470  0.34297  Biso   1.000  H
  H613     1.0000 0.29350  0.26590  0.26614  Biso   1.000  H
  H614     1.0000 0.29490  0.29581  0.33328  Biso   1.000  H
  H615     1.0000 0.28500  0.28189  0.06930  Biso   1.000  H
  H616     1.0000 0.28269  0.31711  0.07242  Biso   1.000  H
  H617     1.0000 0.30460  0.30129  0.12722  Biso   1.000  H
  H618     1.0000 0.12960  0.32101  0.57339  Biso   1.000  H
  C449     1.0000 0.12009  0.27812  0.60351  Biso   1.000  C
  C450     1.0000 0.11216  0.32259  0.71823  Biso   1.000  C
  H619     1.0000 0.32489  0.28981  0.54639  Biso   1.000  H
  H620     1.0000 0.34310  0.28480  0.63988  Biso   1.000  H
  H621     1.0000 0.32659  0.25821  0.60239  Biso   1.000  H
  H622     1.0000 0.30019  0.26540  0.82711  Biso   1.000  H
  H623     1.0000 0.32609  0.27880  0.83160  Biso   1.000  H
  H624     1.0000 0.30400  0.29989  0.85042  Biso   1.000  H
  H625     1.0000 0.11859  0.26531  0.66520  Biso   1.000  H
  H626     1.0000 0.10470  0.28031  0.56994  Biso   1.000  H
  H627     1.0000 0.13110  0.26930  0.55368  Biso   1.000  H
  H628     1.0000 0.11800  0.34230  0.73642  Biso   1.000  H
  H629     1.0000 0.09650  0.32430  0.68795  Biso   1.000  H
  H630     1.0000 0.11150  0.31029  0.78153  Biso   1.000  H
  C451     1.0000 0.53026  0.24911  0.81942  Biso   1.000  C
  C452     1.0000 0.53594  0.22714  0.73073  Biso   1.000  C
  H631     1.0000 0.51619  0.26080  0.80043  Biso   1.000  H
  H632     1.0000 0.54349  0.26301  0.82839  Biso   1.000  H
  C453     1.0000 0.52579  0.23251  0.92389  Biso   1.000  C
  C454     1.0000 0.51787  0.21417  0.67033  Biso   1.000  C
  C455     1.0000 0.55981  0.21907  0.70774  Biso   1.000  C
  C456     1.0000 0.50279  0.22863  0.96539  Biso   1.000  C
  C457     1.0000 0.54486  0.21911  0.97661  Biso   1.000  C
  C458     1.0000 0.52223  0.19328  0.59101  Biso   1.000  C
  H633     1.0000 0.50220  0.21981  0.68378  Biso   1.000  H
  C459     1.0000 0.56418  0.19793  0.62891  Biso   1.000  C
  O61      1.0000 0.57741  0.23305  0.76622  Biso   1.000  O
  O62      1.0000 0.48456  0.24262  0.90931  Biso   1.000  O
  C460     1.0000 0.49957  0.21232  0.05929  Biso   1.000  C
  H634     1.0000 0.56020  0.22141  0.94929  Biso   1.000  H
  C461     1.0000 0.54150  0.20244  0.06882  Biso   1.000  C
  O63      1.0000 0.50490  0.18015  0.52860  Biso   1.000  O
  C462     1.0000 0.54579  0.18475  0.56938  Biso   1.000  C
  H635     1.0000 0.57990  0.19231  0.61505  Biso   1.000  H
  C463     1.0000 0.60095  0.22171  0.75709  Biso   1.000  C
  C464     1.0000 0.46073  0.23734  0.94592  Biso   1.000  C
  H636     1.0000 0.48429  0.21061  0.08773  Biso   1.000  H
  C465     1.0000 0.51846  0.19845  0.11208  Biso   1.000  C
  O64      1.0000 0.55973  0.18821  0.12394  Biso   1.000  O
  C466     1.0000 0.48096  0.19028  0.54254  Biso   1.000  C
  C467     1.0000 0.55132  0.16096  0.48670  Biso   1.000  C
  H637     1.0000 0.60660  0.22410  0.68402  Biso   1.000  H
  H638     1.0000 0.60109  0.20041  0.77432  Biso   1.000  H
  C468     1.0000 0.61727  0.23849  0.83264  Biso   1.000  C
  C469     1.0000 0.44338  0.25153  0.86869  Biso   1.000  C
  H639     1.0000 0.45780  0.21580  0.95065  Biso   1.000  H
  H640     1.0000 0.45860  0.24600  0.01658  Biso   1.000  H
  C470     1.0000 0.51462  0.18074  0.21399  Biso   1.000  C
  C471     1.0000 0.58322  0.18879  0.07683  Biso   1.000  C
  C472     1.0000 0.46497  0.17882  0.45273  Biso   1.000  C
  H641     1.0000 0.48070  0.21221  0.54350  Biso   1.000  H
  H642     1.0000 0.47489  0.18311  0.61080  Biso   1.000  H
  C473     1.0000 0.55105  0.12971  0.53493  Biso   1.000  C
  H643     1.0000 0.56690  0.16490  0.45594  Biso   1.000  H
  H644     1.0000 0.53959  0.16199  0.42950  Biso   1.000  H
  H645     1.0000 0.61110  0.23630  0.90570  Biso   1.000  H
  C474     1.0000 0.64204  0.22500  0.82791  Biso   1.000  C
  C475     1.0000 0.61809  0.27226  0.80428  Biso   1.000  C
  H646     1.0000 0.44659  0.27321  0.86693  Biso   1.000  H
  C476     1.0000 0.41819  0.24711  0.91307  Biso   1.000  C
  C477     1.0000 0.44554  0.23978  0.75701  Biso   1.000  C
  C478     1.0000 0.51476  0.14663  0.19604  Biso   1.000  C
  H647     1.0000 0.49939  0.18649  0.24523  Biso   1.000  H
  H648     1.0000 0.52710  0.18591  0.26478  Biso   1.000  H
  H649     1.0000 0.58989  0.20889  0.08172  Biso   1.000  H
  H650     1.0000 0.58229  0.18320  0.00168  Biso   1.000  H
  C479     1.0000 0.59875  0.16673  0.13660  Biso   1.000  C
  C480     1.0000 0.43984  0.18911  0.47685  Biso   1.000  C
  H651     1.0000 0.47010  0.18861  0.38624  Biso   1.000  H
  C481     1.0000 0.46674  0.14507  0.43623  Biso   1.000  C
  C482     1.0000 0.57096  0.11730  0.58508  Biso   1.000  C
  C483     1.0000 0.53028  0.11248  0.52988  Biso   1.000  C
  H652     1.0000 0.64140  0.20420  0.84938  Biso   1.000  H
  H653     1.0000 0.65250  0.23590  0.87534  Biso   1.000  H
  H654     1.0000 0.64799  0.22631  0.75605  Biso   1.000  H
  H655     1.0000 0.62479  0.27481  0.73402  Biso   1.000  H
  H656     1.0000 0.62780  0.28270  0.85563  Biso   1.000  H
  H657     1.0000 0.60220  0.28040  0.80564  Biso   1.000  H
  H658     1.0000 0.40670  0.25460  0.86244  Biso   1.000  H
  H659     1.0000 0.41660  0.25791  0.97941  Biso   1.000  H
  H660     1.0000 0.41540  0.22599  0.92541  Biso   1.000  H
  H661     1.0000 0.46109  0.24460  0.72921  Biso   1.000  H
  H662     1.0000 0.43349  0.24891  0.71279  Biso   1.000  H
  H663     1.0000 0.44350  0.21830  0.75725  Biso   1.000  H
  C484     1.0000 0.49457  0.13235  0.15671  Biso   1.000  C
  C485     1.0000 0.53466  0.12955  0.21871  Biso   1.000  C
  H664     1.0000 0.59080  0.14710  0.13483  Biso   1.000  H
  C486     1.0000 0.60218  0.17519  0.25172  Biso   1.000  C
  C487     1.0000 0.62231  0.16364  0.07779  Biso   1.000  C
  H665     1.0000 0.42949  0.18381  0.41828  Biso   1.000  H
  H666     1.0000 0.43969  0.21061  0.48638  Biso   1.000  H
  H667     1.0000 0.43430  0.17950  0.54110  Biso   1.000  H
  H668     1.0000 0.48320  0.13959  0.42517  Biso   1.000  H
  H669     1.0000 0.45750  0.13941  0.37470  Biso   1.000  H
  H670     1.0000 0.46070  0.13490  0.49840  Biso   1.000  H
  O65      1.0000 0.59123  0.13445  0.58508  Biso   1.000  O
  C488     1.0000 0.56942  0.08861  0.63139  Biso   1.000  C
  C489     1.0000 0.52887  0.08421  0.57603  Biso   1.000  C
  H671     1.0000 0.51700  0.12019  0.49471  Biso   1.000  H
  O66      1.0000 0.47474  0.14992  0.13604  Biso   1.000  O
  C490     1.0000 0.49473  0.10149  0.13868  Biso   1.000  C
  C491     1.0000 0.53526  0.09876  0.20061  Biso   1.000  C
  H672     1.0000 0.54810  0.13901  0.24700  Biso   1.000  H
  H673     1.0000 0.60999  0.19441  0.25589  Biso   1.000  H
  H674     1.0000 0.61180  0.16021  0.28649  Biso   1.000  H
  H675     1.0000 0.58690  0.17641  0.28649  Biso   1.000  H
  H676     1.0000 0.61949  0.15520  0.00809  Biso   1.000  H
  H677     1.0000 0.63280  0.15060  0.11761  Biso   1.000  H
  H678     1.0000 0.62960  0.18311  0.07050  Biso   1.000  H
  C492     1.0000 0.61230  0.12274  0.63411  Biso   1.000  C
  C493     1.0000 0.54858  0.07174  0.62754  Biso   1.000  C
  H679     1.0000 0.58279  0.08069  0.66584  Biso   1.000  H
  O67      1.0000 0.50797  0.06702  0.57170  Biso   1.000  O
  C494     1.0000 0.45394  0.13598  0.09542  Biso   1.000  C
  H680     1.0000 0.48100  0.09199  0.11304  Biso   1.000  H
  C495     1.0000 0.51543  0.08430  0.15871  Biso   1.000  C
  O68      1.0000 0.55548  0.08103  0.21791  Biso   1.000  O
  H681     1.0000 0.61859  0.10621  0.59181  Biso   1.000  H
  H682     1.0000 0.60860  0.11521  0.70518  Biso   1.000  H
  C496     1.0000 0.63080  0.14787  0.64180  Biso   1.000  C
  C497     1.0000 0.54724  0.04155  0.68194  Biso   1.000  C
  C498     1.0000 0.49605  0.06567  0.47308  Biso   1.000  C
  C499     1.0000 0.43610  0.15958  0.06265  Biso   1.000  C
  H683     1.0000 0.44700  0.12310  0.14990  Biso   1.000  H
  H684     1.0000 0.45800  0.12360  0.03413  Biso   1.000  H
  C500     1.0000 0.51582  0.05132  0.12674  Biso   1.000  C
  C501     1.0000 0.57114  0.08974  0.29779  Biso   1.000  C
  H685     1.0000 0.62379  0.16461  0.68218  Biso   1.000  H
  C502     1.0000 0.65241  0.13711  0.70045  Biso   1.000  C
  C503     1.0000 0.63768  0.15940  0.53068  Biso   1.000  C
  H686     1.0000 0.56290  0.03210  0.67994  Biso   1.000  H
  H687     1.0000 0.53619  0.02869  0.64293  Biso   1.000  H
  C504     1.0000 0.53904  0.04403  0.79763  Biso   1.000  C
  H688     1.0000 0.50139  0.07670  0.41460  Biso   1.000  H
  C505     1.0000 0.47612  0.04751  0.46531  Biso   1.000  C
  H689     1.0000 0.44380  0.17260  0.00945  Biso   1.000  H
  C506     1.0000 0.41492  0.14415  0.00801  Biso   1.000  C
  C507     1.0000 0.42890  0.17930  0.15719  Biso   1.000  C
  C508     1.0000 0.52374  0.04841  0.01162  Biso   1.000  C
  H690     1.0000 0.52670  0.04029  0.17281  Biso   1.000  H
  H691     1.0000 0.50000  0.04270  0.13523  Biso   1.000  H
  C509     1.0000 0.58649  0.06181  0.33056  Biso   1.000  C
  H692     1.0000 0.57230  0.10900  0.32711  Biso   1.000  H
  H693     1.0000 0.64780  0.12989  0.76991  Biso   1.000  H
  H694     1.0000 0.66349  0.15351  0.70822  Biso   1.000  H
  H695     1.0000 0.65979  0.12109  0.66079  Biso   1.000  H
  H696     1.0000 0.64860  0.14539  0.49792  Biso   1.000  H
  H697     1.0000 0.64519  0.17871  0.53709  Biso   1.000  H
  H698     1.0000 0.62360  0.16109  0.48734  Biso   1.000  H
  C510     1.0000 0.55569  0.04789  0.88071  Biso   1.000  C
  C511     1.0000 0.51457  0.04329  0.82535  Biso   1.000  C
  C512     1.0000 0.46220  0.04970  0.36164  Biso   1.000  C
  C513     1.0000 0.46550  0.03239  0.54502  Biso   1.000  C
  H699     1.0000 0.42060  0.13170  0.95065  Biso   1.000  H
  H700     1.0000 0.40430  0.15920  0.97989  Biso   1.000  H
  H701     1.0000 0.40659  0.13190  0.05921  Biso   1.000  H
  H702     1.0000 0.42019  0.16741  0.20830  Biso   1.000  H
  H703     1.0000 0.41900  0.19549  0.13243  Biso   1.000  H
  H704     1.0000 0.44300  0.18739  0.19043  Biso   1.000  H
  C514     1.0000 0.54801  0.04994  0.98494  Biso   1.000  C
  C515     1.0000 0.50733  0.04586  0.93014  Biso   1.000  C
  H705     1.0000 0.59720  0.06819  0.38856  Biso   1.000  H
  C516     1.0000 0.60179  0.05110  0.23971  Biso   1.000  C
  C517     1.0000 0.57257  0.03740  0.36973  Biso   1.000  C
  O69      1.0000 0.57957  0.04929  0.85002  Biso   1.000  O
  H706     1.0000 0.50320  0.04101  0.77175  Biso   1.000  H
  H707     1.0000 0.46500  0.03190  0.31934  Biso   1.000  H
  H708     1.0000 0.46729  0.06711  0.32238  Biso   1.000  H
  H709     1.0000 0.44540  0.05130  0.37718  Biso   1.000  H
  H710     1.0000 0.47750  0.02470  0.59301  Biso   1.000  H
  H711     1.0000 0.45650  0.01590  0.51610  Biso   1.000  H
  H712     1.0000 0.45510  0.04579  0.58332  Biso   1.000  H
  H713     1.0000 0.55920  0.05240  0.03926  Biso   1.000  H
  O70      1.0000 0.48368  0.04647  0.96002  Biso   1.000  O
  H714     1.0000 0.59200  0.04110  0.18739  Biso   1.000  H
  H715     1.0000 0.61359  0.03720  0.26638  Biso   1.000  H
  H716     1.0000 0.60969  0.06799  0.20726  Biso   1.000  H
  H717     1.0000 0.56309  0.02919  0.31245  Biso   1.000  H
  H718     1.0000 0.56220  0.04440  0.42581  Biso   1.000  H
  H719     1.0000 0.58299  0.02199  0.39729  Biso   1.000  H
  C518     1.0000 0.59627  0.05660  0.93551  Biso   1.000  C
  C519     1.0000 0.46597  0.03679  0.89208  Biso   1.000  C
  C520     1.0000 0.62111  0.05798  0.88680  Biso   1.000  C
  H720     1.0000 0.59570  0.04130  0.99095  Biso   1.000  H
  H721     1.0000 0.59219  0.07591  0.96731  Biso   1.000  H
  H722     1.0000 0.46870  0.02960  0.82311  Biso   1.000  H
  C521     1.0000 0.44125  0.03930  0.94360  Biso   1.000  C
  H723     1.0000 0.62040  0.07099  0.82343  Biso   1.000  H
  C522     1.0000 0.62991  0.02813  0.85355  Biso   1.000  C
  C523     1.0000 0.63784  0.07257  0.96819  Biso   1.000  C
  C524     1.0000 0.42243  0.02960  0.86324  Biso   1.000  C
  C525     1.0000 0.44019  0.03280  0.06121  Biso   1.000  C
  H724     1.0000 0.63139  0.01529  0.91524  Biso   1.000  H
  H725     1.0000 0.64530  0.03030  0.81990  Biso   1.000  H
  H726     1.0000 0.61890  0.01931  0.80372  Biso   1.000  H
  H727     1.0000 0.63200  0.09231  0.98638  Biso   1.000  H
  H728     1.0000 0.65350  0.07431  0.93791  Biso   1.000  H
  H729     1.0000 0.63849  0.06030  0.03149  Biso   1.000  H
  H730     1.0000 0.42509  0.03979  0.79643  Biso   1.000  H
  H731     1.0000 0.40690  0.03481  0.88992  Biso   1.000  H
  H732     1.0000 0.42339  0.00821  0.85243  Biso   1.000  H
  H733     1.0000 0.44979  0.01541  0.07715  Biso   1.000  H
  H734     1.0000 0.42389  0.02881  0.08164  Biso   1.000  H
  H735     1.0000 0.44600  0.04990  0.10038  Biso   1.000  H
  C526     1.0000 0.46972  0.75089  0.81942  Biso   1.000  C
  C527     1.0000 0.46406  0.77288  0.73073  Biso   1.000  C
  H736     1.0000 0.48379  0.73920  0.80043  Biso   1.000  H
  H737     1.0000 0.45650  0.73701  0.82839  Biso   1.000  H
  C528     1.0000 0.47419  0.76751  0.92389  Biso   1.000  C
  C529     1.0000 0.44019  0.78096  0.70774  Biso   1.000  C
  C530     1.0000 0.48213  0.78583  0.67033  Biso   1.000  C
  C531     1.0000 0.49719  0.77139  0.96539  Biso   1.000  C
  C532     1.0000 0.45512  0.78089  0.97661  Biso   1.000  C
  O71      1.0000 0.42259  0.76695  0.76622  Biso   1.000  O
  C533     1.0000 0.43580  0.80209  0.62891  Biso   1.000  C
  C534     1.0000 0.47775  0.80672  0.59101  Biso   1.000  C
  H738     1.0000 0.49780  0.78021  0.68378  Biso   1.000  H
  O72      1.0000 0.51544  0.75740  0.90931  Biso   1.000  O
  C535     1.0000 0.50041  0.78770  0.05929  Biso   1.000  C
  H739     1.0000 0.43980  0.77861  0.94929  Biso   1.000  H
  C536     1.0000 0.45848  0.79756  0.06882  Biso   1.000  C
  C537     1.0000 0.39903  0.77829  0.75709  Biso   1.000  C
  H740     1.0000 0.42010  0.80771  0.61505  Biso   1.000  H
  C538     1.0000 0.45419  0.81527  0.56938  Biso   1.000  C
  O73      1.0000 0.49510  0.81985  0.52860  Biso   1.000  O
  C539     1.0000 0.53927  0.76266  0.94592  Biso   1.000  C
  H741     1.0000 0.51569  0.78942  0.08773  Biso   1.000  H
  C540     1.0000 0.48152  0.80155  0.11208  Biso   1.000  C
  O74      1.0000 0.44025  0.81179  0.12394  Biso   1.000  O
  C541     1.0000 0.38271  0.76151  0.83264  Biso   1.000  C
  H742     1.0000 0.39340  0.77590  0.68402  Biso   1.000  H
  H743     1.0000 0.39889  0.79961  0.77432  Biso   1.000  H
  C542     1.0000 0.44868  0.83904  0.48670  Biso   1.000  C
  C543     1.0000 0.51902  0.80972  0.54254  Biso   1.000  C
  C544     1.0000 0.55661  0.74849  0.86869  Biso   1.000  C
  H744     1.0000 0.54220  0.78420  0.95065  Biso   1.000  H
  H745     1.0000 0.54140  0.75400  0.01658  Biso   1.000  H
  C545     1.0000 0.48538  0.81928  0.21399  Biso   1.000  C
  C546     1.0000 0.41676  0.81121  0.07683  Biso   1.000  C
  C547     1.0000 0.38191  0.72774  0.80428  Biso   1.000  C
  H746     1.0000 0.38890  0.76370  0.90570  Biso   1.000  H
  C548     1.0000 0.35796  0.77502  0.82791  Biso   1.000  C
  C549     1.0000 0.44895  0.87031  0.53493  Biso   1.000  C
  H747     1.0000 0.43310  0.83510  0.45594  Biso   1.000  H
  H748     1.0000 0.46039  0.83801  0.42950  Biso   1.000  H
  H749     1.0000 0.51930  0.78781  0.54350  Biso   1.000  H
  H750     1.0000 0.52509  0.81691  0.61080  Biso   1.000  H
  C550     1.0000 0.53501  0.82118  0.45273  Biso   1.000  C
  H751     1.0000 0.55339  0.72682  0.86693  Biso   1.000  H
  C551     1.0000 0.58179  0.75292  0.91307  Biso   1.000  C
  C552     1.0000 0.55446  0.76022  0.75701  Biso   1.000  C
  C553     1.0000 0.48522  0.85337  0.19604  Biso   1.000  C
  H752     1.0000 0.50059  0.81351  0.24523  Biso   1.000  H
  H753     1.0000 0.47290  0.81412  0.26478  Biso   1.000  H
  H754     1.0000 0.41010  0.79111  0.08172  Biso   1.000  H
  H755     1.0000 0.41769  0.81680  0.00168  Biso   1.000  H
  C554     1.0000 0.40125  0.83327  0.13660  Biso   1.000  C
  H756     1.0000 0.37521  0.72521  0.73402  Biso   1.000  H
  H757     1.0000 0.37220  0.71730  0.85563  Biso   1.000  H
  H758     1.0000 0.39780  0.71960  0.80564  Biso   1.000  H
  H759     1.0000 0.35860  0.79580  0.84938  Biso   1.000  H
  H760     1.0000 0.34750  0.76410  0.87534  Biso   1.000  H
  H761     1.0000 0.35201  0.77371  0.75605  Biso   1.000  H
  C555     1.0000 0.42904  0.88272  0.58508  Biso   1.000  C
  C556     1.0000 0.46970  0.88752  0.52988  Biso   1.000  C
  H762     1.0000 0.52990  0.81141  0.38624  Biso   1.000  H
  C557     1.0000 0.56016  0.81089  0.47685  Biso   1.000  C
  C558     1.0000 0.53325  0.85495  0.43623  Biso   1.000  C
  H763     1.0000 0.59330  0.74540  0.86244  Biso   1.000  H
  H764     1.0000 0.58340  0.74211  0.97941  Biso   1.000  H
  H765     1.0000 0.58460  0.77401  0.92541  Biso   1.000  H
  H766     1.0000 0.53889  0.75540  0.72921  Biso   1.000  H
  H767     1.0000 0.56649  0.75111  0.71279  Biso   1.000  H
  H768     1.0000 0.55650  0.78170  0.75725  Biso   1.000  H
  C559     1.0000 0.50543  0.86765  0.15671  Biso   1.000  C
  C560     1.0000 0.46532  0.87047  0.21871  Biso   1.000  C
  H769     1.0000 0.40920  0.85292  0.13483  Biso   1.000  H
  C561     1.0000 0.39780  0.82481  0.25172  Biso   1.000  C
  C562     1.0000 0.37767  0.83638  0.07779  Biso   1.000  C
  O75      1.0000 0.40877  0.86557  0.58508  Biso   1.000  O
  C563     1.0000 0.43058  0.91139  0.63139  Biso   1.000  C
  C564     1.0000 0.47113  0.91579  0.57603  Biso   1.000  C
  H770     1.0000 0.48300  0.87981  0.49471  Biso   1.000  H
  H771     1.0000 0.57049  0.81622  0.41828  Biso   1.000  H
  H772     1.0000 0.56029  0.78942  0.48638  Biso   1.000  H
  H773     1.0000 0.56570  0.82050  0.54110  Biso   1.000  H
  H774     1.0000 0.51680  0.86041  0.42517  Biso   1.000  H
  H775     1.0000 0.54250  0.86061  0.37470  Biso   1.000  H
  H776     1.0000 0.53929  0.86510  0.49840  Biso   1.000  H
  O76      1.0000 0.52524  0.85008  0.13604  Biso   1.000  O
  C565     1.0000 0.50525  0.89851  0.13868  Biso   1.000  C
  C566     1.0000 0.46472  0.90126  0.20061  Biso   1.000  C
  H777     1.0000 0.45190  0.86102  0.24700  Biso   1.000  H
  H778     1.0000 0.39001  0.80561  0.25589  Biso   1.000  H
  H779     1.0000 0.38820  0.83981  0.28649  Biso   1.000  H
  H780     1.0000 0.41310  0.82361  0.28649  Biso   1.000  H
  H781     1.0000 0.38050  0.84480  0.00809  Biso   1.000  H
  H782     1.0000 0.36720  0.84940  0.11761  Biso   1.000  H
  H783     1.0000 0.37040  0.81691  0.07050  Biso   1.000  H
  C567     1.0000 0.38770  0.87726  0.63411  Biso   1.000  C
  C568     1.0000 0.45140  0.92829  0.62754  Biso   1.000  C
  H784     1.0000 0.41719  0.91931  0.66584  Biso   1.000  H
  O77      1.0000 0.49201  0.93298  0.57170  Biso   1.000  O
  C569     1.0000 0.54604  0.86402  0.09542  Biso   1.000  C
  H785     1.0000 0.51900  0.90801  0.11304  Biso   1.000  H
  C570     1.0000 0.48456  0.91570  0.15871  Biso   1.000  C
  O78      1.0000 0.44450  0.91897  0.21791  Biso   1.000  O
  H786     1.0000 0.38139  0.89382  0.59181  Biso   1.000  H
  H787     1.0000 0.39140  0.88482  0.70518  Biso   1.000  H
  C571     1.0000 0.36920  0.85213  0.64180  Biso   1.000  C
  C572     1.0000 0.45274  0.95845  0.68194  Biso   1.000  C
  C573     1.0000 0.50395  0.93433  0.47308  Biso   1.000  C
  C574     1.0000 0.56390  0.84044  0.06265  Biso   1.000  C
  H788     1.0000 0.55300  0.87690  0.14990  Biso   1.000  H
  H789     1.0000 0.54200  0.87640  0.03413  Biso   1.000  H
  C575     1.0000 0.48416  0.94868  0.12674  Biso   1.000  C
  C576     1.0000 0.42886  0.91028  0.29779  Biso   1.000  C
  H790     1.0000 0.37619  0.83541  0.68218  Biso   1.000  H
  C577     1.0000 0.34759  0.86291  0.70045  Biso   1.000  C
  C578     1.0000 0.36232  0.84060  0.53068  Biso   1.000  C
  H791     1.0000 0.43710  0.96790  0.67994  Biso   1.000  H
  H792     1.0000 0.46379  0.97131  0.64293  Biso   1.000  H
  C579     1.0000 0.46096  0.95599  0.79763  Biso   1.000  C
  H793     1.0000 0.49859  0.92330  0.41460  Biso   1.000  H
  C580     1.0000 0.52388  0.95251  0.46531  Biso   1.000  C
  H794     1.0000 0.55620  0.82740  0.00945  Biso   1.000  H
  C581     1.0000 0.58506  0.85585  0.00801  Biso   1.000  C
  C582     1.0000 0.57110  0.82073  0.15719  Biso   1.000  C
  C583     1.0000 0.47626  0.95159  0.01162  Biso   1.000  C
  H795     1.0000 0.47330  0.95971  0.17281  Biso   1.000  H
  H796     1.0000 0.50000  0.95732  0.13523  Biso   1.000  H
  C584     1.0000 0.41349  0.93819  0.33056  Biso   1.000  C
  H797     1.0000 0.42770  0.89100  0.32711  Biso   1.000  H
  H798     1.0000 0.35220  0.87011  0.76991  Biso   1.000  H
  H799     1.0000 0.33649  0.84651  0.70822  Biso   1.000  H
  H800     1.0000 0.34019  0.87891  0.66079  Biso   1.000  H
  H801     1.0000 0.35140  0.85461  0.49792  Biso   1.000  H
  H802     1.0000 0.35479  0.82131  0.53709  Biso   1.000  H
  H803     1.0000 0.37640  0.83891  0.48734  Biso   1.000  H
  C585     1.0000 0.44429  0.95211  0.88071  Biso   1.000  C
  C586     1.0000 0.48543  0.95671  0.82535  Biso   1.000  C
  C587     1.0000 0.53780  0.95030  0.36164  Biso   1.000  C
  C588     1.0000 0.53450  0.96761  0.54502  Biso   1.000  C
  H804     1.0000 0.57940  0.86830  0.95065  Biso   1.000  H
  H805     1.0000 0.59570  0.84080  0.97989  Biso   1.000  H
  H806     1.0000 0.59339  0.86810  0.05921  Biso   1.000  H
  H807     1.0000 0.57979  0.83262  0.20830  Biso   1.000  H
  H808     1.0000 0.58099  0.80451  0.13243  Biso   1.000  H
  H809     1.0000 0.55700  0.81261  0.19043  Biso   1.000  H
  C589     1.0000 0.45197  0.95006  0.98494  Biso   1.000  C
  C590     1.0000 0.49265  0.95416  0.93014  Biso   1.000  C
  H810     1.0000 0.40280  0.93181  0.38856  Biso   1.000  H
  C591     1.0000 0.39819  0.94890  0.23971  Biso   1.000  C
  C592     1.0000 0.42741  0.96260  0.36973  Biso   1.000  C
  O79      1.0000 0.42041  0.95071  0.85002  Biso   1.000  O
  H811     1.0000 0.49680  0.95901  0.77175  Biso   1.000  H
  H812     1.0000 0.53500  0.96810  0.31934  Biso   1.000  H
  H813     1.0000 0.53269  0.93291  0.32238  Biso   1.000  H
  H814     1.0000 0.55459  0.94870  0.37718  Biso   1.000  H
  H815     1.0000 0.52250  0.97530  0.59301  Biso   1.000  H
  H816     1.0000 0.54349  0.98412  0.51610  Biso   1.000  H
  H817     1.0000 0.54490  0.95421  0.58332  Biso   1.000  H
  H818     1.0000 0.44080  0.94762  0.03926  Biso   1.000  H
  O80      1.0000 0.51630  0.95353  0.96002  Biso   1.000  O
  H819     1.0000 0.40800  0.95890  0.18739  Biso   1.000  H
  H820     1.0000 0.38639  0.96280  0.26638  Biso   1.000  H
  H821     1.0000 0.39029  0.93201  0.20726  Biso   1.000  H
  H822     1.0000 0.43689  0.97081  0.31245  Biso   1.000  H
  H823     1.0000 0.43780  0.95560  0.42581  Biso   1.000  H
  H824     1.0000 0.41699  0.97801  0.39729  Biso   1.000  H
  C593     1.0000 0.40371  0.94340  0.93551  Biso   1.000  C
  C594     1.0000 0.53401  0.96321  0.89208  Biso   1.000  C
  C595     1.0000 0.37887  0.94202  0.88680  Biso   1.000  C
  H825     1.0000 0.40430  0.95872  0.99095  Biso   1.000  H
  H826     1.0000 0.40779  0.92411  0.96731  Biso   1.000  H
  H827     1.0000 0.53130  0.97040  0.82311  Biso   1.000  H
  C596     1.0000 0.55875  0.96070  0.94360  Biso   1.000  C
  H828     1.0000 0.37960  0.92901  0.82343  Biso   1.000  H
  C597     1.0000 0.37009  0.97189  0.85355  Biso   1.000  C
  C598     1.0000 0.36216  0.92743  0.96819  Biso   1.000  C
  C599     1.0000 0.57757  0.97040  0.86324  Biso   1.000  C
  C600     1.0000 0.55979  0.96720  0.06121  Biso   1.000  C
  H829     1.0000 0.36859  0.98471  0.91524  Biso   1.000  H
  H830     1.0000 0.35470  0.96970  0.81990  Biso   1.000  H
  H831     1.0000 0.38110  0.98071  0.80372  Biso   1.000  H
  H832     1.0000 0.36800  0.90771  0.98638  Biso   1.000  H
  H833     1.0000 0.34650  0.92571  0.93791  Biso   1.000  H
  H834     1.0000 0.36150  0.93970  0.03149  Biso   1.000  H
  H835     1.0000 0.57489  0.96021  0.79643  Biso   1.000  H
  H836     1.0000 0.59309  0.96521  0.88992  Biso   1.000  H
  H837     1.0000 0.57659  0.99181  0.85243  Biso   1.000  H
  H838     1.0000 0.55019  0.98462  0.07715  Biso   1.000  H
  H839     1.0000 0.57609  0.97122  0.08164  Biso   1.000  H
  H840     1.0000 0.55400  0.95010  0.10038  Biso   1.000  H
  C601     1.0000 0.62008  0.77814  0.60351  Biso   1.000  C
  C602     1.0000 0.62887  0.80798  0.63684  Biso   1.000  C
  H841     1.0000 0.61859  0.76530  0.66520  Biso   1.000  H
  H842     1.0000 0.60469  0.78030  0.56994  Biso   1.000  H
  H843     1.0000 0.63109  0.76932  0.55368  Biso   1.000  H
  H844     1.0000 0.62960  0.82100  0.57339  Biso   1.000  H
  C603     1.0000 0.61216  0.82258  0.71823  Biso   1.000  C
  C604     1.0000 0.65371  0.80661  0.68555  Biso   1.000  C
  H845     1.0000 0.61800  0.84232  0.73642  Biso   1.000  H
  H846     1.0000 0.59650  0.82431  0.68795  Biso   1.000  H
  H847     1.0000 0.61150  0.81030  0.78153  Biso   1.000  H
  O81      1.0000 0.67041  0.79930  0.59998  Biso   1.000  O
  H848     1.0000 0.65429  0.79131  0.74091  Biso   1.000  H
  H849     1.0000 0.65779  0.82592  0.71727  Biso   1.000  H
  C605     1.0000 0.69429  0.79790  0.63075  Biso   1.000  C
  C606     1.0000 0.70197  0.79995  0.73490  Biso   1.000  C
  C607     1.0000 0.71095  0.79404  0.54759  Biso   1.000  C
  H850     1.0000 0.69080  0.80241  0.78922  Biso   1.000  H
  C608     1.0000 0.72625  0.79842  0.76158  Biso   1.000  C
  C609     1.0000 0.73542  0.79330  0.57531  Biso   1.000  C
  C610     1.0000 0.70274  0.79156  0.43190  Biso   1.000  C
  C611     1.0000 0.73416  0.80133  0.87670  Biso   1.000  C
  C612     1.0000 0.74265  0.79587  0.68010  Biso   1.000  C
  H851     1.0000 0.74680  0.79102  0.52171  Biso   1.000  H
  C613     1.0000 0.70140  0.82174  0.37750  Biso   1.000  C
  H852     1.0000 0.68710  0.78211  0.42990  Biso   1.000  H
  H853     1.0000 0.71379  0.77870  0.39289  Biso   1.000  H
  C614     1.0000 0.73456  0.83431  0.90875  Biso   1.000  C
  H854     1.0000 0.72330  0.79032  0.92285  Biso   1.000  H
  H855     1.0000 0.75000  0.79271  0.88519  Biso   1.000  H
  O82      1.0000 0.76630  0.79648  0.70998  Biso   1.000  O
  C615     1.0000 0.72112  0.83422  0.32599  Biso   1.000  C
  C616     1.0000 0.68058  0.83864  0.38143  Biso   1.000  C
  C617     1.0000 0.75525  0.85150  0.88872  Biso   1.000  C
  C618     1.0000 0.71472  0.84877  0.95065  Biso   1.000  C
  C619     1.0000 0.78401  0.78680  0.64212  Biso   1.000  C
  O83      1.0000 0.74201  0.81703  0.32174  Biso   1.000  O
  C620     1.0000 0.71970  0.86248  0.27992  Biso   1.000  C
  C621     1.0000 0.67904  0.86731  0.33512  Biso   1.000  C
  H856     1.0000 0.66719  0.83070  0.41580  Biso   1.000  H
  C622     1.0000 0.75542  0.88236  0.90675  Biso   1.000  C
  H857     1.0000 0.76900  0.84200  0.86300  Biso   1.000  H
  O84      1.0000 0.69450  0.83106  0.96795  Biso   1.000  O
  C623     1.0000 0.71532  0.87956  0.96876  Biso   1.000  C
  H858     1.0000 0.78130  0.77960  0.57315  Biso   1.000  H
  C624     1.0000 0.80875  0.78930  0.69364  Biso   1.000  C
  C625     1.0000 0.75395  0.81567  0.22312  Biso   1.000  C
  C626     1.0000 0.69895  0.87972  0.28489  Biso   1.000  C
  H859     1.0000 0.73300  0.87020  0.24467  Biso   1.000  H
  O85      1.0000 0.65877  0.88445  0.33512  Biso   1.000  O
  O86      1.0000 0.77524  0.89993  0.88600  Biso   1.000  O
  C627     1.0000 0.73522  0.89664  0.94600  Biso   1.000  C
  C628     1.0000 0.67886  0.83974  0.04783  Biso   1.000  C
  H860     1.0000 0.70190  0.88901  0.99704  Biso   1.000  H
  C629     1.0000 0.82755  0.77960  0.61320  Biso   1.000  C
  C630     1.0000 0.80979  0.78281  0.81125  Biso   1.000  C
  H861     1.0000 0.74859  0.82670  0.16464  Biso   1.000  H
  C631     1.0000 0.77388  0.79751  0.21527  Biso   1.000  C
  C632     1.0000 0.69867  0.91096  0.23674  Biso   1.000  C
  C633     1.0000 0.63770  0.87275  0.38407  Biso   1.000  C
  C634     1.0000 0.79604  0.88599  0.84538  Biso   1.000  C
  C635     1.0000 0.73538  0.93075  0.96403  Biso   1.000  C
  C636     1.0000 0.66349  0.81182  0.08052  Biso   1.000  C
  H862     1.0000 0.67770  0.85901  0.07715  Biso   1.000  H
  H863     1.0000 0.82489  0.78980  0.54639  Biso   1.000  H
  H864     1.0000 0.84309  0.78481  0.63988  Biso   1.000  H
  H865     1.0000 0.82659  0.75822  0.60239  Biso   1.000  H
  H866     1.0000 0.80019  0.76541  0.82711  Biso   1.000  H
  H867     1.0000 0.82609  0.77881  0.83160  Biso   1.000  H
  H868     1.0000 0.80400  0.79991  0.85042  Biso   1.000  H
  C637     1.0000 0.78779  0.79970  0.11160  Biso   1.000  C
  C638     1.0000 0.78450  0.78240  0.29498  Biso   1.000  C
  C639     1.0000 0.70419  0.93476  0.31942  Biso   1.000  C
  H869     1.0000 0.68310  0.91491  0.20590  Biso   1.000  H
  H870     1.0000 0.71039  0.91200  0.17954  Biso   1.000  H
  H871     1.0000 0.63139  0.85621  0.34177  Biso   1.000  H
  H872     1.0000 0.64140  0.86521  0.45522  Biso   1.000  H
  C640     1.0000 0.61920  0.89788  0.39184  Biso   1.000  C
  C641     1.0000 0.81390  0.90959  0.81261  Biso   1.000  C
  H873     1.0000 0.80300  0.87311  0.89994  Biso   1.000  H
  H874     1.0000 0.79199  0.87360  0.78409  Biso   1.000  H
  C642     1.0000 0.73152  0.94845  0.86212  Biso   1.000  C
  H875     1.0000 0.75059  0.93650  0.99519  Biso   1.000  H
  H876     1.0000 0.72289  0.93591  0.01482  Biso   1.000  H
  C643     1.0000 0.64819  0.80110  0.98975  Biso   1.000  C
  H877     1.0000 0.65280  0.81820  0.13852  Biso   1.000  H
  C644     1.0000 0.67741  0.78741  0.11969  Biso   1.000  C
  H878     1.0000 0.78500  0.78190  0.06930  Biso   1.000  H
  H879     1.0000 0.78269  0.81712  0.07242  Biso   1.000  H
  H880     1.0000 0.80459  0.80130  0.12722  Biso   1.000  H
  H881     1.0000 0.77249  0.77471  0.34297  Biso   1.000  H
  H882     1.0000 0.79349  0.76591  0.26614  Biso   1.000  H
  H883     1.0000 0.79490  0.79580  0.33328  Biso   1.000  H
  C645     1.0000 0.72775  0.94329  0.34097  Biso   1.000  C
  C646     1.0000 0.68580  0.94793  0.37895  Biso   1.000  C
  H884     1.0000 0.62619  0.91462  0.43222  Biso   1.000  H
  C647     1.0000 0.59759  0.88712  0.45041  Biso   1.000  C
  C648     1.0000 0.61232  0.90940  0.28072  Biso   1.000  C
  H885     1.0000 0.80620  0.92260  0.75941  Biso   1.000  H
  C649     1.0000 0.83506  0.89416  0.75805  Biso   1.000  C
  C650     1.0000 0.82108  0.92930  0.90723  Biso   1.000  C
  C651     1.0000 0.75041  0.96233  0.80933  Biso   1.000  C
  C652     1.0000 0.70848  0.95245  0.81878  Biso   1.000  C
  H886     1.0000 0.65799  0.79111  0.93743  Biso   1.000  H
  H887     1.0000 0.64029  0.81800  0.95722  Biso   1.000  H
  H888     1.0000 0.63639  0.78720  0.01642  Biso   1.000  H
  H889     1.0000 0.68689  0.77920  0.06241  Biso   1.000  H
  H890     1.0000 0.68780  0.79440  0.17585  Biso   1.000  H
  H891     1.0000 0.66699  0.77200  0.14733  Biso   1.000  H
  O87      1.0000 0.74508  0.93016  0.27864  Biso   1.000  O
  C653     1.0000 0.73213  0.96418  0.42029  Biso   1.000  C
  H892     1.0000 0.67009  0.94232  0.36501  Biso   1.000  H
  C654     1.0000 0.69018  0.96907  0.45770  Biso   1.000  C
  H893     1.0000 0.60220  0.87990  0.51987  Biso   1.000  H
  H894     1.0000 0.58649  0.90352  0.45818  Biso   1.000  H
  H895     1.0000 0.59019  0.87110  0.41083  Biso   1.000  H
  H896     1.0000 0.60140  0.89542  0.24788  Biso   1.000  H
  H897     1.0000 0.60479  0.92871  0.28713  Biso   1.000  H
  H898     1.0000 0.62640  0.91112  0.23730  Biso   1.000  H
  H899     1.0000 0.82940  0.88170  0.70061  Biso   1.000  H
  H900     1.0000 0.84570  0.90920  0.72993  Biso   1.000  H
  H901     1.0000 0.84339  0.88191  0.80925  Biso   1.000  H
  H902     1.0000 0.82979  0.91741  0.95834  Biso   1.000  H
  H903     1.0000 0.83099  0.94550  0.88239  Biso   1.000  H
  H904     1.0000 0.80700  0.93740  0.94039  Biso   1.000  H
  C655     1.0000 0.74719  0.97864  0.71543  Biso   1.000  C
  H905     1.0000 0.76569  0.96061  0.83769  Biso   1.000  H
  O88      1.0000 0.69025  0.93821  0.87390  Biso   1.000  O
  C656     1.0000 0.70512  0.96912  0.72665  Biso   1.000  C
  C657     1.0000 0.76902  0.94029  0.29250  Biso   1.000  C
  C658     1.0000 0.71406  0.97715  0.48069  Biso   1.000  C
  H906     1.0000 0.74780  0.96982  0.43382  Biso   1.000  H
  O89      1.0000 0.67259  0.98306  0.51618  Biso   1.000  O
  O90      1.0000 0.76543  0.99262  0.65935  Biso   1.000  O
  C659     1.0000 0.72419  0.98252  0.67393  Biso   1.000  C
  C660     1.0000 0.66676  0.93880  0.82679  Biso   1.000  C
  H907     1.0000 0.68980  0.97142  0.69933  Biso   1.000  H
  H908     1.0000 0.76929  0.96221  0.29354  Biso   1.000  H
  H909     1.0000 0.77509  0.93311  0.36084  Biso   1.000  H
  C661     1.0000 0.78501  0.92883  0.20269  Biso   1.000  C
  C662     1.0000 0.71972  0.99912  0.56938  Biso   1.000  C
  C663     1.0000 0.64903  0.97171  0.50713  Biso   1.000  C
  C664     1.0000 0.78927  0.98734  0.69588  Biso   1.000  C
  H910     1.0000 0.66010  0.95890  0.83168  Biso   1.000  H
  H911     1.0000 0.66769  0.93320  0.75172  Biso   1.000  H
  C665     1.0000 0.65125  0.91674  0.88664  Biso   1.000  C
  H912     1.0000 0.77988  0.93862  0.13620  Biso   1.000  H
  C666     1.0000 0.81015  0.93911  0.22681  Biso   1.000  C
  C667     1.0000 0.78325  0.89508  0.18619  Biso   1.000  C
  H913     1.0000 0.73379  0.01081  0.55039  Biso   1.000  H
  H914     1.0000 0.70650  0.01302  0.57843  Biso   1.000  H
  H915     1.0000 0.64340  0.97410  0.43398  Biso   1.000  H
  H916     1.0000 0.64889  0.95042  0.52427  Biso   1.000  H
  C668     1.0000 0.63271  0.98850  0.58260  Biso   1.000  C
  H917     1.0000 0.79140  0.99601  0.76662  Biso   1.000  H
  H918     1.0000 0.79220  0.96580  0.70061  Biso   1.000  H
  C669     1.0000 0.80661  0.00153  0.61873  Biso   1.000  C
  H919     1.0000 0.65920  0.89711  0.88479  Biso   1.000  H
  C670     1.0000 0.62767  0.91365  0.82783  Biso   1.000  C
  C671     1.0000 0.64780  0.92520  0.00168  Biso   1.000  C
  H920     1.0000 0.82049  0.93381  0.16832  Biso   1.000  H
  H921     1.0000 0.81029  0.96061  0.23642  Biso   1.000  H
  H922     1.0000 0.81569  0.92950  0.29114  Biso   1.000  H
  H923     1.0000 0.76680  0.88960  0.17521  Biso   1.000  H
  H924     1.0000 0.79249  0.88942  0.12474  Biso   1.000  H
  H925     1.0000 0.78929  0.88491  0.24844  Biso   1.000  H
  H926     1.0000 0.63890  0.98631  0.65574  Biso   1.000  H
  C672     1.0000 0.60796  0.97501  0.57787  Biso   1.000  C
  C673     1.0000 0.63191  0.02227  0.55432  Biso   1.000  C
  C674     1.0000 0.83179  0.99711  0.66311  Biso   1.000  C
  C675     1.0000 0.80446  0.98978  0.50697  Biso   1.000  C
  H927     1.0000 0.80339  0.02321  0.61689  Biso   1.000  H
  H928     1.0000 0.63050  0.90521  0.75813  Biso   1.000  H
  H929     1.0000 0.61720  0.90061  0.86765  Biso   1.000  H
  H930     1.0000 0.62040  0.93311  0.82054  Biso   1.000  H
  H931     1.0000 0.63999  0.94442  0.00593  Biso   1.000  H
  H932     1.0000 0.63820  0.91022  0.03653  Biso   1.000  H
  H933     1.0000 0.66310  0.92641  0.03653  Biso   1.000  H
  H934     1.0000 0.60860  0.95421  0.59942  Biso   1.000  H
  H935     1.0000 0.59750  0.98590  0.62530  Biso   1.000  H
  H936     1.0000 0.60199  0.97631  0.50601  Biso   1.000  H
  H937     1.0000 0.62519  0.02481  0.48398  Biso   1.000  H
  H938     1.0000 0.62220  0.03271  0.60559  Biso   1.000  H
  H939     1.0000 0.64780  0.03041  0.55560  Biso   1.000  H
  H940     1.0000 0.83460  0.97600  0.67537  Biso   1.000  H
  H941     1.0000 0.84330  0.00460  0.61240  Biso   1.000  H
  H942     1.0000 0.83340  0.00792  0.72945  Biso   1.000  H
  H943     1.0000 0.78889  0.99461  0.47917  Biso   1.000  H
  H944     1.0000 0.81649  0.99892  0.46283  Biso   1.000  H
  H945     1.0000 0.80650  0.96831  0.50721  Biso   1.000  H
  C676     1.0000 0.37991  0.22189  0.60351  Biso   1.000  C
  C677     1.0000 0.37111  0.19202  0.63684  Biso   1.000  C
  H946     1.0000 0.38139  0.23470  0.66520  Biso   1.000  H
  H947     1.0000 0.39530  0.21970  0.56994  Biso   1.000  H
  H948     1.0000 0.36890  0.23071  0.55368  Biso   1.000  H
  C678     1.0000 0.34629  0.19339  0.68555  Biso   1.000  C
  H949     1.0000 0.37040  0.17900  0.57339  Biso   1.000  H
  C679     1.0000 0.38784  0.17742  0.71823  Biso   1.000  C
  O91      1.0000 0.32957  0.20070  0.59998  Biso   1.000  O
  H950     1.0000 0.34570  0.20871  0.74091  Biso   1.000  H
  H951     1.0000 0.34219  0.17411  0.71727  Biso   1.000  H
  H952     1.0000 0.38200  0.15771  0.73642  Biso   1.000  H
  H953     1.0000 0.40350  0.17571  0.68795  Biso   1.000  H
  H954     1.0000 0.38850  0.18970  0.78153  Biso   1.000  H
  C680     1.0000 0.30569  0.20210  0.63075  Biso   1.000  C
  C681     1.0000 0.28904  0.20598  0.54759  Biso   1.000  C
  C682     1.0000 0.29801  0.20005  0.73490  Biso   1.000  C
  C683     1.0000 0.29724  0.20844  0.43190  Biso   1.000  C
  C684     1.0000 0.26457  0.20670  0.57531  Biso   1.000  C
  H955     1.0000 0.30920  0.19759  0.78922  Biso   1.000  H
  C685     1.0000 0.27374  0.20158  0.76158  Biso   1.000  C
  C686     1.0000 0.29858  0.17828  0.37750  Biso   1.000  C
  H956     1.0000 0.31290  0.21789  0.42990  Biso   1.000  H
  H957     1.0000 0.28619  0.22130  0.39289  Biso   1.000  H
  H958     1.0000 0.25320  0.20901  0.52171  Biso   1.000  H
  C687     1.0000 0.25735  0.20416  0.68010  Biso   1.000  C
  C688     1.0000 0.26584  0.19867  0.87670  Biso   1.000  C
  C689     1.0000 0.27887  0.16578  0.32599  Biso   1.000  C
  C690     1.0000 0.31942  0.16138  0.38143  Biso   1.000  C
  O92      1.0000 0.23368  0.20352  0.70998  Biso   1.000  O
  C691     1.0000 0.26543  0.16569  0.90875  Biso   1.000  C
  H959     1.0000 0.27670  0.20970  0.92285  Biso   1.000  H
  H960     1.0000 0.25000  0.20729  0.88519  Biso   1.000  H
  O93      1.0000 0.25797  0.18297  0.32174  Biso   1.000  O
  C692     1.0000 0.28030  0.13752  0.27992  Biso   1.000  C
  C693     1.0000 0.32096  0.13271  0.33512  Biso   1.000  C
  H961     1.0000 0.33279  0.16930  0.41580  Biso   1.000  H
  C694     1.0000 0.21599  0.21320  0.64212  Biso   1.000  C
  C695     1.0000 0.24475  0.14850  0.88872  Biso   1.000  C
  C696     1.0000 0.28526  0.15126  0.95065  Biso   1.000  C
  C697     1.0000 0.24605  0.18433  0.22312  Biso   1.000  C
  C698     1.0000 0.30105  0.12030  0.28489  Biso   1.000  C
  H962     1.0000 0.26700  0.12980  0.24467  Biso   1.000  H
  O94      1.0000 0.34123  0.11557  0.33512  Biso   1.000  O
  H963     1.0000 0.21870  0.22040  0.57315  Biso   1.000  H
  C699     1.0000 0.19125  0.21070  0.69364  Biso   1.000  C
  C700     1.0000 0.24457  0.11764  0.90675  Biso   1.000  C
  H964     1.0000 0.23100  0.15800  0.86300  Biso   1.000  H
  O95      1.0000 0.30548  0.16896  0.96795  Biso   1.000  O
  C701     1.0000 0.28468  0.12044  0.96876  Biso   1.000  C
  C702     1.0000 0.22612  0.20251  0.21527  Biso   1.000  C
  H965     1.0000 0.25139  0.17330  0.16464  Biso   1.000  H
  C703     1.0000 0.30132  0.08904  0.23674  Biso   1.000  C
  C704     1.0000 0.36230  0.12725  0.38407  Biso   1.000  C
  C705     1.0000 0.17243  0.22040  0.61320  Biso   1.000  C
  C706     1.0000 0.19019  0.21719  0.81125  Biso   1.000  C
  O96      1.0000 0.22474  0.10007  0.88600  Biso   1.000  O
  C707     1.0000 0.26476  0.10336  0.94600  Biso   1.000  C
  C708     1.0000 0.32114  0.16028  0.04783  Biso   1.000  C
  H966     1.0000 0.29810  0.11101  0.99704  Biso   1.000  H
  C709     1.0000 0.21220  0.20030  0.11160  Biso   1.000  C
  C710     1.0000 0.21550  0.21760  0.29498  Biso   1.000  C
  C711     1.0000 0.29579  0.06524  0.31942  Biso   1.000  C
  H967     1.0000 0.31690  0.08509  0.20590  Biso   1.000  H
  H968     1.0000 0.28959  0.08800  0.17954  Biso   1.000  H
  H969     1.0000 0.36859  0.14381  0.34177  Biso   1.000  H
  H970     1.0000 0.35860  0.13481  0.45522  Biso   1.000  H
  C712     1.0000 0.38080  0.10212  0.39184  Biso   1.000  C
  H971     1.0000 0.17509  0.21020  0.54639  Biso   1.000  H
  H972     1.0000 0.15690  0.21521  0.63988  Biso   1.000  H
  H973     1.0000 0.17339  0.24181  0.60239  Biso   1.000  H
  H974     1.0000 0.19979  0.23461  0.82711  Biso   1.000  H
  H975     1.0000 0.17389  0.22121  0.83160  Biso   1.000  H
  H976     1.0000 0.19600  0.20009  0.85042  Biso   1.000  H
  C713     1.0000 0.20394  0.11401  0.84538  Biso   1.000  C
  C714     1.0000 0.26462  0.06928  0.96403  Biso   1.000  C
  C715     1.0000 0.33649  0.18818  0.08052  Biso   1.000  C
  H977     1.0000 0.32230  0.14099  0.07715  Biso   1.000  H
  H978     1.0000 0.21500  0.21810  0.06930  Biso   1.000  H
  H979     1.0000 0.21729  0.18291  0.07242  Biso   1.000  H
  H980     1.0000 0.19540  0.19870  0.12722  Biso   1.000  H
  H981     1.0000 0.22750  0.22529  0.34297  Biso   1.000  H
  H982     1.0000 0.20650  0.23411  0.26614  Biso   1.000  H
  H983     1.0000 0.20510  0.20420  0.33328  Biso   1.000  H
  C716     1.0000 0.27223  0.05671  0.34097  Biso   1.000  C
  C717     1.0000 0.31418  0.05209  0.37895  Biso   1.000  C
  H984     1.0000 0.37379  0.08541  0.43222  Biso   1.000  H
  C718     1.0000 0.40241  0.11291  0.45041  Biso   1.000  C
  C719     1.0000 0.38768  0.09060  0.28072  Biso   1.000  C
  C720     1.0000 0.18610  0.09044  0.81261  Biso   1.000  C
  H985     1.0000 0.19700  0.12689  0.89994  Biso   1.000  H
  H986     1.0000 0.20800  0.12640  0.78409  Biso   1.000  H
  C721     1.0000 0.26846  0.05155  0.86212  Biso   1.000  C
  H987     1.0000 0.24939  0.06350  0.99519  Biso   1.000  H
  H988     1.0000 0.27710  0.06411  0.01482  Biso   1.000  H
  C722     1.0000 0.35179  0.19890  0.98975  Biso   1.000  C
  H989     1.0000 0.34720  0.18180  0.13852  Biso   1.000  H
  C723     1.0000 0.32259  0.21259  0.11969  Biso   1.000  C
  O97      1.0000 0.25490  0.06984  0.27864  Biso   1.000  O
  C724     1.0000 0.26787  0.03582  0.42029  Biso   1.000  C
  H990     1.0000 0.32990  0.05770  0.36501  Biso   1.000  H
  C725     1.0000 0.30981  0.03095  0.45770  Biso   1.000  C
  H991     1.0000 0.39780  0.12010  0.51987  Biso   1.000  H
  H992     1.0000 0.41349  0.09651  0.45818  Biso   1.000  H
  H993     1.0000 0.40979  0.12890  0.41083  Biso   1.000  H
  H994     1.0000 0.39860  0.10460  0.24788  Biso   1.000  H
  H995     1.0000 0.39519  0.07131  0.28713  Biso   1.000  H
  H996     1.0000 0.37360  0.08890  0.23730  Biso   1.000  H
  H997     1.0000 0.19380  0.07740  0.75941  Biso   1.000  H
  C726     1.0000 0.16492  0.10584  0.75805  Biso   1.000  C
  C727     1.0000 0.17890  0.07072  0.90723  Biso   1.000  C
  C728     1.0000 0.24957  0.03770  0.80933  Biso   1.000  C
  C729     1.0000 0.29150  0.04755  0.81878  Biso   1.000  C
  H998     1.0000 0.34200  0.20889  0.93743  Biso   1.000  H
  H999     1.0000 0.35969  0.18200  0.95722  Biso   1.000  H
  H1000    1.0000 0.36361  0.21280  0.01642  Biso   1.000  H
  H1001    1.0000 0.31309  0.22080  0.06241  Biso   1.000  H
  H1002    1.0000 0.31220  0.20560  0.17585  Biso   1.000  H
  H1003    1.0000 0.33301  0.22800  0.14733  Biso   1.000  H
  C730     1.0000 0.23096  0.05971  0.29250  Biso   1.000  C
  C731     1.0000 0.28594  0.02287  0.48069  Biso   1.000  C
  H1004    1.0000 0.25220  0.03021  0.43382  Biso   1.000  H
  O98      1.0000 0.32741  0.01694  0.51618  Biso   1.000  O
  H1005    1.0000 0.17060  0.11830  0.70061  Biso   1.000  H
  H1006    1.0000 0.15430  0.09080  0.72993  Biso   1.000  H
  H1007    1.0000 0.15659  0.11809  0.80925  Biso   1.000  H
  H1008    1.0000 0.17019  0.08261  0.95834  Biso   1.000  H
  H1009    1.0000 0.16900  0.05450  0.88239  Biso   1.000  H
  H1010    1.0000 0.19300  0.06260  0.94039  Biso   1.000  H
  C732     1.0000 0.25281  0.02139  0.71543  Biso   1.000  C
  H1011    1.0000 0.23429  0.03941  0.83769  Biso   1.000  H
  C733     1.0000 0.29486  0.03088  0.72665  Biso   1.000  C
  O99      1.0000 0.30973  0.06179  0.87390  Biso   1.000  O
  H1012    1.0000 0.23070  0.03781  0.29354  Biso   1.000  H
  H1013    1.0000 0.22491  0.06691  0.36084  Biso   1.000  H
  C734     1.0000 0.21499  0.07117  0.20269  Biso   1.000  C
  C735     1.0000 0.28026  0.00088  0.56938  Biso   1.000  C
  C736     1.0000 0.35095  0.02829  0.50713  Biso   1.000  C
  C737     1.0000 0.27579  0.01751  0.67393  Biso   1.000  C
  O100     1.0000 0.23456  0.00740  0.65935  Biso   1.000  O
  H1014    1.0000 0.31020  0.02860  0.69933  Biso   1.000  H
  C738     1.0000 0.33322  0.06120  0.82679  Biso   1.000  C
  H1015    1.0000 0.22010  0.06140  0.13620  Biso   1.000  H
  C739     1.0000 0.18984  0.06089  0.22681  Biso   1.000  C
  C740     1.0000 0.21675  0.10492  0.18619  Biso   1.000  C
  H1016    1.0000 0.26619  0.98919  0.55039  Biso   1.000  H
  H1017    1.0000 0.29350  0.98701  0.57843  Biso   1.000  H
  H1018    1.0000 0.35660  0.02590  0.43398  Biso   1.000  H
  H1019    1.0000 0.35109  0.04961  0.52427  Biso   1.000  H
  C741     1.0000 0.36727  0.01150  0.58260  Biso   1.000  C
  C742     1.0000 0.21073  0.01266  0.69588  Biso   1.000  C
  H1020    1.0000 0.33990  0.04110  0.83168  Biso   1.000  H
  H1021    1.0000 0.33229  0.06680  0.75172  Biso   1.000  H
  C743     1.0000 0.34875  0.08326  0.88664  Biso   1.000  C
  H1022    1.0000 0.17951  0.06621  0.16832  Biso   1.000  H
  H1023    1.0000 0.18969  0.03941  0.23642  Biso   1.000  H
  H1024    1.0000 0.18430  0.07050  0.29114  Biso   1.000  H
  H1025    1.0000 0.23320  0.11040  0.17521  Biso   1.000  H
  H1026    1.0000 0.20750  0.11060  0.12474  Biso   1.000  H
  H1027    1.0000 0.21070  0.11509  0.24844  Biso   1.000  H
  H1028    1.0000 0.36110  0.01369  0.65574  Biso   1.000  H
  C744     1.0000 0.39204  0.02502  0.57787  Biso   1.000  C
  C745     1.0000 0.36809  0.97773  0.55432  Biso   1.000  C
  H1029    1.0000 0.20860  0.00399  0.76662  Biso   1.000  H
  H1030    1.0000 0.20780  0.03420  0.70061  Biso   1.000  H
  C746     1.0000 0.19338  0.99849  0.61873  Biso   1.000  C
  H1031    1.0000 0.34080  0.10289  0.88479  Biso   1.000  H
  C747     1.0000 0.37231  0.08638  0.82783  Biso   1.000  C
  C748     1.0000 0.35218  0.07480  0.00168  Biso   1.000  C
  H1032    1.0000 0.39140  0.04579  0.59942  Biso   1.000  H
  H1033    1.0000 0.40250  0.01410  0.62530  Biso   1.000  H
  H1034    1.0000 0.39799  0.02371  0.50601  Biso   1.000  H
  H1035    1.0000 0.37479  0.97521  0.48398  Biso   1.000  H
  H1036    1.0000 0.37780  0.96729  0.60559  Biso   1.000  H
  H1037    1.0000 0.35220  0.96959  0.55560  Biso   1.000  H
  C749     1.0000 0.16819  0.00291  0.66311  Biso   1.000  C
  C750     1.0000 0.19554  0.01022  0.50697  Biso   1.000  C
  H1038    1.0000 0.19659  0.97681  0.61689  Biso   1.000  H
  H1039    1.0000 0.36950  0.09479  0.75813  Biso   1.000  H
  H1040    1.0000 0.38280  0.09939  0.86765  Biso   1.000  H
  H1041    1.0000 0.37960  0.06691  0.82054  Biso   1.000  H
  H1042    1.0000 0.35999  0.05561  0.00593  Biso   1.000  H
  H1043    1.0000 0.36180  0.08981  0.03653  Biso   1.000  H
  H1044    1.0000 0.33690  0.07361  0.03653  Biso   1.000  H
  H1045    1.0000 0.16540  0.02400  0.67537  Biso   1.000  H
  H1046    1.0000 0.15670  0.99540  0.61240  Biso   1.000  H
  H1047    1.0000 0.16660  0.99210  0.72945  Biso   1.000  H
  H1048    1.0000 0.21111  0.00539  0.47917  Biso   1.000  H
  H1049    1.0000 0.18349  0.00111  0.46283  Biso   1.000  H
  H1050    1.0000 0.19350  0.03169  0.50721  Biso   1.000  H
  C751     1.0000 0.67243  0.22040  0.11320  Biso   1.000  C
  H1051    1.0000 0.67509  0.21020  0.04639  Biso   1.000  H
  H1052    1.0000 0.65690  0.21521  0.13988  Biso   1.000  H
  H1053    1.0000 0.67339  0.24181  0.10239  Biso   1.000  H
  C752     1.0000 0.69125  0.21070  0.19364  Biso   1.000  C
  C753     1.0000 0.71597  0.21320  0.14212  Biso   1.000  C
  C754     1.0000 0.69019  0.21719  0.31117  Biso   1.000  C
  O101     1.0000 0.73368  0.20352  0.20998  Biso   1.000  O
  H1054    1.0000 0.71869  0.22040  0.07307  Biso   1.000  H
  H1055    1.0000 0.69979  0.23461  0.32711  Biso   1.000  H
  H1056    1.0000 0.67389  0.22121  0.33160  Biso   1.000  H
  H1057    1.0000 0.69599  0.20009  0.35042  Biso   1.000  H
  C755     1.0000 0.75733  0.20416  0.18010  Biso   1.000  C
  C756     1.0000 0.77374  0.20158  0.26158  Biso   1.000  C
  C757     1.0000 0.76457  0.20670  0.07531  Biso   1.000  C
  C758     1.0000 0.79801  0.20005  0.23490  Biso   1.000  C
  C759     1.0000 0.76582  0.19867  0.37670  Biso   1.000  C
  H1058    1.0000 0.75320  0.20901  0.02171  Biso   1.000  H
  C760     1.0000 0.78904  0.20598  0.04759  Biso   1.000  C
  H1059    1.0000 0.80920  0.19759  0.28922  Biso   1.000  H
  C761     1.0000 0.80569  0.20210  0.13067  Biso   1.000  C
  C762     1.0000 0.76543  0.16569  0.40867  Biso   1.000  C
  H1060    1.0000 0.77669  0.20970  0.42277  Biso   1.000  H
  H1061    1.0000 0.75000  0.20729  0.38519  Biso   1.000  H
  C763     1.0000 0.79724  0.20844  0.93190  Biso   1.000  C
  O102     1.0000 0.82957  0.20070  0.09998  Biso   1.000  O
  C764     1.0000 0.74473  0.14850  0.38872  Biso   1.000  C
  C765     1.0000 0.78526  0.15126  0.45057  Biso   1.000  C
  C766     1.0000 0.79858  0.17828  0.87750  Biso   1.000  C
  H1062    1.0000 0.81290  0.21789  0.92990  Biso   1.000  H
  H1063    1.0000 0.78619  0.22130  0.89289  Biso   1.000  H
  C767     1.0000 0.84627  0.19339  0.18547  Biso   1.000  C
  C768     1.0000 0.74457  0.11764  0.40675  Biso   1.000  C
  H1064    1.0000 0.73100  0.15800  0.36300  Biso   1.000  H
  O103     1.0000 0.80548  0.16896  0.46787  Biso   1.000  O
  C769     1.0000 0.78466  0.12044  0.46867  Biso   1.000  C
  C770     1.0000 0.77887  0.16578  0.82599  Biso   1.000  C
  C771     1.0000 0.81942  0.16138  0.88143  Biso   1.000  C
  C772     1.0000 0.87111  0.19202  0.13684  Biso   1.000  C
  H1065    1.0000 0.84570  0.20871  0.24091  Biso   1.000  H
  H1066    1.0000 0.84219  0.17411  0.21727  Biso   1.000  H
  O104     1.0000 0.72474  0.10007  0.38600  Biso   1.000  O
  C773     1.0000 0.76476  0.10336  0.44600  Biso   1.000  C
  C774     1.0000 0.82114  0.16028  0.54783  Biso   1.000  C
  H1067    1.0000 0.79810  0.11101  0.49704  Biso   1.000  H
  O105     1.0000 0.75797  0.18297  0.82166  Biso   1.000  O
  C775     1.0000 0.78028  0.13752  0.77992  Biso   1.000  C
  C776     1.0000 0.82096  0.13271  0.83512  Biso   1.000  C
  H1068    1.0000 0.83279  0.16930  0.91580  Biso   1.000  H
  H1069    1.0000 0.87040  0.17900  0.07339  Biso   1.000  H
  C777     1.0000 0.87991  0.22189  0.10351  Biso   1.000  C
  C778     1.0000 0.88782  0.17742  0.21823  Biso   1.000  C
  C779     1.0000 0.70394  0.11401  0.34538  Biso   1.000  C
  C780     1.0000 0.76462  0.06928  0.46403  Biso   1.000  C
  C781     1.0000 0.83649  0.18818  0.58052  Biso   1.000  C
  H1070    1.0000 0.82230  0.14099  0.57707  Biso   1.000  H
  C782     1.0000 0.74605  0.18433  0.72312  Biso   1.000  C
  C783     1.0000 0.80105  0.12030  0.78489  Biso   1.000  C
  H1071    1.0000 0.76700  0.12980  0.74467  Biso   1.000  H
  O106     1.0000 0.84123  0.11557  0.83512  Biso   1.000  O
  H1072    1.0000 0.88139  0.23470  0.16520  Biso   1.000  H
  H1073    1.0000 0.89530  0.21970  0.06994  Biso   1.000  H
  H1074    1.0000 0.86890  0.23071  0.05368  Biso   1.000  H
  H1075    1.0000 0.88200  0.15771  0.23642  Biso   1.000  H
  H1076    1.0000 0.90350  0.17571  0.18787  Biso   1.000  H
  H1077    1.0000 0.88849  0.18970  0.28153  Biso   1.000  H
  C784     1.0000 0.68610  0.09044  0.31261  Biso   1.000  C
  H1078    1.0000 0.69699  0.12689  0.39994  Biso   1.000  H
  H1079    1.0000 0.70800  0.12640  0.28409  Biso   1.000  H
  C785     1.0000 0.76846  0.05155  0.36212  Biso   1.000  C
  H1080    1.0000 0.74939  0.06350  0.49519  Biso   1.000  H
  H1081    1.0000 0.77710  0.06411  0.51482  Biso   1.000  H
  H1082    1.0000 0.84720  0.18180  0.63852  Biso   1.000  H
  C786     1.0000 0.85179  0.19890  0.48975  Biso   1.000  C
  C787     1.0000 0.82257  0.21259  0.61969  Biso   1.000  C
  H1083    1.0000 0.75139  0.17330  0.66456  Biso   1.000  H
  C788     1.0000 0.72612  0.20251  0.71527  Biso   1.000  C
  C789     1.0000 0.80132  0.08904  0.73666  Biso   1.000  C
  C790     1.0000 0.86230  0.12725  0.88407  Biso   1.000  C
  H1084    1.0000 0.69379  0.07740  0.25941  Biso   1.000  H
  C791     1.0000 0.66492  0.10584  0.25797  Biso   1.000  C
  C792     1.0000 0.67890  0.07072  0.40723  Biso   1.000  C
  C793     1.0000 0.74957  0.03770  0.30933  Biso   1.000  C
  C794     1.0000 0.79150  0.04755  0.31878  Biso   1.000  C
  H1085    1.0000 0.84200  0.20889  0.43743  Biso   1.000  H
  H1086    1.0000 0.86359  0.21280  0.51642  Biso   1.000  H
  H1087    1.0000 0.85969  0.18200  0.45722  Biso   1.000  H
  H1088    1.0000 0.81309  0.22080  0.56241  Biso   1.000  H
  H1089    1.0000 0.81220  0.20560  0.67577  Biso   1.000  H
  H1090    1.0000 0.83299  0.22800  0.64733  Biso   1.000  H
  C795     1.0000 0.71220  0.20030  0.61160  Biso   1.000  C
  C796     1.0000 0.71549  0.21760  0.79498  Biso   1.000  C
  C797     1.0000 0.79579  0.06524  0.81942  Biso   1.000  C
  H1091    1.0000 0.81690  0.08509  0.70590  Biso   1.000  H
  H1092    1.0000 0.78959  0.08800  0.67946  Biso   1.000  H
  H1093    1.0000 0.86859  0.14381  0.84177  Biso   1.000  H
  H1094    1.0000 0.85860  0.13481  0.95522  Biso   1.000  H
  C798     1.0000 0.88080  0.10212  0.89176  Biso   1.000  C
  H1095    1.0000 0.67059  0.11830  0.20061  Biso   1.000  H
  H1096    1.0000 0.65429  0.09080  0.22993  Biso   1.000  H
  H1097    1.0000 0.65659  0.11809  0.30917  Biso   1.000  H
  H1098    1.0000 0.67019  0.08261  0.45834  Biso   1.000  H
  H1099    1.0000 0.66900  0.05450  0.38239  Biso   1.000  H
  H1100    1.0000 0.69300  0.06260  0.44039  Biso   1.000  H
  C799     1.0000 0.75279  0.02139  0.21543  Biso   1.000  C
  H1101    1.0000 0.73429  0.03941  0.33769  Biso   1.000  H
  O107     1.0000 0.80973  0.06179  0.37390  Biso   1.000  O
  C800     1.0000 0.79486  0.03088  0.22657  Biso   1.000  C
  H1102    1.0000 0.71499  0.21810  0.56930  Biso   1.000  H
  H1103    1.0000 0.71729  0.18291  0.57242  Biso   1.000  H
  H1104    1.0000 0.69540  0.19870  0.62722  Biso   1.000  H
  H1105    1.0000 0.72750  0.22529  0.84297  Biso   1.000  H
  H1106    1.0000 0.70650  0.23411  0.76606  Biso   1.000  H
  H1107    1.0000 0.70510  0.20420  0.83328  Biso   1.000  H
  C801     1.0000 0.77223  0.05671  0.84097  Biso   1.000  C
  C802     1.0000 0.81418  0.05209  0.87887  Biso   1.000  C
  H1108    1.0000 0.87379  0.08541  0.93222  Biso   1.000  H
  C803     1.0000 0.90241  0.11291  0.95041  Biso   1.000  C
  C804     1.0000 0.88766  0.09060  0.78072  Biso   1.000  C
  O108     1.0000 0.73456  0.00740  0.15927  Biso   1.000  O
  C805     1.0000 0.77579  0.01751  0.17393  Biso   1.000  C
  C806     1.0000 0.83322  0.06120  0.32679  Biso   1.000  C
  H1109    1.0000 0.81020  0.02860  0.19933  Biso   1.000  H
  O109     1.0000 0.75490  0.06984  0.77856  Biso   1.000  O
  C807     1.0000 0.76786  0.03582  0.92029  Biso   1.000  C
  H1110    1.0000 0.82990  0.05770  0.86501  Biso   1.000  H
  C808     1.0000 0.80981  0.03095  0.95770  Biso   1.000  C
  H1111    1.0000 0.89780  0.12010  0.01987  Biso   1.000  H
  H1112    1.0000 0.91349  0.09651  0.95818  Biso   1.000  H
  H1113    1.0000 0.90979  0.12890  0.91083  Biso   1.000  H
  H1114    1.0000 0.89858  0.10460  0.74788  Biso   1.000  H
  H1115    1.0000 0.89519  0.07131  0.78713  Biso   1.000  H
  H1116    1.0000 0.87360  0.08890  0.73730  Biso   1.000  H
  C809     1.0000 0.71073  0.01266  0.19588  Biso   1.000  C
  C810     1.0000 0.78026  0.00088  0.06938  Biso   1.000  C
  H1117    1.0000 0.83989  0.04110  0.33168  Biso   1.000  H
  H1118    1.0000 0.83229  0.06680  0.25172  Biso   1.000  H
  C811     1.0000 0.84873  0.08326  0.38664  Biso   1.000  C
  C812     1.0000 0.73096  0.05971  0.79250  Biso   1.000  C
  C813     1.0000 0.78593  0.02287  0.98069  Biso   1.000  C
  H1119    1.0000 0.75220  0.03021  0.93382  Biso   1.000  H
  O110     1.0000 0.82741  0.01694  0.01618  Biso   1.000  O
  H1120    1.0000 0.70859  0.00399  0.26662  Biso   1.000  H
  H1121    1.0000 0.70780  0.03420  0.20061  Biso   1.000  H
  C814     1.0000 0.69338  0.99849  0.11873  Biso   1.000  C
  H1122    1.0000 0.76619  0.98919  0.05039  Biso   1.000  H
  H1123    1.0000 0.79349  0.98701  0.07843  Biso   1.000  H
  H1124    1.0000 0.84080  0.10289  0.38479  Biso   1.000  H
  C815     1.0000 0.85218  0.07480  0.50168  Biso   1.000  C
  C816     1.0000 0.87231  0.08638  0.32783  Biso   1.000  C
  H1125    1.0000 0.73070  0.03781  0.79346  Biso   1.000  H
  H1126    1.0000 0.72489  0.06691  0.86076  Biso   1.000  H
  C817     1.0000 0.71497  0.07117  0.70269  Biso   1.000  C
  C818     1.0000 0.85095  0.02829  0.00713  Biso   1.000  C
  C819     1.0000 0.66819  0.00291  0.16311  Biso   1.000  C
  C820     1.0000 0.69554  0.01022  0.00697  Biso   1.000  C
  H1127    1.0000 0.69659  0.97681  0.11689  Biso   1.000  H
  H1128    1.0000 0.85999  0.05561  0.50593  Biso   1.000  H
  H1129    1.0000 0.86180  0.08981  0.53653  Biso   1.000  H
  H1130    1.0000 0.83688  0.07361  0.53653  Biso   1.000  H
  H1131    1.0000 0.86949  0.09479  0.25813  Biso   1.000  H
  H1132    1.0000 0.88278  0.09939  0.36757  Biso   1.000  H
  H1133    1.0000 0.87958  0.06691  0.32054  Biso   1.000  H
  H1134    1.0000 0.72010  0.06140  0.63620  Biso   1.000  H
  C821     1.0000 0.68984  0.06089  0.72681  Biso   1.000  C
  C822     1.0000 0.71674  0.10492  0.68619  Biso   1.000  C
  H1135    1.0000 0.85109  0.04961  0.02427  Biso   1.000  H
  C823     1.0000 0.86727  0.01150  0.08260  Biso   1.000  C
  H1136    1.0000 0.85660  0.02590  0.93398  Biso   1.000  H
  H1137    1.0000 0.66539  0.02400  0.17537  Biso   1.000  H
  H1138    1.0000 0.65670  0.99540  0.11240  Biso   1.000  H
  H1139    1.0000 0.66660  0.99210  0.22937  Biso   1.000  H
  H1140    1.0000 0.69350  0.03169  0.00721  Biso   1.000  H
  H1141    1.0000 0.71109  0.00539  0.97917  Biso   1.000  H
  H1142    1.0000 0.68349  0.00111  0.96283  Biso   1.000  H
  H1143    1.0000 0.67949  0.06621  0.66832  Biso   1.000  H
  H1144    1.0000 0.68969  0.03941  0.73642  Biso   1.000  H
  H1145    1.0000 0.68430  0.07050  0.79106  Biso   1.000  H
  H1146    1.0000 0.73320  0.11040  0.67521  Biso   1.000  H
  H1147    1.0000 0.70750  0.11060  0.62466  Biso   1.000  H
  H1148    1.0000 0.71070  0.11509  0.74836  Biso   1.000  H
  H1149    1.0000 0.86109  0.01369  0.15566  Biso   1.000  H
  C824     1.0000 0.89202  0.02502  0.07787  Biso   1.000  C
  C825     1.0000 0.86807  0.97773  0.05432  Biso   1.000  C
  H1150    1.0000 0.89140  0.04579  0.09942  Biso   1.000  H
  H1151    1.0000 0.90250  0.01410  0.12530  Biso   1.000  H
  H1152    1.0000 0.89799  0.02371  0.00601  Biso   1.000  H
  H1153    1.0000 0.87479  0.97521  0.98398  Biso   1.000  H
  H1154    1.0000 0.87780  0.96729  0.10559  Biso   1.000  H
  H1155    1.0000 0.85218  0.96959  0.05560  Biso   1.000  H
  C826     1.0000 0.32757  0.77960  0.11320  Biso   1.000  C
  C827     1.0000 0.30875  0.78930  0.19364  Biso   1.000  C
  H1156    1.0000 0.32489  0.78980  0.04639  Biso   1.000  H
  H1157    1.0000 0.34310  0.78481  0.13988  Biso   1.000  H
  H1158    1.0000 0.32659  0.75822  0.10239  Biso   1.000  H
  C828     1.0000 0.30981  0.78281  0.31117  Biso   1.000  C
  C829     1.0000 0.28401  0.78680  0.14212  Biso   1.000  C
  H1159    1.0000 0.30019  0.76541  0.32711  Biso   1.000  H
  H1160    1.0000 0.32609  0.77881  0.33160  Biso   1.000  H
  H1161    1.0000 0.30400  0.79991  0.35042  Biso   1.000  H
  O111     1.0000 0.26630  0.79648  0.20998  Biso   1.000  O
  H1162    1.0000 0.28130  0.77960  0.07307  Biso   1.000  H
  C830     1.0000 0.24265  0.79587  0.18010  Biso   1.000  C
  C831     1.0000 0.22626  0.79842  0.26158  Biso   1.000  C
  C832     1.0000 0.23543  0.79330  0.07531  Biso   1.000  C
  C833     1.0000 0.20197  0.79995  0.23490  Biso   1.000  C
  C834     1.0000 0.23416  0.80133  0.37670  Biso   1.000  C
  H1163    1.0000 0.24680  0.79102  0.02171  Biso   1.000  H
  C835     1.0000 0.21096  0.79404  0.04759  Biso   1.000  C
  H1164    1.0000 0.19080  0.80241  0.28922  Biso   1.000  H
  C836     1.0000 0.19431  0.79790  0.13067  Biso   1.000  C
  C837     1.0000 0.23457  0.83431  0.40867  Biso   1.000  C
  H1165    1.0000 0.22330  0.79032  0.42277  Biso   1.000  H
  H1166    1.0000 0.25000  0.79271  0.38519  Biso   1.000  H
  C838     1.0000 0.20274  0.79156  0.93190  Biso   1.000  C
  O112     1.0000 0.17043  0.79930  0.09998  Biso   1.000  O
  C839     1.0000 0.25525  0.85150  0.38872  Biso   1.000  C
  C840     1.0000 0.21474  0.84877  0.45057  Biso   1.000  C
  C841     1.0000 0.20140  0.82174  0.87750  Biso   1.000  C
  H1167    1.0000 0.18710  0.78211  0.92990  Biso   1.000  H
  H1168    1.0000 0.21381  0.77870  0.89289  Biso   1.000  H
  C842     1.0000 0.15371  0.80661  0.18547  Biso   1.000  C
  C843     1.0000 0.25543  0.88236  0.40675  Biso   1.000  C
  H1169    1.0000 0.26900  0.84200  0.36300  Biso   1.000  H
  O113     1.0000 0.19450  0.83106  0.46787  Biso   1.000  O
  C844     1.0000 0.21532  0.87956  0.46867  Biso   1.000  C
  C845     1.0000 0.22113  0.83422  0.82599  Biso   1.000  C
  C846     1.0000 0.18058  0.83864  0.88143  Biso   1.000  C
  C847     1.0000 0.12889  0.80798  0.13684  Biso   1.000  C
  H1170    1.0000 0.15430  0.79131  0.24091  Biso   1.000  H
  H1171    1.0000 0.15781  0.82592  0.21727  Biso   1.000  H
  O114     1.0000 0.27526  0.89993  0.38600  Biso   1.000  O
  C848     1.0000 0.23524  0.89664  0.44600  Biso   1.000  C
  C849     1.0000 0.17886  0.83974  0.54783  Biso   1.000  C
  H1172    1.0000 0.20190  0.88901  0.49704  Biso   1.000  H
  O115     1.0000 0.24201  0.81703  0.82166  Biso   1.000  O
  C850     1.0000 0.21970  0.86248  0.77992  Biso   1.000  C
  C851     1.0000 0.17904  0.86731  0.83512  Biso   1.000  C
  H1173    1.0000 0.16719  0.83070  0.91580  Biso   1.000  H
  H1174    1.0000 0.12960  0.82100  0.07339  Biso   1.000  H
  C852     1.0000 0.12009  0.77814  0.10351  Biso   1.000  C
  C853     1.0000 0.11216  0.82258  0.21823  Biso   1.000  C
  C854     1.0000 0.29604  0.88599  0.34538  Biso   1.000  C
  C855     1.0000 0.23538  0.93075  0.46403  Biso   1.000  C
  C856     1.0000 0.16349  0.81182  0.58052  Biso   1.000  C
  H1175    1.0000 0.17770  0.85901  0.57707  Biso   1.000  H
  C857     1.0000 0.25395  0.81567  0.72312  Biso   1.000  C
  C858     1.0000 0.19895  0.87972  0.78489  Biso   1.000  C
  H1176    1.0000 0.23300  0.87020  0.74467  Biso   1.000  H
  O116     1.0000 0.15877  0.88445  0.83512  Biso   1.000  O
  H1177    1.0000 0.11859  0.76530  0.16520  Biso   1.000  H
  H1178    1.0000 0.10470  0.78030  0.06994  Biso   1.000  H
  H1179    1.0000 0.13110  0.76932  0.05368  Biso   1.000  H
  H1180    1.0000 0.11800  0.84232  0.23642  Biso   1.000  H
  H1181    1.0000 0.09650  0.82431  0.18787  Biso   1.000  H
  H1182    1.0000 0.11150  0.81030  0.28153  Biso   1.000  H
  C859     1.0000 0.31390  0.90959  0.31261  Biso   1.000  C
  H1183    1.0000 0.30300  0.87311  0.39994  Biso   1.000  H
  H1184    1.0000 0.29200  0.87360  0.28409  Biso   1.000  H
  C860     1.0000 0.23154  0.94845  0.36212  Biso   1.000  C
  H1185    1.0000 0.25059  0.93650  0.49519  Biso   1.000  H
  H1186    1.0000 0.22290  0.93591  0.51482  Biso   1.000  H
  H1187    1.0000 0.15280  0.81820  0.63852  Biso   1.000  H
  C861     1.0000 0.14819  0.80110  0.48975  Biso   1.000  C
  C862     1.0000 0.17741  0.78741  0.61969  Biso   1.000  C
  H1188    1.0000 0.24861  0.82670  0.66456  Biso   1.000  H
  C863     1.0000 0.27388  0.79751  0.71527  Biso   1.000  C
  C864     1.0000 0.19868  0.91096  0.73666  Biso   1.000  C
  C865     1.0000 0.13770  0.87275  0.88407  Biso   1.000  C
  H1189    1.0000 0.30620  0.92260  0.25941  Biso   1.000  H
  C866     1.0000 0.33506  0.89416  0.25797  Biso   1.000  C
  C867     1.0000 0.32110  0.92930  0.40723  Biso   1.000  C
  C868     1.0000 0.25041  0.96233  0.30933  Biso   1.000  C
  C869     1.0000 0.20848  0.95245  0.31878  Biso   1.000  C
  H1190    1.0000 0.15800  0.79111  0.43743  Biso   1.000  H
  H1191    1.0000 0.13639  0.78720  0.51642  Biso   1.000  H
  H1192    1.0000 0.14029  0.81800  0.45722  Biso   1.000  H
  H1193    1.0000 0.18691  0.77920  0.56241  Biso   1.000  H
  H1194    1.0000 0.18780  0.79440  0.67577  Biso   1.000  H
  H1195    1.0000 0.16699  0.77200  0.64733  Biso   1.000  H
  C870     1.0000 0.28780  0.79970  0.61160  Biso   1.000  C
  C871     1.0000 0.28450  0.78240  0.79498  Biso   1.000  C
  C872     1.0000 0.20419  0.93476  0.81942  Biso   1.000  C
  H1196    1.0000 0.18310  0.91491  0.70590  Biso   1.000  H
  H1197    1.0000 0.21039  0.91200  0.67946  Biso   1.000  H
  H1198    1.0000 0.13141  0.85621  0.84177  Biso   1.000  H
  H1199    1.0000 0.14140  0.86521  0.95522  Biso   1.000  H
  C873     1.0000 0.11920  0.89788  0.89176  Biso   1.000  C
  H1200    1.0000 0.32940  0.88170  0.20061  Biso   1.000  H
  H1201    1.0000 0.34570  0.90920  0.22993  Biso   1.000  H
  H1202    1.0000 0.34339  0.88191  0.30917  Biso   1.000  H
  H1203    1.0000 0.32979  0.91741  0.45834  Biso   1.000  H
  H1204    1.0000 0.33100  0.94550  0.38239  Biso   1.000  H
  H1205    1.0000 0.30700  0.93740  0.44039  Biso   1.000  H
  C874     1.0000 0.24719  0.97864  0.21543  Biso   1.000  C
  H1206    1.0000 0.26569  0.96061  0.33769  Biso   1.000  H
  O117     1.0000 0.19027  0.93821  0.37390  Biso   1.000  O
  C875     1.0000 0.20514  0.96912  0.22657  Biso   1.000  C
  H1207    1.0000 0.28500  0.78190  0.56930  Biso   1.000  H
  H1208    1.0000 0.28269  0.81712  0.57242  Biso   1.000  H
  H1209    1.0000 0.30460  0.80130  0.62722  Biso   1.000  H
  H1210    1.0000 0.27250  0.77471  0.84297  Biso   1.000  H
  H1211    1.0000 0.29350  0.76591  0.76606  Biso   1.000  H
  H1212    1.0000 0.29490  0.79580  0.83328  Biso   1.000  H
  C876     1.0000 0.22777  0.94329  0.84097  Biso   1.000  C
  C877     1.0000 0.18582  0.94793  0.87887  Biso   1.000  C
  H1213    1.0000 0.12621  0.91462  0.93222  Biso   1.000  H
  C878     1.0000 0.09759  0.88712  0.95041  Biso   1.000  C
  C879     1.0000 0.11232  0.90940  0.78072  Biso   1.000  C
  O118     1.0000 0.26544  0.99262  0.15927  Biso   1.000  O
  C880     1.0000 0.22419  0.98252  0.17393  Biso   1.000  C
  C881     1.0000 0.16676  0.93880  0.32679  Biso   1.000  C
  H1214    1.0000 0.18980  0.97142  0.19933  Biso   1.000  H
  O119     1.0000 0.24510  0.93016  0.77856  Biso   1.000  O
  C882     1.0000 0.23213  0.96418  0.92029  Biso   1.000  C
  H1215    1.0000 0.17010  0.94232  0.86501  Biso   1.000  H
  C883     1.0000 0.19019  0.96907  0.95770  Biso   1.000  C
  H1216    1.0000 0.10220  0.87990  0.01987  Biso   1.000  H
  H1217    1.0000 0.08649  0.90352  0.95818  Biso   1.000  H
  H1218    1.0000 0.09019  0.87110  0.91083  Biso   1.000  H
  H1219    1.0000 0.10140  0.89542  0.74788  Biso   1.000  H
  H1220    1.0000 0.10479  0.92871  0.78713  Biso   1.000  H
  H1221    1.0000 0.12640  0.91112  0.73730  Biso   1.000  H
  C884     1.0000 0.28927  0.98734  0.19588  Biso   1.000  C
  C885     1.0000 0.21972  0.99912  0.06938  Biso   1.000  C
  H1222    1.0000 0.16010  0.95890  0.33168  Biso   1.000  H
  H1223    1.0000 0.16769  0.93320  0.25172  Biso   1.000  H
  C886     1.0000 0.15125  0.91674  0.38664  Biso   1.000  C
  C887     1.0000 0.26904  0.94029  0.79250  Biso   1.000  C
  C888     1.0000 0.21406  0.97715  0.98069  Biso   1.000  C
  H1224    1.0000 0.24780  0.96982  0.93382  Biso   1.000  H
  O120     1.0000 0.17259  0.98306  0.01618  Biso   1.000  O
  H1225    1.0000 0.29140  0.99601  0.26662  Biso   1.000  H
  H1226    1.0000 0.29220  0.96580  0.20061  Biso   1.000  H
  C889     1.0000 0.30662  0.00153  0.11873  Biso   1.000  C
  H1227    1.0000 0.23381  0.01081  0.05039  Biso   1.000  H
  H1228    1.0000 0.20650  0.01302  0.07843  Biso   1.000  H
  H1229    1.0000 0.15920  0.89711  0.38479  Biso   1.000  H
  C890     1.0000 0.14782  0.92520  0.50168  Biso   1.000  C
  C891     1.0000 0.12767  0.91365  0.32783  Biso   1.000  C
  H1230    1.0000 0.26930  0.96221  0.79346  Biso   1.000  H
  H1231    1.0000 0.27509  0.93311  0.86076  Biso   1.000  H
  C892     1.0000 0.28501  0.92883  0.70269  Biso   1.000  C
  C893     1.0000 0.14903  0.97171  0.00713  Biso   1.000  C
  C894     1.0000 0.33179  0.99711  0.16311  Biso   1.000  C
  C895     1.0000 0.30446  0.98978  0.00697  Biso   1.000  C
  H1232    1.0000 0.30339  0.02321  0.11689  Biso   1.000  H
  H1233    1.0000 0.14001  0.94442  0.50593  Biso   1.000  H
  H1234    1.0000 0.13820  0.91022  0.53653  Biso   1.000  H
  H1235    1.0000 0.16310  0.92641  0.53653  Biso   1.000  H
  H1236    1.0000 0.13050  0.90521  0.25813  Biso   1.000  H
  H1237    1.0000 0.11720  0.90061  0.36757  Biso   1.000  H
  H1238    1.0000 0.12040  0.93311  0.32054  Biso   1.000  H
  H1239    1.0000 0.27990  0.93862  0.63620  Biso   1.000  H
  C896     1.0000 0.31016  0.93911  0.72681  Biso   1.000  C
  C897     1.0000 0.28325  0.89508  0.68619  Biso   1.000  C
  H1240    1.0000 0.14891  0.95042  0.02427  Biso   1.000  H
  C898     1.0000 0.13271  0.98850  0.08260  Biso   1.000  C
  H1241    1.0000 0.14340  0.97410  0.93398  Biso   1.000  H
  H1242    1.0000 0.33460  0.97600  0.17537  Biso   1.000  H
  H1243    1.0000 0.34330  0.00460  0.11240  Biso   1.000  H
  H1244    1.0000 0.33340  0.00792  0.22937  Biso   1.000  H
  H1245    1.0000 0.30650  0.96831  0.00721  Biso   1.000  H
  H1246    1.0000 0.28889  0.99461  0.97917  Biso   1.000  H
  H1247    1.0000 0.31649  0.99892  0.96283  Biso   1.000  H
  H1248    1.0000 0.32049  0.93381  0.66832  Biso   1.000  H
  H1249    1.0000 0.31031  0.96061  0.73642  Biso   1.000  H
  H1250    1.0000 0.31570  0.92950  0.79106  Biso   1.000  H
  H1251    1.0000 0.26680  0.88960  0.67521  Biso   1.000  H
  H1252    1.0000 0.29250  0.88942  0.62466  Biso   1.000  H
  H1253    1.0000 0.28930  0.88491  0.74836  Biso   1.000  H
  H1254    1.0000 0.13890  0.98631  0.15566  Biso   1.000  H
  C899     1.0000 0.10796  0.97501  0.07787  Biso   1.000  C
  C900     1.0000 0.13191  0.02227  0.05432  Biso   1.000  C
  H1255    1.0000 0.10860  0.95421  0.09942  Biso   1.000  H
  H1256    1.0000 0.09750  0.98590  0.12530  Biso   1.000  H
  H1257    1.0000 0.10201  0.97631  0.00601  Biso   1.000  H
  H1258    1.0000 0.12521  0.02481  0.98398  Biso   1.000  H
  H1259    1.0000 0.12220  0.03271  0.10559  Biso   1.000  H
  H1260    1.0000 0.14780  0.03041  0.05560  Biso   1.000  H
  C901     1.0000 0.84759  0.36290  0.70045  Biso   1.000  C
  C902     1.0000 0.86920  0.35214  0.64180  Biso   1.000  C
  H1261    1.0000 0.85218  0.37010  0.76991  Biso   1.000  H
  H1262    1.0000 0.83649  0.34650  0.70822  Biso   1.000  H
  H1263    1.0000 0.84019  0.37889  0.66079  Biso   1.000  H
  C903     1.0000 0.88770  0.37725  0.63411  Biso   1.000  C
  H1264    1.0000 0.87619  0.33540  0.68218  Biso   1.000  H
  C904     1.0000 0.86232  0.34061  0.53068  Biso   1.000  C
  O121     1.0000 0.90875  0.36556  0.58508  Biso   1.000  O
  H1265    1.0000 0.88139  0.39381  0.59181  Biso   1.000  H
  H1266    1.0000 0.89140  0.38480  0.70518  Biso   1.000  H
  H1267    1.0000 0.85140  0.35460  0.49792  Biso   1.000  H
  H1268    1.0000 0.85479  0.32130  0.53709  Biso   1.000  H
  H1269    1.0000 0.87639  0.33890  0.48734  Biso   1.000  H
  C905     1.0000 0.92902  0.38271  0.58508  Biso   1.000  C
  C906     1.0000 0.94893  0.37030  0.53493  Biso   1.000  C
  C907     1.0000 0.93058  0.41138  0.63139  Biso   1.000  C
  C908     1.0000 0.94867  0.33903  0.48670  Biso   1.000  C
  C909     1.0000 0.96970  0.38753  0.52988  Biso   1.000  C
  C910     1.0000 0.95140  0.42827  0.62754  Biso   1.000  C
  H1270    1.0000 0.91719  0.41930  0.66584  Biso   1.000  H
  C911     1.0000 0.95419  0.31526  0.56938  Biso   1.000  C
  H1271    1.0000 0.93310  0.33511  0.45594  Biso   1.000  H
  H1272    1.0000 0.96039  0.33800  0.42950  Biso   1.000  H
  C912     1.0000 0.97112  0.41580  0.57603  Biso   1.000  C
  H1273    1.0000 0.98298  0.37980  0.49471  Biso   1.000  H
  C913     1.0000 0.95274  0.45844  0.68194  Biso   1.000  C
  C914     1.0000 0.97775  0.30673  0.59101  Biso   1.000  C
  C915     1.0000 0.93580  0.30208  0.62891  Biso   1.000  C
  O122     1.0000 0.99201  0.43299  0.57170  Biso   1.000  O
  H1274    1.0000 0.93708  0.46791  0.67994  Biso   1.000  H
  H1275    1.0000 0.96379  0.47129  0.64293  Biso   1.000  H
  C916     1.0000 0.96095  0.45598  0.79763  Biso   1.000  C
  O123     1.0000 0.99508  0.31986  0.52860  Biso   1.000  O
  C917     1.0000 0.98213  0.28584  0.67033  Biso   1.000  C
  H1276    1.0000 0.92009  0.30770  0.61505  Biso   1.000  H
  C918     1.0000 0.94018  0.28094  0.70774  Biso   1.000  C
  C919     1.0000 0.00395  0.43434  0.47308  Biso   1.000  C
  C920     1.0000 0.94429  0.45210  0.88071  Biso   1.000  C
  C921     1.0000 0.98542  0.45672  0.82535  Biso   1.000  C
  C922     1.0000 0.01902  0.30973  0.54254  Biso   1.000  C
  C923     1.0000 0.96406  0.27287  0.73073  Biso   1.000  C
  H1277    1.0000 0.99778  0.28020  0.68378  Biso   1.000  H
  O124     1.0000 0.92259  0.26696  0.76622  Biso   1.000  O
  H1278    1.0000 0.99859  0.42331  0.41460  Biso   1.000  H
  C924     1.0000 0.02388  0.45250  0.46531  Biso   1.000  C
  O125     1.0000 0.92041  0.45072  0.85002  Biso   1.000  O
  C925     1.0000 0.95197  0.45004  0.98494  Biso   1.000  C
  H1279    1.0000 0.99678  0.45900  0.77175  Biso   1.000  H
  C926     1.0000 0.99265  0.45415  0.93014  Biso   1.000  C
  H1280    1.0000 0.01929  0.28780  0.54350  Biso   1.000  H
  H1281    1.0000 0.02511  0.31690  0.61080  Biso   1.000  H
  C927     1.0000 0.03501  0.32119  0.45273  Biso   1.000  C
  C928     1.0000 0.96972  0.25087  0.81942  Biso   1.000  C
  C929     1.0000 0.89903  0.27828  0.75709  Biso   1.000  C
  C930     1.0000 0.03780  0.45031  0.36164  Biso   1.000  C
  C931     1.0000 0.03451  0.46759  0.54502  Biso   1.000  C
  C932     1.0000 0.90371  0.44341  0.93551  Biso   1.000  C
  H1282    1.0000 0.94078  0.44761  0.03926  Biso   1.000  H
  C933     1.0000 0.97625  0.45158  0.01162  Biso   1.000  C
  O126     1.0000 0.01632  0.45354  0.96002  Biso   1.000  O
  H1283    1.0000 0.02988  0.31140  0.38624  Biso   1.000  H
  C934     1.0000 0.06016  0.31090  0.47685  Biso   1.000  C
  C935     1.0000 0.03325  0.35494  0.43623  Biso   1.000  C
  H1284    1.0000 0.98379  0.23921  0.80043  Biso   1.000  H
  H1285    1.0000 0.95650  0.23700  0.82839  Biso   1.000  H
  C936     1.0000 0.97419  0.26750  0.92389  Biso   1.000  C
  H1286    1.0000 0.89338  0.27589  0.68402  Biso   1.000  H
  H1287    1.0000 0.89889  0.29960  0.77432  Biso   1.000  H
  C937     1.0000 0.88271  0.26152  0.83264  Biso   1.000  C
  H1288    1.0000 0.03501  0.46811  0.31934  Biso   1.000  H
  H1289    1.0000 0.03271  0.43290  0.32238  Biso   1.000  H
  H1290    1.0000 0.05460  0.44871  0.37718  Biso   1.000  H
  H1291    1.0000 0.02250  0.47531  0.59301  Biso   1.000  H
  H1292    1.0000 0.04350  0.48411  0.51610  Biso   1.000  H
  H1293    1.0000 0.04492  0.45419  0.58332  Biso   1.000  H
  C938     1.0000 0.87887  0.44201  0.88680  Biso   1.000  C
  H1294    1.0000 0.90429  0.45871  0.99095  Biso   1.000  H
  H1295    1.0000 0.90779  0.42410  0.96731  Biso   1.000  H
  C939     1.0000 0.98416  0.44869  0.12674  Biso   1.000  C
  C940     1.0000 0.03403  0.46320  0.89208  Biso   1.000  C
  H1296    1.0000 0.07051  0.31620  0.41828  Biso   1.000  H
  H1297    1.0000 0.06029  0.28940  0.48638  Biso   1.000  H
  H1298    1.0000 0.06569  0.32051  0.54110  Biso   1.000  H
  H1299    1.0000 0.01680  0.36040  0.42517  Biso   1.000  H
  H1300    1.0000 0.04250  0.36060  0.37470  Biso   1.000  H
  H1301    1.0000 0.03930  0.36511  0.49840  Biso   1.000  H
  C941     1.0000 0.99719  0.27138  0.96539  Biso   1.000  C
  C942     1.0000 0.95512  0.28090  0.97661  Biso   1.000  C
  H1302    1.0000 0.88890  0.26371  0.90570  Biso   1.000  H
  C943     1.0000 0.85796  0.27501  0.82791  Biso   1.000  C
  C944     1.0000 0.88191  0.22775  0.80428  Biso   1.000  C
  H1303    1.0000 0.87958  0.42900  0.82343  Biso   1.000  H
  C945     1.0000 0.87008  0.47188  0.85355  Biso   1.000  C
  C946     1.0000 0.86216  0.42742  0.96819  Biso   1.000  C
  C947     1.0000 0.98456  0.41571  0.15871  Biso   1.000  C
  H1304    1.0000 0.97330  0.45970  0.17281  Biso   1.000  H
  H1305    1.0000 0.00002  0.45731  0.13523  Biso   1.000  H
  H1306    1.0000 0.03130  0.47041  0.82311  Biso   1.000  H
  C948     1.0000 0.05875  0.46071  0.94360  Biso   1.000  C
  O127     1.0000 0.01544  0.25739  0.90931  Biso   1.000  O
  C949     1.0000 0.00041  0.28769  0.05929  Biso   1.000  C
  H1307    1.0000 0.93978  0.27860  0.94929  Biso   1.000  H
  C950     1.0000 0.95848  0.29757  0.06882  Biso   1.000  C
  H1308    1.0000 0.85860  0.29581  0.84938  Biso   1.000  H
  H1309    1.0000 0.84750  0.26409  0.87534  Biso   1.000  H
  H1310    1.0000 0.85199  0.27370  0.75605  Biso   1.000  H
  H1311    1.0000 0.87519  0.22520  0.73402  Biso   1.000  H
  H1312    1.0000 0.87218  0.21731  0.85563  Biso   1.000  H
  H1313    1.0000 0.89780  0.21961  0.80564  Biso   1.000  H
  H1314    1.0000 0.86859  0.48469  0.91524  Biso   1.000  H
  H1315    1.0000 0.85469  0.46972  0.81990  Biso   1.000  H
  H1316    1.0000 0.88109  0.48070  0.80372  Biso   1.000  H
  H1317    1.0000 0.86798  0.40770  0.98638  Biso   1.000  H
  H1318    1.0000 0.84650  0.42570  0.93791  Biso   1.000  H
  H1319    1.0000 0.86150  0.43971  0.03149  Biso   1.000  H
  C951     1.0000 0.96472  0.40125  0.20061  Biso   1.000  C
  C952     1.0000 0.00527  0.39852  0.13868  Biso   1.000  C
  C953     1.0000 0.07757  0.47041  0.86324  Biso   1.000  C
  C954     1.0000 0.05981  0.46721  0.06121  Biso   1.000  C
  C955     1.0000 0.03929  0.26267  0.94592  Biso   1.000  C
  C956     1.0000 0.98152  0.30156  0.11208  Biso   1.000  C
  H1320    1.0000 0.01571  0.28940  0.08773  Biso   1.000  H
  O128     1.0000 0.94025  0.31178  0.12394  Biso   1.000  O
  O129     1.0000 0.94450  0.41896  0.21791  Biso   1.000  O
  C957     1.0000 0.96532  0.37046  0.21871  Biso   1.000  C
  C958     1.0000 0.00543  0.36766  0.15671  Biso   1.000  C
  H1321    1.0000 0.01902  0.40799  0.11304  Biso   1.000  H
  H1322    1.0000 0.07491  0.46020  0.79643  Biso   1.000  H
  H1323    1.0000 0.09309  0.46520  0.88992  Biso   1.000  H
  H1324    1.0000 0.07659  0.49180  0.85243  Biso   1.000  H
  H1325    1.0000 0.05021  0.48460  0.07715  Biso   1.000  H
  H1326    1.0000 0.07611  0.47120  0.08164  Biso   1.000  H
  H1327    1.0000 0.05401  0.45011  0.10038  Biso   1.000  H
  C959     1.0000 0.05662  0.24848  0.86869  Biso   1.000  C
  H1328    1.0000 0.04220  0.28419  0.95065  Biso   1.000  H
  H1329    1.0000 0.04141  0.25401  0.01658  Biso   1.000  H
  C960     1.0000 0.98538  0.31927  0.21399  Biso   1.000  C
  C961     1.0000 0.91676  0.31120  0.07683  Biso   1.000  C
  C962     1.0000 0.92884  0.41027  0.29779  Biso   1.000  C
  C963     1.0000 0.98522  0.35338  0.19604  Biso   1.000  C
  H1330    1.0000 0.95188  0.36101  0.24700  Biso   1.000  H
  O130     1.0000 0.02526  0.35006  0.13604  Biso   1.000  O
  H1331    1.0000 0.05341  0.22680  0.86693  Biso   1.000  H
  C964     1.0000 0.08181  0.25290  0.91307  Biso   1.000  C
  C965     1.0000 0.05446  0.26021  0.75701  Biso   1.000  C
  H1332    1.0000 0.97289  0.31411  0.26478  Biso   1.000  H
  H1333    1.0000 0.00061  0.31350  0.24523  Biso   1.000  H
  H1334    1.0000 0.91010  0.29110  0.08172  Biso   1.000  H
  H1335    1.0000 0.91769  0.31681  0.00168  Biso   1.000  H
  C966     1.0000 0.90125  0.33328  0.13660  Biso   1.000  C
  C967     1.0000 0.91349  0.43818  0.33056  Biso   1.000  C
  H1336    1.0000 0.92768  0.39101  0.32711  Biso   1.000  H
  C968     1.0000 0.04606  0.36401  0.09542  Biso   1.000  C
  H1337    1.0000 0.09330  0.24539  0.86244  Biso   1.000  H
  H1338    1.0000 0.08340  0.24210  0.97941  Biso   1.000  H
  H1339    1.0000 0.08460  0.27400  0.92541  Biso   1.000  H
  H1340    1.0000 0.03891  0.25541  0.72921  Biso   1.000  H
  H1341    1.0000 0.06651  0.25110  0.71279  Biso   1.000  H
  H1342    1.0000 0.05652  0.28171  0.75725  Biso   1.000  H
  H1343    1.0000 0.90918  0.35291  0.13483  Biso   1.000  H
  C969     1.0000 0.89780  0.32482  0.25172  Biso   1.000  C
  C970     1.0000 0.87767  0.33637  0.07779  Biso   1.000  C
  H1344    1.0000 0.90278  0.43179  0.38856  Biso   1.000  H
  C971     1.0000 0.89819  0.44889  0.23971  Biso   1.000  C
  C972     1.0000 0.92741  0.46261  0.36973  Biso   1.000  C
  C973     1.0000 0.06392  0.34043  0.06265  Biso   1.000  C
  H1345    1.0000 0.05300  0.37691  0.14990  Biso   1.000  H
  H1346    1.0000 0.04199  0.37641  0.03413  Biso   1.000  H
  H1347    1.0000 0.88999  0.30560  0.25589  Biso   1.000  H
  H1348    1.0000 0.88820  0.33980  0.28649  Biso   1.000  H
  H1349    1.0000 0.91310  0.32360  0.28649  Biso   1.000  H
  H1350    1.0000 0.88050  0.34481  0.00809  Biso   1.000  H
  H1351    1.0000 0.86720  0.34941  0.11761  Biso   1.000  H
  H1352    1.0000 0.87040  0.31690  0.07050  Biso   1.000  H
  H1353    1.0000 0.90799  0.45891  0.18739  Biso   1.000  H
  H1354    1.0000 0.88639  0.46281  0.26638  Biso   1.000  H
  H1355    1.0000 0.89029  0.43200  0.20726  Biso   1.000  H
  H1356    1.0000 0.93689  0.47080  0.31245  Biso   1.000  H
  H1357    1.0000 0.93780  0.45559  0.42581  Biso   1.000  H
  H1358    1.0000 0.91699  0.47799  0.39729  Biso   1.000  H
  H1359    1.0000 0.05621  0.32739  0.00945  Biso   1.000  H
  C974     1.0000 0.08508  0.35586  0.00801  Biso   1.000  C
  C975     1.0000 0.07110  0.32072  0.15719  Biso   1.000  C
  H1360    1.0000 0.07941  0.36831  0.95065  Biso   1.000  H
  H1361    1.0000 0.09570  0.34079  0.97989  Biso   1.000  H
  H1362    1.0000 0.09341  0.36811  0.05921  Biso   1.000  H
  H1363    1.0000 0.07981  0.33260  0.20830  Biso   1.000  H
  H1364    1.0000 0.08100  0.30450  0.13243  Biso   1.000  H
  H1365    1.0000 0.05702  0.31259  0.19043  Biso   1.000  H
  C976     1.0000 0.15241  0.63710  0.70045  Biso   1.000  C
  C977     1.0000 0.13080  0.64788  0.64180  Biso   1.000  C
  H1366    1.0000 0.14780  0.62990  0.76991  Biso   1.000  H
  H1367    1.0000 0.16349  0.65350  0.70822  Biso   1.000  H
  H1368    1.0000 0.15979  0.62111  0.66079  Biso   1.000  H
  C978     1.0000 0.11230  0.62275  0.63411  Biso   1.000  C
  H1369    1.0000 0.12379  0.66460  0.68218  Biso   1.000  H
  C979     1.0000 0.13768  0.65941  0.53068  Biso   1.000  C
  O131     1.0000 0.09123  0.63444  0.58508  Biso   1.000  O
  H1370    1.0000 0.11859  0.60619  0.59181  Biso   1.000  H
  H1371    1.0000 0.10860  0.61520  0.70518  Biso   1.000  H
  H1372    1.0000 0.14860  0.64540  0.49792  Biso   1.000  H
  H1373    1.0000 0.14521  0.67870  0.53709  Biso   1.000  H
  H1374    1.0000 0.12360  0.66110  0.48734  Biso   1.000  H
  C980     1.0000 0.07096  0.61732  0.58508  Biso   1.000  C
  C981     1.0000 0.06942  0.58862  0.63139  Biso   1.000  C
  C982     1.0000 0.05105  0.62970  0.53493  Biso   1.000  C
  C983     1.0000 0.04858  0.57173  0.62754  Biso   1.000  C
  H1375    1.0000 0.08279  0.58070  0.66584  Biso   1.000  H
  C984     1.0000 0.03030  0.61249  0.52988  Biso   1.000  C
  C985     1.0000 0.05132  0.66097  0.48670  Biso   1.000  C
  C986     1.0000 0.04726  0.54156  0.68194  Biso   1.000  C
  C987     1.0000 0.02887  0.58422  0.57603  Biso   1.000  C
  H1376    1.0000 0.01700  0.62020  0.49471  Biso   1.000  H
  C988     1.0000 0.04579  0.68477  0.56938  Biso   1.000  C
  H1377    1.0000 0.06690  0.66491  0.45594  Biso   1.000  H
  H1378    1.0000 0.03961  0.66200  0.42950  Biso   1.000  H
  C989     1.0000 0.03904  0.54405  0.79763  Biso   1.000  C
  H1379    1.0000 0.06290  0.53211  0.67994  Biso   1.000  H
  H1380    1.0000 0.03619  0.52871  0.64293  Biso   1.000  H
  O132     1.0000 0.00797  0.56703  0.57170  Biso   1.000  O
  C990     1.0000 0.02223  0.69329  0.59101  Biso   1.000  C
  C991     1.0000 0.06418  0.69792  0.62891  Biso   1.000  C
  C992     1.0000 0.05569  0.54790  0.88071  Biso   1.000  C
  C993     1.0000 0.01457  0.54330  0.82535  Biso   1.000  C
  C994     1.0000 0.99605  0.56568  0.47308  Biso   1.000  C
  O133     1.0000 0.00490  0.68016  0.52860  Biso   1.000  O
  C995     1.0000 0.01787  0.71418  0.67033  Biso   1.000  C
  H1381    1.0000 0.07990  0.69230  0.61505  Biso   1.000  H
  C996     1.0000 0.05981  0.71906  0.70774  Biso   1.000  C
  O134     1.0000 0.07957  0.54930  0.85002  Biso   1.000  O
  C997     1.0000 0.04803  0.54996  0.98494  Biso   1.000  C
  C998     1.0000 0.00735  0.54585  0.93014  Biso   1.000  C
  H1382    1.0000 0.00320  0.54100  0.77175  Biso   1.000  H
  H1383    1.0000 0.00139  0.57671  0.41460  Biso   1.000  H
  C999     1.0000 0.97612  0.54750  0.46531  Biso   1.000  C
  C1000    1.0000 0.98096  0.69029  0.54254  Biso   1.000  C
  C1001    1.0000 0.03594  0.72713  0.73073  Biso   1.000  C
  H1384    1.0000 0.00220  0.71980  0.68378  Biso   1.000  H
  O135     1.0000 0.07741  0.73306  0.76622  Biso   1.000  O
  C1002    1.0000 0.09629  0.55661  0.93551  Biso   1.000  C
  H1385    1.0000 0.05920  0.55241  0.03926  Biso   1.000  H
  C1003    1.0000 0.02374  0.54842  0.01162  Biso   1.000  C
  O136     1.0000 0.98368  0.54648  0.96002  Biso   1.000  O
  C1004    1.0000 0.96220  0.54971  0.36164  Biso   1.000  C
  C1005    1.0000 0.96550  0.53241  0.54502  Biso   1.000  C
  H1386    1.0000 0.98070  0.71220  0.54350  Biso   1.000  H
  H1387    1.0000 0.97491  0.68310  0.61080  Biso   1.000  H
  C1006    1.0000 0.96499  0.67883  0.45273  Biso   1.000  C
  C1007    1.0000 0.03028  0.74913  0.81942  Biso   1.000  C
  C1008    1.0000 0.10095  0.72172  0.75709  Biso   1.000  C
  C1009    1.0000 0.12111  0.55799  0.88680  Biso   1.000  C
  H1388    1.0000 0.09570  0.54132  0.99095  Biso   1.000  H
  H1389    1.0000 0.09219  0.57590  0.96731  Biso   1.000  H
  C1010    1.0000 0.01584  0.55133  0.12674  Biso   1.000  C
  C1011    1.0000 0.96599  0.53680  0.89208  Biso   1.000  C
  H1390    1.0000 0.96500  0.53191  0.31934  Biso   1.000  H
  H1391    1.0000 0.96731  0.56710  0.32238  Biso   1.000  H
  H1392    1.0000 0.94540  0.55131  0.37718  Biso   1.000  H
  H1393    1.0000 0.97750  0.52471  0.59301  Biso   1.000  H
  H1394    1.0000 0.95650  0.51592  0.51610  Biso   1.000  H
  H1395    1.0000 0.95510  0.54581  0.58332  Biso   1.000  H
  H1396    1.0000 0.97010  0.68860  0.38624  Biso   1.000  H
  C1012    1.0000 0.93984  0.68912  0.47685  Biso   1.000  C
  C1013    1.0000 0.96675  0.64509  0.43623  Biso   1.000  C
  C1014    1.0000 0.02579  0.73250  0.92389  Biso   1.000  C
  H1397    1.0000 0.01619  0.76081  0.80043  Biso   1.000  H
  H1398    1.0000 0.04350  0.76300  0.82839  Biso   1.000  H
  H1399    1.0000 0.10660  0.72411  0.68402  Biso   1.000  H
  H1400    1.0000 0.10109  0.70040  0.77432  Biso   1.000  H
  C1015    1.0000 0.11729  0.73850  0.83264  Biso   1.000  C
  C1016    1.0000 0.12991  0.52812  0.85355  Biso   1.000  C
  H1401    1.0000 0.12040  0.57100  0.82343  Biso   1.000  H
  C1017    1.0000 0.13784  0.57258  0.96819  Biso   1.000  C
  C1018    1.0000 0.01543  0.58431  0.15871  Biso   1.000  C
  H1402    1.0000 0.02670  0.54030  0.17281  Biso   1.000  H
  H1403    1.0000 0.00000  0.54271  0.13523  Biso   1.000  H
  H1404    1.0000 0.96870  0.52961  0.82311  Biso   1.000  H
  C1019    1.0000 0.94125  0.53931  0.94360  Biso   1.000  C
  H1405    1.0000 0.92951  0.68380  0.41828  Biso   1.000  H
  H1406    1.0000 0.93969  0.71060  0.48638  Biso   1.000  H
  H1407    1.0000 0.93430  0.67951  0.54110  Biso   1.000  H
  H1408    1.0000 0.98320  0.63960  0.42517  Biso   1.000  H
  H1409    1.0000 0.95750  0.63940  0.37470  Biso   1.000  H
  H1410    1.0000 0.96070  0.63491  0.49840  Biso   1.000  H
  C1020    1.0000 0.00281  0.72862  0.96539  Biso   1.000  C
  C1021    1.0000 0.04486  0.71912  0.97661  Biso   1.000  C
  H1411    1.0000 0.11110  0.73631  0.90570  Biso   1.000  H
  C1022    1.0000 0.14204  0.72499  0.82791  Biso   1.000  C
  C1023    1.0000 0.11809  0.77227  0.80428  Biso   1.000  C
  H1412    1.0000 0.13141  0.51531  0.91524  Biso   1.000  H
  H1413    1.0000 0.14530  0.53031  0.81990  Biso   1.000  H
  H1414    1.0000 0.11890  0.51930  0.80372  Biso   1.000  H
  H1415    1.0000 0.13200  0.59230  0.98638  Biso   1.000  H
  H1416    1.0000 0.15350  0.57430  0.93791  Biso   1.000  H
  H1417    1.0000 0.13850  0.56031  0.03149  Biso   1.000  H
  C1024    1.0000 0.99475  0.60150  0.13868  Biso   1.000  C
  C1025    1.0000 0.03526  0.59875  0.20061  Biso   1.000  C
  C1026    1.0000 0.92243  0.52961  0.86324  Biso   1.000  C
  C1027    1.0000 0.94019  0.53281  0.06121  Biso   1.000  C
  C1028    1.0000 0.99959  0.71231  0.05929  Biso   1.000  C
  O137     1.0000 0.98456  0.74261  0.90931  Biso   1.000  O
  C1029    1.0000 0.04150  0.70245  0.06882  Biso   1.000  C
  H1418    1.0000 0.06020  0.72140  0.94929  Biso   1.000  H
  H1419    1.0000 0.14140  0.70421  0.84938  Biso   1.000  H
  H1420    1.0000 0.15250  0.73591  0.87534  Biso   1.000  H
  H1421    1.0000 0.14799  0.72630  0.75605  Biso   1.000  H
  H1422    1.0000 0.12479  0.77480  0.73402  Biso   1.000  H
  H1423    1.0000 0.12780  0.78272  0.85563  Biso   1.000  H
  H1424    1.0000 0.10220  0.78041  0.80564  Biso   1.000  H
  C1030    1.0000 0.99457  0.63236  0.15671  Biso   1.000  C
  H1425    1.0000 0.98100  0.59201  0.11304  Biso   1.000  H
  O138     1.0000 0.05550  0.58104  0.21791  Biso   1.000  O
  C1031    1.0000 0.03468  0.62957  0.21871  Biso   1.000  C
  H1426    1.0000 0.92511  0.53980  0.79643  Biso   1.000  H
  H1427    1.0000 0.90690  0.53480  0.88992  Biso   1.000  H
  H1428    1.0000 0.92339  0.50820  0.85243  Biso   1.000  H
  H1429    1.0000 0.94979  0.51540  0.07715  Biso   1.000  H
  H1430    1.0000 0.92389  0.52880  0.08164  Biso   1.000  H
  H1431    1.0000 0.94600  0.54991  0.10038  Biso   1.000  H
  C1032    1.0000 0.01846  0.69846  0.11208  Biso   1.000  C
  H1432    1.0000 0.98431  0.71060  0.08773  Biso   1.000  H
  C1033    1.0000 0.96073  0.73735  0.94592  Biso   1.000  C
  O139     1.0000 0.05973  0.68822  0.12394  Biso   1.000  O
  O140     1.0000 0.97474  0.64994  0.13604  Biso   1.000  O
  C1034    1.0000 0.01476  0.64664  0.19604  Biso   1.000  C
  C1035    1.0000 0.07114  0.58973  0.29779  Biso   1.000  C
  H1433    1.0000 0.04810  0.63899  0.24700  Biso   1.000  H
  C1036    1.0000 0.01462  0.68073  0.21399  Biso   1.000  C
  C1037    1.0000 0.94338  0.75152  0.86869  Biso   1.000  C
  H1434    1.0000 0.95780  0.71581  0.95065  Biso   1.000  H
  H1435    1.0000 0.95860  0.74601  0.01658  Biso   1.000  H
  C1038    1.0000 0.08324  0.68880  0.07683  Biso   1.000  C
  C1039    1.0000 0.95396  0.63599  0.09542  Biso   1.000  C
  C1040    1.0000 0.08649  0.56182  0.33056  Biso   1.000  C
  H1436    1.0000 0.07230  0.60901  0.32711  Biso   1.000  H
  H1437    1.0000 0.99939  0.68650  0.24523  Biso   1.000  H
  H1438    1.0000 0.02710  0.68592  0.26478  Biso   1.000  H
  H1439    1.0000 0.94659  0.77320  0.86693  Biso   1.000  H
  C1041    1.0000 0.91819  0.74710  0.91307  Biso   1.000  C
  C1042    1.0000 0.94554  0.73979  0.75701  Biso   1.000  C
  H1440    1.0000 0.08990  0.70890  0.08172  Biso   1.000  H
  H1441    1.0000 0.08229  0.68321  0.00168  Biso   1.000  H
  C1043    1.0000 0.09875  0.66674  0.13660  Biso   1.000  C
  C1044    1.0000 0.93610  0.65957  0.06265  Biso   1.000  C
  H1442    1.0000 0.94700  0.62311  0.14990  Biso   1.000  H
  H1443    1.0000 0.95800  0.62361  0.03413  Biso   1.000  H
  H1444    1.0000 0.09720  0.56821  0.38856  Biso   1.000  H
  C1045    1.0000 0.10179  0.55111  0.23971  Biso   1.000  C
  C1046    1.0000 0.07259  0.53741  0.36973  Biso   1.000  C
  H1445    1.0000 0.90670  0.75461  0.86244  Biso   1.000  H
  H1446    1.0000 0.91660  0.75790  0.97941  Biso   1.000  H
  H1447    1.0000 0.91540  0.72600  0.92541  Biso   1.000  H
  H1448    1.0000 0.96111  0.74461  0.72921  Biso   1.000  H
  H1449    1.0000 0.93349  0.74890  0.71279  Biso   1.000  H
  H1450    1.0000 0.94350  0.71831  0.75725  Biso   1.000  H
  H1451    1.0000 0.09080  0.64712  0.13483  Biso   1.000  H
  C1047    1.0000 0.10218  0.67520  0.25172  Biso   1.000  C
  C1048    1.0000 0.12231  0.66363  0.07779  Biso   1.000  C
  H1452    1.0000 0.94380  0.67261  0.00945  Biso   1.000  H
  C1049    1.0000 0.91494  0.64416  0.00801  Biso   1.000  C
  C1050    1.0000 0.92890  0.67931  0.15719  Biso   1.000  C
  H1453    1.0000 0.09200  0.54111  0.18739  Biso   1.000  H
  H1454    1.0000 0.11361  0.53721  0.26638  Biso   1.000  H
  H1455    1.0000 0.10969  0.56800  0.20726  Biso   1.000  H
  H1456    1.0000 0.06309  0.52920  0.31245  Biso   1.000  H
  H1457    1.0000 0.06220  0.54441  0.42581  Biso   1.000  H
  H1458    1.0000 0.08301  0.52201  0.39729  Biso   1.000  H
  H1459    1.0000 0.10999  0.69440  0.25589  Biso   1.000  H
  H1460    1.0000 0.11180  0.66020  0.28649  Biso   1.000  H
  H1461    1.0000 0.08690  0.67640  0.28649  Biso   1.000  H
  H1462    1.0000 0.11950  0.65521  0.00809  Biso   1.000  H
  H1463    1.0000 0.13280  0.65061  0.11761  Biso   1.000  H
  H1464    1.0000 0.12960  0.68310  0.07050  Biso   1.000  H
  H1465    1.0000 0.92060  0.63171  0.95065  Biso   1.000  H
  H1466    1.0000 0.90430  0.65921  0.97989  Biso   1.000  H
  H1467    1.0000 0.90661  0.63191  0.05921  Biso   1.000  H
  H1468    1.0000 0.92019  0.66740  0.20830  Biso   1.000  H
  H1469    1.0000 0.91900  0.69550  0.13243  Biso   1.000  H
  H1470    1.0000 0.94300  0.68741  0.19043  Biso   1.000  H
  C1051    1.0000 0.85796  0.77502  0.32791  Biso   1.000  C
  C1052    1.0000 0.88271  0.76151  0.33264  Biso   1.000  C
  H1471    1.0000 0.85860  0.79580  0.34938  Biso   1.000  H
  H1472    1.0000 0.84750  0.76410  0.37534  Biso   1.000  H
  H1473    1.0000 0.85199  0.77371  0.25597  Biso   1.000  H
  C1053    1.0000 0.88191  0.72774  0.30428  Biso   1.000  C
  C1054    1.0000 0.89903  0.77829  0.25709  Biso   1.000  C
  H1474    1.0000 0.88890  0.76370  0.40570  Biso   1.000  H
  H1475    1.0000 0.87519  0.72521  0.23402  Biso   1.000  H
  H1476    1.0000 0.87218  0.71730  0.35563  Biso   1.000  H
  H1477    1.0000 0.89780  0.71960  0.30564  Biso   1.000  H
  O141     1.0000 0.92259  0.76695  0.26622  Biso   1.000  O
  H1478    1.0000 0.89338  0.77590  0.18402  Biso   1.000  H
  H1479    1.0000 0.89889  0.79961  0.27432  Biso   1.000  H
  C1055    1.0000 0.94018  0.78096  0.20774  Biso   1.000  C
  C1056    1.0000 0.93580  0.80209  0.12891  Biso   1.000  C
  C1057    1.0000 0.96406  0.77288  0.23073  Biso   1.000  C
  H1480    1.0000 0.92009  0.80771  0.11497  Biso   1.000  H
  C1058    1.0000 0.95419  0.81527  0.06938  Biso   1.000  C
  C1059    1.0000 0.96972  0.75089  0.31942  Biso   1.000  C
  C1060    1.0000 0.98213  0.78583  0.17033  Biso   1.000  C
  C1061    1.0000 0.97775  0.80672  0.09101  Biso   1.000  C
  C1062    1.0000 0.94867  0.83904  0.98670  Biso   1.000  C
  H1481    1.0000 0.98379  0.73920  0.30043  Biso   1.000  H
  H1482    1.0000 0.95650  0.73701  0.32839  Biso   1.000  H
  C1063    1.0000 0.97419  0.76751  0.42389  Biso   1.000  C
  H1483    1.0000 0.99778  0.78021  0.18378  Biso   1.000  H
  O142     1.0000 0.99508  0.81985  0.02860  Biso   1.000  O
  C1064    1.0000 0.94893  0.87031  0.03493  Biso   1.000  C
  H1484    1.0000 0.93310  0.83510  0.95594  Biso   1.000  H
  H1485    1.0000 0.96039  0.83801  0.92950  Biso   1.000  H
  C1065    1.0000 0.99719  0.77139  0.46539  Biso   1.000  C
  C1066    1.0000 0.95512  0.78089  0.47661  Biso   1.000  C
  C1067    1.0000 0.01902  0.80972  0.04246  Biso   1.000  C
  C1068    1.0000 0.92902  0.88272  0.08508  Biso   1.000  C
  C1069    1.0000 0.96970  0.88752  0.02988  Biso   1.000  C
  O143     1.0000 0.01544  0.75740  0.40931  Biso   1.000  O
  C1070    1.0000 0.00041  0.78770  0.55929  Biso   1.000  C
  H1486    1.0000 0.93978  0.77861  0.44929  Biso   1.000  H
  C1071    1.0000 0.95848  0.79756  0.56882  Biso   1.000  C
  C1072    1.0000 0.03501  0.82118  0.95273  Biso   1.000  C
  H1487    1.0000 0.01929  0.78781  0.04350  Biso   1.000  H
  H1488    1.0000 0.02511  0.81691  0.11080  Biso   1.000  H
  O144     1.0000 0.90875  0.86557  0.08508  Biso   1.000  O
  C1073    1.0000 0.93058  0.91139  0.13139  Biso   1.000  C
  C1074    1.0000 0.97112  0.91579  0.07603  Biso   1.000  C
  H1489    1.0000 0.98298  0.87981  0.99471  Biso   1.000  H
  C1075    1.0000 0.03929  0.76266  0.44592  Biso   1.000  C
  C1076    1.0000 0.98152  0.80155  0.61208  Biso   1.000  C
  H1490    1.0000 0.01571  0.78942  0.58773  Biso   1.000  H
  O145     1.0000 0.94025  0.81179  0.62394  Biso   1.000  O
  H1491    1.0000 0.02988  0.81141  0.88624  Biso   1.000  H
  C1077    1.0000 0.06016  0.81089  0.97677  Biso   1.000  C
  C1078    1.0000 0.03325  0.85495  0.93623  Biso   1.000  C
  C1079    1.0000 0.88770  0.87726  0.13411  Biso   1.000  C
  C1080    1.0000 0.95140  0.92829  0.12746  Biso   1.000  C
  H1492    1.0000 0.91719  0.91931  0.16584  Biso   1.000  H
  O146     1.0000 0.99201  0.93298  0.07170  Biso   1.000  O
  C1081    1.0000 0.05662  0.74849  0.36869  Biso   1.000  C
  H1493    1.0000 0.04141  0.75400  0.51658  Biso   1.000  H
  H1494    1.0000 0.04220  0.78420  0.45057  Biso   1.000  H
  C1082    1.0000 0.98538  0.81928  0.71399  Biso   1.000  C
  C1083    1.0000 0.91676  0.81121  0.57683  Biso   1.000  C
  H1495    1.0000 0.07051  0.81622  0.91828  Biso   1.000  H
  H1496    1.0000 0.06029  0.78942  0.98638  Biso   1.000  H
  H1497    1.0000 0.06569  0.82050  0.04110  Biso   1.000  H
  H1498    1.0000 0.01680  0.86041  0.92517  Biso   1.000  H
  H1499    1.0000 0.04250  0.86061  0.87470  Biso   1.000  H
  H1500    1.0000 0.03930  0.86510  0.99840  Biso   1.000  H
  H1501    1.0000 0.88139  0.89382  0.09181  Biso   1.000  H
  H1502    1.0000 0.89140  0.88482  0.20518  Biso   1.000  H
  C1084    1.0000 0.86920  0.85213  0.14180  Biso   1.000  C
  C1085    1.0000 0.95274  0.95845  0.18194  Biso   1.000  C
  C1086    1.0000 0.00395  0.93433  0.97308  Biso   1.000  C
  H1503    1.0000 0.05341  0.72682  0.36693  Biso   1.000  H
  C1087    1.0000 0.08181  0.75292  0.41307  Biso   1.000  C
  C1088    1.0000 0.05446  0.76022  0.25701  Biso   1.000  C
  C1089    1.0000 0.98522  0.85337  0.69604  Biso   1.000  C
  H1504    1.0000 0.97289  0.81412  0.76478  Biso   1.000  H
  H1505    1.0000 0.00061  0.81351  0.74523  Biso   1.000  H
  H1506    1.0000 0.91010  0.79111  0.58172  Biso   1.000  H
  H1507    1.0000 0.91769  0.81680  0.50168  Biso   1.000  H
  C1090    1.0000 0.90125  0.83327  0.63660  Biso   1.000  C
  H1508    1.0000 0.87619  0.83541  0.18218  Biso   1.000  H
  C1091    1.0000 0.84759  0.86291  0.20037  Biso   1.000  C
  C1092    1.0000 0.86232  0.84060  0.03068  Biso   1.000  C
  H1509    1.0000 0.93708  0.96790  0.17994  Biso   1.000  H
  H1510    1.0000 0.96379  0.97131  0.14293  Biso   1.000  H
  C1093    1.0000 0.96095  0.95599  0.29763  Biso   1.000  C
  H1511    1.0000 0.99859  0.92330  0.91460  Biso   1.000  H
  C1094    1.0000 0.02388  0.95251  0.96531  Biso   1.000  C
  H1512    1.0000 0.09330  0.74540  0.36244  Biso   1.000  H
  H1513    1.0000 0.08340  0.74211  0.47941  Biso   1.000  H
  H1514    1.0000 0.08460  0.77401  0.42541  Biso   1.000  H
  H1515    1.0000 0.03891  0.75540  0.22921  Biso   1.000  H
  H1516    1.0000 0.06651  0.75111  0.21279  Biso   1.000  H
  H1517    1.0000 0.05652  0.78170  0.25717  Biso   1.000  H
  C1095    1.0000 0.96532  0.87047  0.71871  Biso   1.000  C
  C1096    1.0000 0.00543  0.86765  0.65671  Biso   1.000  C
  H1518    1.0000 0.90918  0.85292  0.63483  Biso   1.000  H
  C1097    1.0000 0.89780  0.82481  0.75172  Biso   1.000  C
  C1098    1.0000 0.87767  0.83638  0.57779  Biso   1.000  C
  H1519    1.0000 0.85218  0.87011  0.26991  Biso   1.000  H
  H1520    1.0000 0.83649  0.84651  0.20822  Biso   1.000  H
  H1521    1.0000 0.84019  0.87891  0.16079  Biso   1.000  H
  H1522    1.0000 0.85479  0.82131  0.03709  Biso   1.000  H
  H1523    1.0000 0.85140  0.85461  0.99792  Biso   1.000  H
  H1524    1.0000 0.87639  0.83891  0.98726  Biso   1.000  H
  C1099    1.0000 0.94429  0.95211  0.38071  Biso   1.000  C
  C1100    1.0000 0.98542  0.95671  0.32527  Biso   1.000  C
  C1101    1.0000 0.03780  0.95030  0.86156  Biso   1.000  C
  C1102    1.0000 0.03451  0.96761  0.04502  Biso   1.000  C
  C1103    1.0000 0.96472  0.90126  0.70061  Biso   1.000  C
  H1525    1.0000 0.95188  0.86102  0.74700  Biso   1.000  H
  O147     1.0000 0.02526  0.85008  0.63604  Biso   1.000  O
  C1104    1.0000 0.00527  0.89851  0.63868  Biso   1.000  C
  H1526    1.0000 0.88999  0.80561  0.75589  Biso   1.000  H
  H1527    1.0000 0.88820  0.83981  0.78649  Biso   1.000  H
  H1528    1.0000 0.91310  0.82361  0.78649  Biso   1.000  H
  H1529    1.0000 0.88050  0.84480  0.50809  Biso   1.000  H
  H1530    1.0000 0.86720  0.84940  0.61761  Biso   1.000  H
  H1531    1.0000 0.87040  0.81691  0.57050  Biso   1.000  H
  O148     1.0000 0.92041  0.95071  0.35002  Biso   1.000  O
  C1105    1.0000 0.95197  0.95006  0.48494  Biso   1.000  C
  H1532    1.0000 0.99678  0.95901  0.27167  Biso   1.000  H
  C1106    1.0000 0.99265  0.95416  0.43014  Biso   1.000  C
  H1533    1.0000 0.03501  0.96810  0.81926  Biso   1.000  H
  H1534    1.0000 0.03271  0.93291  0.82238  Biso   1.000  H
  H1535    1.0000 0.05460  0.94870  0.87718  Biso   1.000  H
  H1536    1.0000 0.02250  0.97530  0.09301  Biso   1.000  H
  H1537    1.0000 0.04350  0.98412  0.01610  Biso   1.000  H
  H1538    1.0000 0.04492  0.95421  0.08332  Biso   1.000  H
  O149     1.0000 0.94450  0.91897  0.71791  Biso   1.000  O
  C1107    1.0000 0.98456  0.91570  0.65871  Biso   1.000  C
  C1108    1.0000 0.04606  0.86402  0.59542  Biso   1.000  C
  H1539    1.0000 0.01902  0.90801  0.61304  Biso   1.000  H
  C1109    1.0000 0.90371  0.94340  0.43551  Biso   1.000  C
  H1540    1.0000 0.94078  0.94762  0.53918  Biso   1.000  H
  C1110    1.0000 0.97625  0.95159  0.51162  Biso   1.000  C
  O150     1.0000 0.01632  0.95353  0.46002  Biso   1.000  O
  C1111    1.0000 0.92884  0.91028  0.79779  Biso   1.000  C
  C1112    1.0000 0.98416  0.94868  0.62674  Biso   1.000  C
  C1113    1.0000 0.06392  0.84044  0.56257  Biso   1.000  C
  H1541    1.0000 0.05300  0.87690  0.64990  Biso   1.000  H
  H1542    1.0000 0.04199  0.87640  0.53413  Biso   1.000  H
  C1114    1.0000 0.87887  0.94202  0.38680  Biso   1.000  C
  H1543    1.0000 0.90429  0.95872  0.49095  Biso   1.000  H
  H1544    1.0000 0.90779  0.92411  0.46731  Biso   1.000  H
  C1115    1.0000 0.03403  0.96321  0.39208  Biso   1.000  C
  C1116    1.0000 0.91349  0.93819  0.83048  Biso   1.000  C
  H1545    1.0000 0.92768  0.89100  0.82711  Biso   1.000  H
  H1546    1.0000 0.97330  0.95971  0.67281  Biso   1.000  H
  H1547    1.0000 0.00002  0.95732  0.63523  Biso   1.000  H
  H1548    1.0000 0.05621  0.82740  0.50937  Biso   1.000  H
  C1117    1.0000 0.08508  0.85585  0.50801  Biso   1.000  C
  C1118    1.0000 0.07110  0.82073  0.65719  Biso   1.000  C
  H1549    1.0000 0.87958  0.92901  0.32343  Biso   1.000  H
  C1119    1.0000 0.87008  0.97189  0.35347  Biso   1.000  C
  C1120    1.0000 0.86216  0.92743  0.46819  Biso   1.000  C
  H1550    1.0000 0.03130  0.97040  0.32311  Biso   1.000  H
  C1121    1.0000 0.05875  0.96070  0.44360  Biso   1.000  C
  H1551    1.0000 0.90278  0.93181  0.88848  Biso   1.000  H
  C1122    1.0000 0.89819  0.94890  0.73971  Biso   1.000  C
  C1123    1.0000 0.92741  0.96260  0.86973  Biso   1.000  C
  H1552    1.0000 0.07941  0.86830  0.45057  Biso   1.000  H
  H1553    1.0000 0.09570  0.84080  0.47989  Biso   1.000  H
  H1554    1.0000 0.09341  0.86810  0.55921  Biso   1.000  H
  H1555    1.0000 0.07981  0.83262  0.70830  Biso   1.000  H
  H1556    1.0000 0.08100  0.80451  0.63243  Biso   1.000  H
  H1557    1.0000 0.05702  0.81261  0.69043  Biso   1.000  H
  H1558    1.0000 0.86859  0.98471  0.41524  Biso   1.000  H
  H1559    1.0000 0.85469  0.96970  0.31990  Biso   1.000  H
  H1560    1.0000 0.88109  0.98071  0.30372  Biso   1.000  H
  H1561    1.0000 0.86798  0.90771  0.48638  Biso   1.000  H
  H1562    1.0000 0.84650  0.92571  0.43791  Biso   1.000  H
  H1563    1.0000 0.86150  0.93970  0.53149  Biso   1.000  H
  C1124    1.0000 0.07757  0.97040  0.36324  Biso   1.000  C
  C1125    1.0000 0.05981  0.96720  0.56121  Biso   1.000  C
  H1564    1.0000 0.90799  0.95890  0.68739  Biso   1.000  H
  H1565    1.0000 0.88639  0.96280  0.76638  Biso   1.000  H
  H1566    1.0000 0.89029  0.93201  0.70718  Biso   1.000  H
  H1567    1.0000 0.93689  0.97081  0.81245  Biso   1.000  H
  H1568    1.0000 0.93780  0.95560  0.92581  Biso   1.000  H
  H1569    1.0000 0.91699  0.97801  0.89729  Biso   1.000  H
  H1570    1.0000 0.07491  0.96021  0.29643  Biso   1.000  H
  H1571    1.0000 0.09309  0.96521  0.38992  Biso   1.000  H
  H1572    1.0000 0.07659  0.99181  0.35243  Biso   1.000  H
  H1573    1.0000 0.05021  0.98462  0.57707  Biso   1.000  H
  H1574    1.0000 0.07611  0.97122  0.58164  Biso   1.000  H
  H1575    1.0000 0.05401  0.95010  0.60038  Biso   1.000  H
  C1126    1.0000 0.14204  0.22500  0.32791  Biso   1.000  C
  C1127    1.0000 0.11729  0.23849  0.33264  Biso   1.000  C
  H1576    1.0000 0.14140  0.20420  0.34938  Biso   1.000  H
  H1577    1.0000 0.15250  0.23590  0.37534  Biso   1.000  H
  H1578    1.0000 0.14799  0.22631  0.25597  Biso   1.000  H
  C1128    1.0000 0.10095  0.22171  0.25709  Biso   1.000  C
  H1579    1.0000 0.11110  0.23630  0.40570  Biso   1.000  H
  C1129    1.0000 0.11809  0.27226  0.30428  Biso   1.000  C
  O151     1.0000 0.07741  0.23305  0.26622  Biso   1.000  O
  H1580    1.0000 0.10660  0.22410  0.18402  Biso   1.000  H
  H1581    1.0000 0.10109  0.20041  0.27432  Biso   1.000  H
  H1582    1.0000 0.12479  0.27481  0.23402  Biso   1.000  H
  H1583    1.0000 0.12780  0.28270  0.35563  Biso   1.000  H
  H1584    1.0000 0.10220  0.28040  0.30564  Biso   1.000  H
  C1130    1.0000 0.05981  0.21907  0.20774  Biso   1.000  C
  C1131    1.0000 0.06418  0.19793  0.12891  Biso   1.000  C
  C1132    1.0000 0.03594  0.22714  0.23073  Biso   1.000  C
  H1585    1.0000 0.07990  0.19231  0.11497  Biso   1.000  H
  C1133    1.0000 0.04579  0.18475  0.06938  Biso   1.000  C
  C1134    1.0000 0.03028  0.24911  0.31942  Biso   1.000  C
  C1135    1.0000 0.01787  0.21417  0.17033  Biso   1.000  C
  C1136    1.0000 0.02223  0.19328  0.09101  Biso   1.000  C
  C1137    1.0000 0.05132  0.16096  0.98670  Biso   1.000  C
  H1586    1.0000 0.01619  0.26080  0.30043  Biso   1.000  H
  H1587    1.0000 0.04350  0.26301  0.32839  Biso   1.000  H
  C1138    1.0000 0.02579  0.23251  0.42389  Biso   1.000  C
  H1588    1.0000 0.00220  0.21981  0.18378  Biso   1.000  H
  O152     1.0000 0.00490  0.18015  0.02860  Biso   1.000  O
  C1139    1.0000 0.05105  0.12971  0.03493  Biso   1.000  C
  H1589    1.0000 0.06690  0.16490  0.95594  Biso   1.000  H
  H1590    1.0000 0.03961  0.16199  0.92950  Biso   1.000  H
  C1140    1.0000 0.00281  0.22863  0.46539  Biso   1.000  C
  C1141    1.0000 0.04486  0.21911  0.47661  Biso   1.000  C
  C1142    1.0000 0.98096  0.19028  0.04246  Biso   1.000  C
  C1143    1.0000 0.07096  0.11730  0.08508  Biso   1.000  C
  C1144    1.0000 0.03030  0.11248  0.02988  Biso   1.000  C
  O153     1.0000 0.98456  0.24262  0.40931  Biso   1.000  O
  C1145    1.0000 0.99959  0.21232  0.55929  Biso   1.000  C
  H1591    1.0000 0.06020  0.22141  0.44929  Biso   1.000  H
  C1146    1.0000 0.04150  0.20244  0.56882  Biso   1.000  C
  C1147    1.0000 0.96499  0.17882  0.95273  Biso   1.000  C
  H1592    1.0000 0.98070  0.21221  0.04350  Biso   1.000  H
  H1593    1.0000 0.97491  0.18311  0.11080  Biso   1.000  H
  O154     1.0000 0.09123  0.13445  0.08508  Biso   1.000  O
  C1148    1.0000 0.06942  0.08861  0.13139  Biso   1.000  C
  C1149    1.0000 0.02887  0.08421  0.07603  Biso   1.000  C
  H1594    1.0000 0.01700  0.12019  0.99471  Biso   1.000  H
  C1150    1.0000 0.96073  0.23734  0.44592  Biso   1.000  C
  C1151    1.0000 0.01846  0.19845  0.61208  Biso   1.000  C
  H1595    1.0000 0.98431  0.21061  0.58773  Biso   1.000  H
  O155     1.0000 0.05973  0.18821  0.62394  Biso   1.000  O
  H1596    1.0000 0.97010  0.18861  0.88624  Biso   1.000  H
  C1152    1.0000 0.93984  0.18911  0.97677  Biso   1.000  C
  C1153    1.0000 0.96675  0.14507  0.93623  Biso   1.000  C
  C1154    1.0000 0.11230  0.12274  0.13411  Biso   1.000  C
  C1155    1.0000 0.04858  0.07174  0.12746  Biso   1.000  C
  H1597    1.0000 0.08279  0.08069  0.16584  Biso   1.000  H
  O156     1.0000 0.00797  0.06702  0.07170  Biso   1.000  O
  C1156    1.0000 0.94338  0.25153  0.36869  Biso   1.000  C
  H1598    1.0000 0.95860  0.24600  0.51658  Biso   1.000  H
  H1599    1.0000 0.95780  0.21580  0.45057  Biso   1.000  H
  C1157    1.0000 0.01462  0.18074  0.71399  Biso   1.000  C
  C1158    1.0000 0.08324  0.18879  0.57683  Biso   1.000  C
  H1600    1.0000 0.92951  0.18381  0.91828  Biso   1.000  H
  H1601    1.0000 0.93969  0.21061  0.98638  Biso   1.000  H
  H1602    1.0000 0.93430  0.17950  0.04110  Biso   1.000  H
  H1603    1.0000 0.98320  0.13959  0.92517  Biso   1.000  H
  H1604    1.0000 0.95750  0.13941  0.87470  Biso   1.000  H
  H1605    1.0000 0.96070  0.13490  0.99840  Biso   1.000  H
  H1606    1.0000 0.11859  0.10621  0.09181  Biso   1.000  H
  H1607    1.0000 0.10860  0.11521  0.20518  Biso   1.000  H
  C1159    1.0000 0.13080  0.14787  0.14180  Biso   1.000  C
  C1160    1.0000 0.04726  0.04155  0.18194  Biso   1.000  C
  C1161    1.0000 0.99605  0.06567  0.97308  Biso   1.000  C
  H1608    1.0000 0.94659  0.27321  0.36693  Biso   1.000  H
  C1162    1.0000 0.91819  0.24711  0.41307  Biso   1.000  C
  C1163    1.0000 0.94554  0.23978  0.25701  Biso   1.000  C
  C1164    1.0000 0.01476  0.14663  0.69604  Biso   1.000  C
  H1609    1.0000 0.02710  0.18591  0.76478  Biso   1.000  H
  H1610    1.0000 0.99939  0.18649  0.74523  Biso   1.000  H
  H1611    1.0000 0.08990  0.20889  0.58172  Biso   1.000  H
  H1612    1.0000 0.08229  0.18320  0.50168  Biso   1.000  H
  C1165    1.0000 0.09875  0.16673  0.63660  Biso   1.000  C
  H1613    1.0000 0.12379  0.16461  0.18218  Biso   1.000  H
  C1166    1.0000 0.15241  0.13711  0.20037  Biso   1.000  C
  C1167    1.0000 0.13768  0.15940  0.03068  Biso   1.000  C
  H1614    1.0000 0.06290  0.03210  0.17994  Biso   1.000  H
  H1615    1.0000 0.03619  0.02869  0.14293  Biso   1.000  H
  C1168    1.0000 0.03904  0.04403  0.29763  Biso   1.000  C
  C1169    1.0000 0.97612  0.04751  0.96531  Biso   1.000  C
  H1616    1.0000 0.00139  0.07670  0.91460  Biso   1.000  H
  H1617    1.0000 0.90670  0.25460  0.36244  Biso   1.000  H
  H1618    1.0000 0.91660  0.25791  0.47941  Biso   1.000  H
  H1619    1.0000 0.91540  0.22599  0.42541  Biso   1.000  H
  H1620    1.0000 0.96111  0.24460  0.22921  Biso   1.000  H
  H1621    1.0000 0.93349  0.24891  0.21279  Biso   1.000  H
  H1622    1.0000 0.94350  0.21830  0.25717  Biso   1.000  H
  C1170    1.0000 0.03468  0.12955  0.71871  Biso   1.000  C
  C1171    1.0000 0.99457  0.13235  0.65671  Biso   1.000  C
  H1623    1.0000 0.09080  0.14710  0.63483  Biso   1.000  H
  C1172    1.0000 0.10218  0.17519  0.75172  Biso   1.000  C
  C1173    1.0000 0.12231  0.16364  0.57779  Biso   1.000  C
  H1624    1.0000 0.14780  0.12989  0.26991  Biso   1.000  H
  H1625    1.0000 0.16349  0.15351  0.20822  Biso   1.000  H
  H1626    1.0000 0.15979  0.12109  0.16079  Biso   1.000  H
  H1627    1.0000 0.14521  0.17871  0.03709  Biso   1.000  H
  H1628    1.0000 0.14860  0.14539  0.99792  Biso   1.000  H
  H1629    1.0000 0.12360  0.16109  0.98726  Biso   1.000  H
  C1174    1.0000 0.05569  0.04789  0.38071  Biso   1.000  C
  C1175    1.0000 0.01457  0.04329  0.32527  Biso   1.000  C
  C1176    1.0000 0.96220  0.04970  0.86156  Biso   1.000  C
  C1177    1.0000 0.96550  0.03239  0.04502  Biso   1.000  C
  C1178    1.0000 0.03526  0.09876  0.70061  Biso   1.000  C
  H1630    1.0000 0.04810  0.13901  0.74700  Biso   1.000  H
  O157     1.0000 0.97474  0.14992  0.63604  Biso   1.000  O
  C1179    1.0000 0.99475  0.10149  0.63868  Biso   1.000  C
  H1631    1.0000 0.10999  0.19441  0.75589  Biso   1.000  H
  H1632    1.0000 0.11180  0.16021  0.78649  Biso   1.000  H
  H1633    1.0000 0.08690  0.17641  0.78649  Biso   1.000  H
  H1634    1.0000 0.11950  0.15520  0.50809  Biso   1.000  H
  H1635    1.0000 0.13280  0.15060  0.61761  Biso   1.000  H
  H1636    1.0000 0.12960  0.18311  0.57050  Biso   1.000  H
  O158     1.0000 0.07957  0.04929  0.35002  Biso   1.000  O
  C1180    1.0000 0.04803  0.04994  0.48494  Biso   1.000  C
  H1637    1.0000 0.00320  0.04101  0.27167  Biso   1.000  H
  C1181    1.0000 0.00735  0.04586  0.43014  Biso   1.000  C
  H1638    1.0000 0.96500  0.03190  0.81926  Biso   1.000  H
  H1639    1.0000 0.96731  0.06711  0.82238  Biso   1.000  H
  H1640    1.0000 0.94540  0.05130  0.87718  Biso   1.000  H
  H1641    1.0000 0.97750  0.02470  0.09301  Biso   1.000  H
  H1642    1.0000 0.95650  0.01590  0.01610  Biso   1.000  H
  H1643    1.0000 0.95510  0.04579  0.08332  Biso   1.000  H
  O159     1.0000 0.05550  0.08103  0.71791  Biso   1.000  O
  C1182    1.0000 0.01543  0.08430  0.65871  Biso   1.000  C
  C1183    1.0000 0.95396  0.13598  0.59542  Biso   1.000  C
  H1644    1.0000 0.98100  0.09199  0.61304  Biso   1.000  H
  C1184    1.0000 0.09629  0.05660  0.43551  Biso   1.000  C
  H1645    1.0000 0.05920  0.05240  0.53918  Biso   1.000  H
  C1185    1.0000 0.02374  0.04841  0.51162  Biso   1.000  C
  O160     1.0000 0.98368  0.04647  0.46002  Biso   1.000  O
  C1186    1.0000 0.07114  0.08974  0.79779  Biso   1.000  C
  C1187    1.0000 0.01584  0.05132  0.62674  Biso   1.000  C
  C1188    1.0000 0.93610  0.15958  0.56257  Biso   1.000  C
  H1646    1.0000 0.94700  0.12310  0.64990  Biso   1.000  H
  H1647    1.0000 0.95800  0.12360  0.53413  Biso   1.000  H
  C1189    1.0000 0.12111  0.05798  0.38680  Biso   1.000  C
  H1648    1.0000 0.09570  0.04130  0.49095  Biso   1.000  H
  H1649    1.0000 0.09219  0.07591  0.46731  Biso   1.000  H
  C1190    1.0000 0.96599  0.03679  0.39208  Biso   1.000  C
  C1191    1.0000 0.08649  0.06181  0.83048  Biso   1.000  C
  H1650    1.0000 0.07230  0.10900  0.82711  Biso   1.000  H
  H1651    1.0000 0.02670  0.04029  0.67281  Biso   1.000  H
  H1652    1.0000 0.00000  0.04270  0.63523  Biso   1.000  H
  H1653    1.0000 0.94380  0.17260  0.50937  Biso   1.000  H
  C1192    1.0000 0.91494  0.14415  0.50801  Biso   1.000  C
  C1193    1.0000 0.92890  0.17930  0.65719  Biso   1.000  C
  H1654    1.0000 0.12040  0.07099  0.32343  Biso   1.000  H
  C1194    1.0000 0.12991  0.02813  0.35347  Biso   1.000  C
  C1195    1.0000 0.13784  0.07257  0.46819  Biso   1.000  C
  H1655    1.0000 0.96870  0.02960  0.32311  Biso   1.000  H
  C1196    1.0000 0.94125  0.03930  0.44360  Biso   1.000  C
  H1656    1.0000 0.09720  0.06819  0.88848  Biso   1.000  H
  C1197    1.0000 0.10179  0.05110  0.73971  Biso   1.000  C
  C1198    1.0000 0.07259  0.03740  0.86973  Biso   1.000  C
  H1657    1.0000 0.92060  0.13170  0.45057  Biso   1.000  H
  H1658    1.0000 0.90430  0.15920  0.47989  Biso   1.000  H
  H1659    1.0000 0.90661  0.13190  0.55921  Biso   1.000  H
  H1660    1.0000 0.92019  0.16741  0.70830  Biso   1.000  H
  H1661    1.0000 0.91900  0.19549  0.63243  Biso   1.000  H
  H1662    1.0000 0.94300  0.18739  0.69043  Biso   1.000  H
  H1663    1.0000 0.13141  0.01529  0.41524  Biso   1.000  H
  H1664    1.0000 0.14530  0.03030  0.31990  Biso   1.000  H
  H1665    1.0000 0.11890  0.01931  0.30372  Biso   1.000  H
  H1666    1.0000 0.13200  0.09231  0.48638  Biso   1.000  H
  H1667    1.0000 0.15350  0.07431  0.43791  Biso   1.000  H
  H1668    1.0000 0.13850  0.06030  0.53149  Biso   1.000  H
  C1199    1.0000 0.92243  0.02960  0.36324  Biso   1.000  C
  C1200    1.0000 0.94019  0.03280  0.56121  Biso   1.000  C
  H1669    1.0000 0.09200  0.04110  0.68739  Biso   1.000  H
  H1670    1.0000 0.11361  0.03720  0.76638  Biso   1.000  H
  H1671    1.0000 0.10969  0.06799  0.70718  Biso   1.000  H
  H1672    1.0000 0.06309  0.02919  0.81245  Biso   1.000  H
  H1673    1.0000 0.06220  0.04440  0.92581  Biso   1.000  H
  H1674    1.0000 0.08301  0.02199  0.89729  Biso   1.000  H
  H1675    1.0000 0.92511  0.03979  0.29643  Biso   1.000  H
  H1676    1.0000 0.90690  0.03481  0.38992  Biso   1.000  H
  H1677    1.0000 0.92339  0.00821  0.35243  Biso   1.000  H
  H1678    1.0000 0.94979  0.01541  0.57707  Biso   1.000  H
  H1679    1.0000 0.92389  0.02881  0.58164  Biso   1.000  H
  H1680    1.0000 0.94600  0.04990  0.60038  Biso   1.000  H
  Ne1      1.0000 0.21814  0.38512  0.61410  Biso   1.000  Ne
  He1      1.0000 0.10159  0.41039  0.64784  Biso   1.000  He
  He2      1.0000 0.31028  0.35743  0.47056  Biso   1.000  He
  Ar1      1.0000 0.22258  0.38436  0.60359  Biso   1.000  Ar
  Ne2      1.0000 0.28186  0.11488  0.61410  Biso   1.000  Ne
  He3      1.0000 0.39296  0.11887  0.67651  Biso   1.000  He
  He4      1.0000 0.19413  0.14328  0.47834  Biso   1.000  He
  Ar2      1.0000 0.27794  0.11565  0.60303  Biso   1.000  Ar
  Ne3      1.0000 0.46814  0.36489  0.36409  Biso   1.000  Ne
  He5      1.0000 0.41282  0.39791  0.60078  Biso   1.000  He
  He6      1.0000 0.55313  0.39218  0.23326  Biso   1.000  He
  Ar3      1.0000 0.47650  0.36436  0.35174  Biso   1.000  Ar
  Ne4      1.0000 0.03186  0.13512  0.36409  Biso   1.000  Ne
  He7      1.0000 0.14881  0.16040  0.39854  Biso   1.000  He
  He8      1.0000 0.94455  0.10664  0.22905  Biso   1.000  He
  Ar4      1.0000 0.02740  0.13439  0.35347  Biso   1.000  Ar
  Ne5      1.0000 0.53185  0.13512  0.86410  Biso   1.000  Ne
  He9      1.0000 0.64881  0.16041  0.89857  Biso   1.000  He
  He10     1.0000 0.44455  0.10665  0.72909  Biso   1.000  He
  Ar5      1.0000 0.52744  0.13438  0.85349  Biso   1.000  Ar
  Ne6      1.0000 0.28186  0.61489  0.11409  Biso   1.000  Ne
  He11     1.0000 0.36628  0.64382  0.37373  Biso   1.000  He
  He12     1.0000 0.19412  0.64329  0.97830  Biso   1.000  He
  Ar6      1.0000 0.27744  0.61563  0.10345  Biso   1.000  Ar
  Ne7      1.0000 0.53185  0.63512  0.36409  Biso   1.000  Ne
  He13     1.0000 0.64881  0.66041  0.39853  Biso   1.000  He
  He14     1.0000 0.44455  0.60665  0.22905  Biso   1.000  He
  Ar7      1.0000 0.52744  0.63440  0.35347  Biso   1.000  Ar
  Ne8      1.0000 0.03186  0.63512  0.86410  Biso   1.000  Ne
  He15     1.0000 0.14881  0.66042  0.89856  Biso   1.000  He
  He16     1.0000 0.94455  0.60667  0.72909  Biso   1.000  He
  Ar8      1.0000 0.02743  0.63439  0.85349  Biso   1.000  Ar
  Ne9      1.0000 0.71813  0.38512  0.11409  Biso   1.000  Ne
  He17     1.0000 0.60155  0.41007  0.14826  Biso   1.000  He
  He18     1.0000 0.81028  0.35743  0.97051  Biso   1.000  He
  Ar9      1.0000 0.72639  0.38563  0.10163  Biso   1.000  Ar
  Ne10     1.0000 0.78185  0.11488  0.11409  Biso   1.000  Ne
  He19     1.0000 0.86629  0.14382  0.37370  Biso   1.000  He
  He20     1.0000 0.69412  0.14327  0.97831  Biso   1.000  He
  Ar10     1.0000 0.77757  0.11562  0.10339  Biso   1.000  Ar
  Ne11     1.0000 0.46814  0.86489  0.86410  Biso   1.000  Ne
  He21     1.0000 0.41282  0.89793  0.10078  Biso   1.000  He
  He22     1.0000 0.57979  0.88951  0.68605  Biso   1.000  He
  Ar11     1.0000 0.47251  0.86564  0.85352  Biso   1.000  Ar
  Ne12     1.0000 0.21814  0.88513  0.11409  Biso   1.000  Ne
  He23     1.0000 0.10159  0.91039  0.14793  Biso   1.000  He
  He24     1.0000 0.31028  0.85742  0.97052  Biso   1.000  He
  Ar12     1.0000 0.22256  0.88438  0.10343  Biso   1.000  Ar
  Ne13     1.0000 0.78185  0.61489  0.61410  Biso   1.000  Ne
  He25     1.0000 0.86628  0.64382  0.87373  Biso   1.000  He
  He26     1.0000 0.69413  0.64329  0.47835  Biso   1.000  He
  Ar13     1.0000 0.77743  0.61562  0.60345  Biso   1.000  Ar
  Ne14     1.0000 0.71813  0.88513  0.61410  Biso   1.000  Ne
  He27     1.0000 0.60158  0.91032  0.64800  Biso   1.000  He
  He28     1.0000 0.81028  0.85742  0.47054  Biso   1.000  He
  Ar14     1.0000 0.72253  0.88433  0.60385  Biso   1.000  Ar
  Ne15     1.0000 0.96814  0.36489  0.86410  Biso   1.000  Ne
  He29     1.0000 0.91281  0.39792  0.10082  Biso   1.000  He
  He30     1.0000 0.05316  0.39217  0.73330  Biso   1.000  He
  Ar15     1.0000 0.97642  0.36437  0.85167  Biso   1.000  Ar
  Ne16     1.0000 0.96814  0.86489  0.36409  Biso   1.000  Ne
  He31     1.0000 0.91281  0.89793  0.60082  Biso   1.000  He
  He32     1.0000 0.07980  0.88953  0.18602  Biso   1.000  He
  Ar16     1.0000 0.97333  0.86554  0.35456  Biso   1.000  Ar
