data_image0
_cell_length_a       27.391
_cell_length_b       20.23
_cell_length_c       13.282
_cell_angle_alpha    90
_cell_angle_beta     116.53
_cell_angle_gamma    90

_symmetry_space_group_name_H-M    "P 1"
_symmetry_int_tables_number       1

loop_
  _symmetry_equiv_pos_as_xyz
  'x, y, z'

loop_
  _atom_site_label
  _atom_site_occupancy
  _atom_site_fract_x
  _atom_site_fract_y
  _atom_site_fract_z
  _atom_site_thermal_displace_type
  _atom_site_B_iso_or_equiv
  _atom_site_type_symbol
  C1       1.0000 0.42040  0.40890  0.65604  Biso   1.000  C
  C2       1.0000 0.42381  0.37622  0.55346  Biso   1.000  C
  N1       1.0000 0.36505  0.43638  0.60648  Biso   1.000  N
  N2       1.0000 0.42771  0.35319  0.73144  Biso   1.000  N
  H1       1.0000 0.44831  0.44301  0.69122  Biso   1.000  H
  N3       1.0000 0.37331  0.39629  0.45837  Biso   1.000  N
  N4       1.0000 0.42725  0.30559  0.57963  Biso   1.000  N
  H2       1.0000 0.45588  0.39150  0.54547  Biso   1.000  H
  C3       1.0000 0.34061  0.43361  0.48993  Biso   1.000  C
  C4       1.0000 0.34851  0.48581  0.66530  Biso   1.000  C
  C5       1.0000 0.42971  0.29318  0.68339  Biso   1.000  C
  C6       1.0000 0.42420  0.35808  0.83696  Biso   1.000  C
  C7       1.0000 0.35882  0.38092  0.34291  Biso   1.000  C
  C8       1.0000 0.44338  0.25551  0.52266  Biso   1.000  C
  O1       1.0000 0.29733  0.45932  0.42648  Biso   1.000  O
  N5       1.0000 0.31711  0.45779  0.71907  Biso   1.000  N
  H3       1.0000 0.38082  0.50712  0.72210  Biso   1.000  H
  H4       1.0000 0.32669  0.51938  0.61211  Biso   1.000  H
  O2       1.0000 0.43331  0.23890  0.72748  Biso   1.000  O
  H5       1.0000 0.44270  0.32042  0.88358  Biso   1.000  H
  H6       1.0000 0.44340  0.39758  0.87618  Biso   1.000  H
  N6       1.0000 0.36892  0.36050  0.82392  Biso   1.000  N
  N7       1.0000 0.33685  0.31369  0.30858  Biso   1.000  N
  H7       1.0000 0.33189  0.41261  0.29512  Biso   1.000  H
  H8       1.0000 0.39089  0.38601  0.33038  Biso   1.000  H
  N8       1.0000 0.39760  0.22669  0.42404  Biso   1.000  N
  H9       1.0000 0.46902  0.27479  0.49893  Biso   1.000  H
  H10      1.0000 0.46221  0.22042  0.57568  Biso   1.000  H
  C9       1.0000 0.26129  0.45388  0.66681  Biso   1.000  C
  C10      1.0000 0.34130  0.42239  0.82619  Biso   1.000  C
  C11      1.0000 0.34449  0.30702  0.84631  Biso   1.000  C
  C12      1.0000 0.28498  0.30440  0.22906  Biso   1.000  C
  C13      1.0000 0.37239  0.25808  0.31540  Biso   1.000  C
  C14      1.0000 0.37180  0.17000  0.42833  Biso   1.000  C
  O3       1.0000 0.23012  0.47642  0.57450  Biso   1.000  O
  N9       1.0000 0.24487  0.41992  0.73699  Biso   1.000  N
  C15      1.0000 0.29120  0.39802  0.84134  Biso   1.000  C
  H11      1.0000 0.36499  0.45121  0.88821  Biso   1.000  H
  N10      1.0000 0.29786  0.32719  0.85018  Biso   1.000  N
  O4       1.0000 0.36235  0.24978  0.86086  Biso   1.000  O
  N11      1.0000 0.28105  0.24202  0.18261  Biso   1.000  N
  O5       1.0000 0.24675  0.34454  0.20003  Biso   1.000  O
  C16      1.0000 0.33111  0.20499  0.24008  Biso   1.000  C
  H12      1.0000 0.39909  0.26980  0.28796  Biso   1.000  H
  N12      1.0000 0.33064  0.15699  0.32171  Biso   1.000  N
  O6       1.0000 0.38313  0.13500  0.51248  Biso   1.000  O
  C17      1.0000 0.18859  0.41102  0.71108  Biso   1.000  C
  H13      1.0000 0.29018  0.41730  0.90807  Biso   1.000  H
  C18      1.0000 0.27008  0.28552  0.89840  Biso   1.000  C
  C19      1.0000 0.22988  0.21448  0.10157  Biso   1.000  C
  H14      1.0000 0.34281  0.18492  0.18707  Biso   1.000  H
  C20      1.0000 0.31141  0.08898  0.28889  Biso   1.000  C
  N13      1.0000 0.16937  0.34301  0.67834  Biso   1.000  N
  H15      1.0000 0.16650  0.44058  0.65023  Biso   1.000  H
  H16      1.0000 0.18340  0.42299  0.77629  Biso   1.000  H
  N14      1.0000 0.21896  0.25798  0.81744  Biso   1.000  N
  H17      1.0000 0.29420  0.24948  0.93912  Biso   1.000  H
  H18      1.0000 0.26329  0.31152  0.95234  Biso   1.000  H
  N15      1.0000 0.20213  0.17281  0.14979  Biso   1.000  N
  H19      1.0000 0.20581  0.25052  0.06093  Biso   1.000  H
  H20      1.0000 0.23669  0.18848  0.04771  Biso   1.000  H
  N16      1.0000 0.25509  0.08008  0.26297  Biso   1.000  N
  H21      1.0000 0.33352  0.05942  0.34982  Biso   1.000  H
  H22      1.0000 0.31660  0.07701  0.22367  Biso   1.000  H
  C21      1.0000 0.12821  0.33000  0.57172  Biso   1.000  C
  C22      1.0000 0.16889  0.29501  0.75988  Biso   1.000  C
  C23      1.0000 0.21502  0.19560  0.77091  Biso   1.000  C
  C24      1.0000 0.20881  0.10198  0.15871  Biso   1.000  C
  C25      1.0000 0.15547  0.19298  0.15366  Biso   1.000  C
  C26      1.0000 0.23869  0.04612  0.33324  Biso   1.000  C
  N17      1.0000 0.10242  0.27331  0.57601  Biso   1.000  N
  O7       1.0000 0.11687  0.36500  0.48749  Biso   1.000  O
  C27      1.0000 0.12761  0.24192  0.68457  Biso   1.000  C
  H23      1.0000 0.15719  0.31508  0.81290  Biso   1.000  H
  N18      1.0000 0.16315  0.18631  0.69138  Biso   1.000  N
  O8       1.0000 0.25327  0.15546  0.80002  Biso   1.000  O
  H24      1.0000 0.20978  0.08270  0.09189  Biso   1.000  H
  C28      1.0000 0.15870  0.07761  0.17377  Biso   1.000  C
  O9       1.0000 0.13765  0.25022  0.13910  Biso   1.000  O
  N19      1.0000 0.13110  0.13950  0.17613  Biso   1.000  N
  N20      1.0000 0.18289  0.04221  0.28090  Biso   1.000  N
  O10      1.0000 0.26984  0.02358  0.42547  Biso   1.000  O
  C29      1.0000 0.05661  0.24449  0.47730  Biso   1.000  C
  H25      1.0000 0.10091  0.23020  0.71200  Biso   1.000  H
  C30      1.0000 0.14120  0.11908  0.65713  Biso   1.000  C
  H26      1.0000 0.13503  0.04879  0.11184  Biso   1.000  H
  C31      1.0000 0.07579  0.14192  0.16300  Biso   1.000  C
  C32      1.0000 0.15149  0.01419  0.33467  Biso   1.000  C
  N21      1.0000 0.07277  0.19441  0.42042  Biso   1.000  N
  H27      1.0000 0.03099  0.22521  0.50112  Biso   1.000  H
  H28      1.0000 0.03779  0.27958  0.42429  Biso   1.000  H
  N22      1.0000 0.12669  0.10371  0.54160  Biso   1.000  N
  H29      1.0000 0.16812  0.08739  0.70493  Biso   1.000  H
  H30      1.0000 0.10910  0.11399  0.66959  Biso   1.000  H
  N23      1.0000 0.07231  0.14681  0.26861  Biso   1.000  N
  H31      1.0000 0.05730  0.17958  0.11638  Biso   1.000  H
  H32      1.0000 0.05660  0.10242  0.12379  Biso   1.000  H
  N24      1.0000 0.13495  0.06362  0.39349  Biso   1.000  N
  H33      1.0000 0.11918  0.99288  0.27787  Biso   1.000  H
  H34      1.0000 0.17332  0.98062  0.38794  Biso   1.000  H
  C33      1.0000 0.07028  0.20682  0.31658  Biso   1.000  C
  C34      1.0000 0.07619  0.12378  0.44650  Biso   1.000  C
  C35      1.0000 0.15941  0.06639  0.51012  Biso   1.000  C
  C36      1.0000 0.07962  0.09110  0.34401  Biso   1.000  C
  O11      1.0000 0.06668  0.26110  0.27248  Biso   1.000  O
  H35      1.0000 0.04412  0.10850  0.45450  Biso   1.000  H
  O12      1.0000 0.20267  0.04068  0.57349  Biso   1.000  O
  H36      1.0000 0.05170  0.05699  0.30883  Biso   1.000  H
  C37      1.0000 0.57956  0.40890  0.84395  Biso   1.000  C
  N25      1.0000 0.57229  0.35319  0.76855  Biso   1.000  N
  N26      1.0000 0.57231  0.35319  0.76863  Biso   1.000  N
  C38      1.0000 0.57617  0.37622  0.94645  Biso   1.000  C
  C39      1.0000 0.57619  0.37622  0.94653  Biso   1.000  C
  N27      1.0000 0.63493  0.43638  0.89343  Biso   1.000  N
  H37      1.0000 0.55168  0.44301  0.80877  Biso   1.000  H
  N28      1.0000 0.63495  0.43638  0.89351  Biso   1.000  N
  C40      1.0000 0.57028  0.29318  0.81660  Biso   1.000  C
  C41      1.0000 0.57032  0.29318  0.81660  Biso   1.000  C
  C42      1.0000 0.57577  0.35808  0.66294  Biso   1.000  C
  C43      1.0000 0.57579  0.35808  0.66302  Biso   1.000  C
  C44      1.0000 0.57962  0.40890  0.84403  Biso   1.000  C
  N29      1.0000 0.57275  0.30559  0.92036  Biso   1.000  N
  H38      1.0000 0.54406  0.39150  0.95444  Biso   1.000  H
  H39      1.0000 0.54411  0.39150  0.95452  Biso   1.000  H
  N30      1.0000 0.62667  0.39629  0.04154  Biso   1.000  N
  N31      1.0000 0.62672  0.39629  0.04162  Biso   1.000  N
  C45      1.0000 0.65149  0.48581  0.83469  Biso   1.000  C
  C46      1.0000 0.65939  0.43361  0.01006  Biso   1.000  C
  O13      1.0000 0.56665  0.23890  0.77251  Biso   1.000  O
  O14      1.0000 0.56668  0.23890  0.77251  Biso   1.000  O
  H40      1.0000 0.55730  0.32042  0.61641  Biso   1.000  H
  H41      1.0000 0.55658  0.39758  0.62373  Biso   1.000  H
  N32      1.0000 0.63104  0.36050  0.67607  Biso   1.000  N
  H42      1.0000 0.55660  0.39758  0.62381  Biso   1.000  H
  N33      1.0000 0.63108  0.36050  0.67607  Biso   1.000  N
  C47      1.0000 0.55659  0.25551  0.97724  Biso   1.000  C
  C48      1.0000 0.55661  0.25551  0.97733  Biso   1.000  C
  C49      1.0000 0.64118  0.38092  0.15707  Biso   1.000  C
  N34      1.0000 0.68287  0.45779  0.78084  Biso   1.000  N
  N35      1.0000 0.68289  0.45779  0.78092  Biso   1.000  N
  H43      1.0000 0.61918  0.50712  0.77789  Biso   1.000  H
  H44      1.0000 0.67327  0.51938  0.88788  Biso   1.000  H
  H45      1.0000 0.61922  0.50712  0.77789  Biso   1.000  H
  H46      1.0000 0.67330  0.51938  0.88788  Biso   1.000  H
  O15      1.0000 0.70265  0.45932  0.07343  Biso   1.000  O
  O16      1.0000 0.70267  0.45932  0.07351  Biso   1.000  O
  C50      1.0000 0.65547  0.30702  0.65368  Biso   1.000  C
  C51      1.0000 0.65870  0.42239  0.67380  Biso   1.000  C
  C52      1.0000 0.65551  0.30702  0.65368  Biso   1.000  C
  H47      1.0000 0.53777  0.22042  0.92423  Biso   1.000  H
  H48      1.0000 0.53779  0.22042  0.92431  Biso   1.000  H
  N36      1.0000 0.60240  0.22669  0.07595  Biso   1.000  N
  H49      1.0000 0.53097  0.27479  0.00106  Biso   1.000  H
  N37      1.0000 0.60241  0.22669  0.07604  Biso   1.000  N
  N38      1.0000 0.66313  0.31369  0.19132  Biso   1.000  N
  N39      1.0000 0.66314  0.31369  0.19141  Biso   1.000  N
  H50      1.0000 0.66807  0.41261  0.20487  Biso   1.000  H
  H51      1.0000 0.60908  0.38601  0.16953  Biso   1.000  H
  H52      1.0000 0.66810  0.41261  0.20487  Biso   1.000  H
  H53      1.0000 0.60910  0.38601  0.16961  Biso   1.000  H
  C53      1.0000 0.73867  0.45388  0.83318  Biso   1.000  C
  C54      1.0000 0.73871  0.45388  0.83318  Biso   1.000  C
  N40      1.0000 0.70208  0.32719  0.64973  Biso   1.000  N
  O17      1.0000 0.63763  0.24978  0.63904  Biso   1.000  O
  N41      1.0000 0.70213  0.32719  0.64981  Biso   1.000  N
  O18      1.0000 0.63764  0.24978  0.63913  Biso   1.000  O
  C55      1.0000 0.70879  0.39802  0.65865  Biso   1.000  C
  H54      1.0000 0.63497  0.45121  0.61178  Biso   1.000  H
  C56      1.0000 0.70881  0.39802  0.65873  Biso   1.000  C
  H55      1.0000 0.63501  0.45121  0.61178  Biso   1.000  H
  C57      1.0000 0.62819  0.17000  0.07166  Biso   1.000  C
  C58      1.0000 0.62757  0.25808  0.18459  Biso   1.000  C
  C59      1.0000 0.62761  0.25808  0.18459  Biso   1.000  C
  C60      1.0000 0.71496  0.30440  0.27085  Biso   1.000  C
  C61      1.0000 0.71501  0.30440  0.27093  Biso   1.000  C
  N42      1.0000 0.75509  0.41992  0.76300  Biso   1.000  N
  N43      1.0000 0.75512  0.41992  0.76300  Biso   1.000  N
  O19      1.0000 0.76984  0.47642  0.92549  Biso   1.000  O
  O20      1.0000 0.76987  0.47642  0.92549  Biso   1.000  O
  C62      1.0000 0.72988  0.28552  0.60159  Biso   1.000  C
  C63      1.0000 0.72991  0.28552  0.60159  Biso   1.000  C
  H56      1.0000 0.70976  0.41730  0.59183  Biso   1.000  H
  H57      1.0000 0.70982  0.41730  0.59192  Biso   1.000  H
  O21      1.0000 0.61685  0.13500  0.98743  Biso   1.000  O
  O22      1.0000 0.61686  0.13500  0.98751  Biso   1.000  O
  N44      1.0000 0.66935  0.15699  0.17828  Biso   1.000  N
  C64      1.0000 0.66887  0.20499  0.25982  Biso   1.000  C
  H58      1.0000 0.60089  0.26980  0.21194  Biso   1.000  H
  C65      1.0000 0.66889  0.20499  0.25991  Biso   1.000  C
  H59      1.0000 0.60091  0.26980  0.21203  Biso   1.000  H
  N45      1.0000 0.71891  0.24202  0.31738  Biso   1.000  N
  N46      1.0000 0.71894  0.24202  0.31738  Biso   1.000  N
  O23      1.0000 0.75325  0.34454  0.29996  Biso   1.000  O
  C66      1.0000 0.81136  0.41102  0.78883  Biso   1.000  C
  C67      1.0000 0.81141  0.41102  0.78891  Biso   1.000  C
  N47      1.0000 0.78103  0.25798  0.68255  Biso   1.000  N
  H60      1.0000 0.70579  0.24948  0.56087  Biso   1.000  H
  H61      1.0000 0.73667  0.31152  0.54765  Biso   1.000  H
  N48      1.0000 0.78105  0.25798  0.68263  Biso   1.000  N
  H62      1.0000 0.73672  0.31152  0.54774  Biso   1.000  H
  C68      1.0000 0.68858  0.08898  0.21110  Biso   1.000  C
  H63      1.0000 0.65717  0.18492  0.31284  Biso   1.000  H
  H64      1.0000 0.65719  0.18492  0.31292  Biso   1.000  H
  C69      1.0000 0.77006  0.21448  0.39834  Biso   1.000  C
  C70      1.0000 0.77012  0.21448  0.39842  Biso   1.000  C
  N49      1.0000 0.83062  0.34301  0.82165  Biso   1.000  N
  H65      1.0000 0.83346  0.44058  0.84976  Biso   1.000  H
  H66      1.0000 0.81660  0.42299  0.72370  Biso   1.000  H
  N50      1.0000 0.83064  0.34301  0.82173  Biso   1.000  N
  H67      1.0000 0.83351  0.44058  0.84984  Biso   1.000  H
  C71      1.0000 0.78498  0.19560  0.72908  Biso   1.000  C
  C72      1.0000 0.83110  0.29501  0.74011  Biso   1.000  C
  N51      1.0000 0.74485  0.08008  0.23693  Biso   1.000  N
  H68      1.0000 0.66648  0.05942  0.15017  Biso   1.000  H
  H69      1.0000 0.68338  0.07701  0.27623  Biso   1.000  H
  N52      1.0000 0.74491  0.08008  0.23702  Biso   1.000  N
  H70      1.0000 0.68340  0.07701  0.27632  Biso   1.000  H
  N53      1.0000 0.79786  0.17281  0.35020  Biso   1.000  N
  H71      1.0000 0.79418  0.25052  0.43906  Biso   1.000  H
  H72      1.0000 0.76327  0.18848  0.45228  Biso   1.000  H
  N54      1.0000 0.79790  0.17281  0.35020  Biso   1.000  N
  H73      1.0000 0.76331  0.18848  0.45228  Biso   1.000  H
  C73      1.0000 0.87179  0.33000  0.92827  Biso   1.000  C
  O24      1.0000 0.74673  0.15546  0.69997  Biso   1.000  O
  N55      1.0000 0.83685  0.18631  0.80861  Biso   1.000  N
  H74      1.0000 0.84277  0.31508  0.68709  Biso   1.000  H
  C74      1.0000 0.87237  0.24192  0.81534  Biso   1.000  C
  H75      1.0000 0.84280  0.31508  0.68709  Biso   1.000  H
  C75      1.0000 0.87239  0.24192  0.81542  Biso   1.000  C
  C76      1.0000 0.79118  0.10198  0.34128  Biso   1.000  C
  C77      1.0000 0.76127  0.04612  0.16675  Biso   1.000  C
  C78      1.0000 0.76132  0.04612  0.16684  Biso   1.000  C
  C79      1.0000 0.84447  0.19298  0.34625  Biso   1.000  C
  C80      1.0000 0.84452  0.19298  0.34633  Biso   1.000  C
  N56      1.0000 0.89758  0.27331  0.92398  Biso   1.000  N
  O25      1.0000 0.88309  0.36500  0.01250  Biso   1.000  O
  O26      1.0000 0.88313  0.36500  0.01250  Biso   1.000  O
  C81      1.0000 0.85876  0.11908  0.84286  Biso   1.000  C
  C82      1.0000 0.85882  0.11908  0.84294  Biso   1.000  C
  H76      1.0000 0.89909  0.23020  0.78799  Biso   1.000  H
  H77      1.0000 0.79018  0.08270  0.40810  Biso   1.000  H
  C83      1.0000 0.84128  0.07761  0.32613  Biso   1.000  C
  H78      1.0000 0.79021  0.08270  0.40810  Biso   1.000  H
  C84      1.0000 0.84130  0.07761  0.32622  Biso   1.000  C
  O27      1.0000 0.73010  0.02358  0.07444  Biso   1.000  O
  N57      1.0000 0.81711  0.04221  0.21909  Biso   1.000  N
  O28      1.0000 0.73016  0.02358  0.07452  Biso   1.000  O
  N58      1.0000 0.86890  0.13950  0.32386  Biso   1.000  N
  O29      1.0000 0.86235  0.25022  0.36089  Biso   1.000  O
  C85      1.0000 0.94338  0.24449  0.02269  Biso   1.000  C
  N59      1.0000 0.87327  0.10371  0.95839  Biso   1.000  N
  H79      1.0000 0.83187  0.08739  0.79506  Biso   1.000  H
  H80      1.0000 0.89089  0.11399  0.83040  Biso   1.000  H
  N60      1.0000 0.87331  0.10371  0.95839  Biso   1.000  N
  H81      1.0000 0.83193  0.08739  0.79514  Biso   1.000  H
  H82      1.0000 0.86497  0.04879  0.38815  Biso   1.000  H
  H83      1.0000 0.86502  0.04879  0.38824  Biso   1.000  H
  C86      1.0000 0.84849  0.01419  0.16524  Biso   1.000  C
  C87      1.0000 0.84851  0.01419  0.16532  Biso   1.000  C
  C88      1.0000 0.92417  0.14192  0.33699  Biso   1.000  C
  C89      1.0000 0.92420  0.14192  0.33699  Biso   1.000  C
  H84      1.0000 0.96897  0.22521  0.99887  Biso   1.000  H
  H85      1.0000 0.96900  0.22521  0.99887  Biso   1.000  H
  N61      1.0000 0.92723  0.19441  0.07957  Biso   1.000  N
  H86      1.0000 0.96220  0.27958  0.07570  Biso   1.000  H
  C90      1.0000 0.84059  0.06639  0.98987  Biso   1.000  C
  C91      1.0000 0.92377  0.12378  0.05349  Biso   1.000  C
  C92      1.0000 0.92380  0.12378  0.05349  Biso   1.000  C
  H87      1.0000 0.88076  0.99288  0.22204  Biso   1.000  H
  H88      1.0000 0.82667  0.98062  0.11205  Biso   1.000  H
  H89      1.0000 0.88081  0.99288  0.22212  Biso   1.000  H
  H90      1.0000 0.82669  0.98062  0.11214  Biso   1.000  H
  N62      1.0000 0.86501  0.06362  0.10650  Biso   1.000  N
  N63      1.0000 0.86505  0.06362  0.10650  Biso   1.000  N
  N64      1.0000 0.92769  0.14681  0.23138  Biso   1.000  N
  H91      1.0000 0.94268  0.17958  0.38353  Biso   1.000  H
  H92      1.0000 0.94339  0.10242  0.37620  Biso   1.000  H
  H93      1.0000 0.94270  0.17958  0.38361  Biso   1.000  H
  C93      1.0000 0.92966  0.20682  0.18333  Biso   1.000  C
  C94      1.0000 0.92971  0.20682  0.18341  Biso   1.000  C
  O30      1.0000 0.79733  0.04068  0.92650  Biso   1.000  O
  C95      1.0000 0.92038  0.09110  0.15598  Biso   1.000  C
  C96      1.0000 0.92041  0.09110  0.15598  Biso   1.000  C
  H94      1.0000 0.95588  0.10850  0.04549  Biso   1.000  H
  H95      1.0000 0.95592  0.10850  0.04549  Biso   1.000  H
  O31      1.0000 0.93329  0.26110  0.22743  Biso   1.000  O
  O32      1.0000 0.93335  0.26110  0.22751  Biso   1.000  O
  H96      1.0000 0.94829  0.05699  0.19116  Biso   1.000  H
  H97      1.0000 0.94831  0.05699  0.19124  Biso   1.000  H
  C97      1.0000 0.57956  0.40890  0.84395  Biso   1.000  C
  C98      1.0000 0.57617  0.37622  0.94645  Biso   1.000  C
  C99      1.0000 0.57619  0.37622  0.94653  Biso   1.000  C
  N65      1.0000 0.57229  0.35319  0.76855  Biso   1.000  N
  N66      1.0000 0.57231  0.35319  0.76863  Biso   1.000  N
  H98      1.0000 0.55168  0.44301  0.80877  Biso   1.000  H
  N67      1.0000 0.63493  0.43638  0.89343  Biso   1.000  N
  N68      1.0000 0.63495  0.43638  0.89351  Biso   1.000  N
  N69      1.0000 0.57275  0.30559  0.92036  Biso   1.000  N
  H99      1.0000 0.54406  0.39150  0.95444  Biso   1.000  H
  H100     1.0000 0.54411  0.39150  0.95452  Biso   1.000  H
  C100     1.0000 0.57962  0.40890  0.84403  Biso   1.000  C
  N70      1.0000 0.62667  0.39629  0.04154  Biso   1.000  N
  N71      1.0000 0.62672  0.39629  0.04162  Biso   1.000  N
  C101     1.0000 0.57028  0.29318  0.81660  Biso   1.000  C
  C102     1.0000 0.57032  0.29318  0.81660  Biso   1.000  C
  C103     1.0000 0.57577  0.35808  0.66294  Biso   1.000  C
  C104     1.0000 0.57579  0.35808  0.66302  Biso   1.000  C
  C105     1.0000 0.65939  0.43361  0.01006  Biso   1.000  C
  C106     1.0000 0.65149  0.48581  0.83469  Biso   1.000  C
  C107     1.0000 0.55659  0.25551  0.97724  Biso   1.000  C
  C108     1.0000 0.55661  0.25551  0.97733  Biso   1.000  C
  C109     1.0000 0.64118  0.38092  0.15707  Biso   1.000  C
  O33      1.0000 0.56665  0.23890  0.77251  Biso   1.000  O
  O34      1.0000 0.56668  0.23890  0.77251  Biso   1.000  O
  H101     1.0000 0.55730  0.32042  0.61641  Biso   1.000  H
  H102     1.0000 0.55658  0.39758  0.62373  Biso   1.000  H
  N72      1.0000 0.63104  0.36050  0.67607  Biso   1.000  N
  H103     1.0000 0.55660  0.39758  0.62381  Biso   1.000  H
  N73      1.0000 0.63108  0.36050  0.67607  Biso   1.000  N
  O35      1.0000 0.70265  0.45932  0.07343  Biso   1.000  O
  O36      1.0000 0.70267  0.45932  0.07351  Biso   1.000  O
  N74      1.0000 0.68287  0.45779  0.78084  Biso   1.000  N
  H104     1.0000 0.61918  0.50712  0.77789  Biso   1.000  H
  H105     1.0000 0.67327  0.51938  0.88788  Biso   1.000  H
  N75      1.0000 0.68289  0.45779  0.78092  Biso   1.000  N
  H106     1.0000 0.61922  0.50712  0.77789  Biso   1.000  H
  H107     1.0000 0.67330  0.51938  0.88788  Biso   1.000  H
  H108     1.0000 0.53777  0.22042  0.92423  Biso   1.000  H
  H109     1.0000 0.53779  0.22042  0.92431  Biso   1.000  H
  N76      1.0000 0.60240  0.22669  0.07595  Biso   1.000  N
  H110     1.0000 0.53097  0.27479  0.00106  Biso   1.000  H
  N77      1.0000 0.60241  0.22669  0.07604  Biso   1.000  N
  N78      1.0000 0.66313  0.31369  0.19132  Biso   1.000  N
  N79      1.0000 0.66314  0.31369  0.19141  Biso   1.000  N
  H111     1.0000 0.66807  0.41261  0.20487  Biso   1.000  H
  H112     1.0000 0.60908  0.38601  0.16953  Biso   1.000  H
  H113     1.0000 0.66810  0.41261  0.20487  Biso   1.000  H
  H114     1.0000 0.60910  0.38601  0.16961  Biso   1.000  H
  C110     1.0000 0.65870  0.42239  0.67380  Biso   1.000  C
  C111     1.0000 0.65547  0.30702  0.65368  Biso   1.000  C
  C112     1.0000 0.65551  0.30702  0.65368  Biso   1.000  C
  C113     1.0000 0.73867  0.45388  0.83318  Biso   1.000  C
  C114     1.0000 0.73871  0.45388  0.83318  Biso   1.000  C
  C115     1.0000 0.62819  0.17000  0.07166  Biso   1.000  C
  C116     1.0000 0.62757  0.25808  0.18459  Biso   1.000  C
  C117     1.0000 0.62761  0.25808  0.18459  Biso   1.000  C
  C118     1.0000 0.71496  0.30440  0.27085  Biso   1.000  C
  C119     1.0000 0.71501  0.30440  0.27093  Biso   1.000  C
  C120     1.0000 0.70879  0.39802  0.65865  Biso   1.000  C
  H115     1.0000 0.63497  0.45121  0.61178  Biso   1.000  H
  C121     1.0000 0.70881  0.39802  0.65873  Biso   1.000  C
  H116     1.0000 0.63501  0.45121  0.61178  Biso   1.000  H
  N80      1.0000 0.70208  0.32719  0.64973  Biso   1.000  N
  O37      1.0000 0.63763  0.24978  0.63904  Biso   1.000  O
  N81      1.0000 0.70213  0.32719  0.64981  Biso   1.000  N
  O38      1.0000 0.63764  0.24978  0.63913  Biso   1.000  O
  O39      1.0000 0.76984  0.47642  0.92549  Biso   1.000  O
  N82      1.0000 0.75509  0.41992  0.76300  Biso   1.000  N
  O40      1.0000 0.76987  0.47642  0.92549  Biso   1.000  O
  N83      1.0000 0.75512  0.41992  0.76300  Biso   1.000  N
  O41      1.0000 0.61685  0.13500  0.98743  Biso   1.000  O
  O42      1.0000 0.61686  0.13500  0.98751  Biso   1.000  O
  N84      1.0000 0.66935  0.15699  0.17828  Biso   1.000  N
  C122     1.0000 0.66887  0.20499  0.25982  Biso   1.000  C
  H117     1.0000 0.60089  0.26980  0.21194  Biso   1.000  H
  C123     1.0000 0.66889  0.20499  0.25991  Biso   1.000  C
  H118     1.0000 0.60091  0.26980  0.21203  Biso   1.000  H
  N85      1.0000 0.71891  0.24202  0.31738  Biso   1.000  N
  N86      1.0000 0.71894  0.24202  0.31738  Biso   1.000  N
  O43      1.0000 0.75325  0.34454  0.29996  Biso   1.000  O
  H119     1.0000 0.70976  0.41730  0.59183  Biso   1.000  H
  H120     1.0000 0.70982  0.41730  0.59192  Biso   1.000  H
  C124     1.0000 0.72988  0.28552  0.60159  Biso   1.000  C
  C125     1.0000 0.72991  0.28552  0.60159  Biso   1.000  C
  C126     1.0000 0.81136  0.41102  0.78883  Biso   1.000  C
  C127     1.0000 0.81141  0.41102  0.78891  Biso   1.000  C
  C128     1.0000 0.68858  0.08898  0.21110  Biso   1.000  C
  H121     1.0000 0.65717  0.18492  0.31284  Biso   1.000  H
  H122     1.0000 0.65719  0.18492  0.31292  Biso   1.000  H
  C129     1.0000 0.77006  0.21448  0.39834  Biso   1.000  C
  C130     1.0000 0.77012  0.21448  0.39842  Biso   1.000  C
  H123     1.0000 0.70579  0.24948  0.56087  Biso   1.000  H
  N87      1.0000 0.78103  0.25798  0.68255  Biso   1.000  N
  H124     1.0000 0.73667  0.31152  0.54765  Biso   1.000  H
  N88      1.0000 0.78105  0.25798  0.68263  Biso   1.000  N
  H125     1.0000 0.73672  0.31152  0.54774  Biso   1.000  H
  H126     1.0000 0.81660  0.42299  0.72370  Biso   1.000  H
  N89      1.0000 0.83062  0.34301  0.82165  Biso   1.000  N
  H127     1.0000 0.83346  0.44058  0.84976  Biso   1.000  H
  N90      1.0000 0.83064  0.34301  0.82173  Biso   1.000  N
  H128     1.0000 0.83351  0.44058  0.84984  Biso   1.000  H
  N91      1.0000 0.74485  0.08008  0.23693  Biso   1.000  N
  H129     1.0000 0.66648  0.05942  0.15017  Biso   1.000  H
  H130     1.0000 0.68338  0.07701  0.27623  Biso   1.000  H
  N92      1.0000 0.74491  0.08008  0.23702  Biso   1.000  N
  H131     1.0000 0.68340  0.07701  0.27632  Biso   1.000  H
  N93      1.0000 0.79786  0.17281  0.35020  Biso   1.000  N
  H132     1.0000 0.79418  0.25052  0.43906  Biso   1.000  H
  H133     1.0000 0.76327  0.18848  0.45228  Biso   1.000  H
  N94      1.0000 0.79790  0.17281  0.35020  Biso   1.000  N
  H134     1.0000 0.76331  0.18848  0.45228  Biso   1.000  H
  C131     1.0000 0.78498  0.19560  0.72908  Biso   1.000  C
  C132     1.0000 0.83110  0.29501  0.74011  Biso   1.000  C
  C133     1.0000 0.87179  0.33000  0.92827  Biso   1.000  C
  C134     1.0000 0.79118  0.10198  0.34128  Biso   1.000  C
  C135     1.0000 0.76127  0.04612  0.16675  Biso   1.000  C
  C136     1.0000 0.76132  0.04612  0.16684  Biso   1.000  C
  C137     1.0000 0.84447  0.19298  0.34625  Biso   1.000  C
  C138     1.0000 0.84452  0.19298  0.34633  Biso   1.000  C
  O44      1.0000 0.74673  0.15546  0.69997  Biso   1.000  O
  N95      1.0000 0.83685  0.18631  0.80861  Biso   1.000  N
  H135     1.0000 0.84277  0.31508  0.68709  Biso   1.000  H
  C139     1.0000 0.87237  0.24192  0.81534  Biso   1.000  C
  H136     1.0000 0.84280  0.31508  0.68709  Biso   1.000  H
  C140     1.0000 0.87239  0.24192  0.81542  Biso   1.000  C
  N96      1.0000 0.89758  0.27331  0.92398  Biso   1.000  N
  O45      1.0000 0.88309  0.36500  0.01250  Biso   1.000  O
  O46      1.0000 0.88313  0.36500  0.01250  Biso   1.000  O
  H137     1.0000 0.79018  0.08270  0.40810  Biso   1.000  H
  C141     1.0000 0.84128  0.07761  0.32613  Biso   1.000  C
  H138     1.0000 0.79021  0.08270  0.40810  Biso   1.000  H
  C142     1.0000 0.84130  0.07761  0.32622  Biso   1.000  C
  O47      1.0000 0.73010  0.02358  0.07444  Biso   1.000  O
  N97      1.0000 0.81711  0.04221  0.21909  Biso   1.000  N
  O48      1.0000 0.73016  0.02358  0.07452  Biso   1.000  O
  N98      1.0000 0.86890  0.13950  0.32386  Biso   1.000  N
  O49      1.0000 0.86235  0.25022  0.36089  Biso   1.000  O
  C143     1.0000 0.85876  0.11908  0.84286  Biso   1.000  C
  C144     1.0000 0.85882  0.11908  0.84294  Biso   1.000  C
  H139     1.0000 0.89909  0.23020  0.78799  Biso   1.000  H
  C145     1.0000 0.94338  0.24449  0.02269  Biso   1.000  C
  H140     1.0000 0.86497  0.04879  0.38815  Biso   1.000  H
  H141     1.0000 0.86502  0.04879  0.38824  Biso   1.000  H
  C146     1.0000 0.84849  0.01419  0.16524  Biso   1.000  C
  C147     1.0000 0.84851  0.01419  0.16532  Biso   1.000  C
  C148     1.0000 0.92417  0.14192  0.33699  Biso   1.000  C
  C149     1.0000 0.92420  0.14192  0.33699  Biso   1.000  C
  N99      1.0000 0.87327  0.10371  0.95839  Biso   1.000  N
  N100     1.0000 0.87331  0.10371  0.95839  Biso   1.000  N
  H142     1.0000 0.89089  0.11399  0.83040  Biso   1.000  H
  H143     1.0000 0.83187  0.08739  0.79506  Biso   1.000  H
  H144     1.0000 0.83193  0.08739  0.79514  Biso   1.000  H
  N101     1.0000 0.92723  0.19441  0.07957  Biso   1.000  N
  H145     1.0000 0.96897  0.22521  0.99887  Biso   1.000  H
  H146     1.0000 0.96900  0.22521  0.99887  Biso   1.000  H
  H147     1.0000 0.96220  0.27958  0.07570  Biso   1.000  H
  H148     1.0000 0.88076  0.99288  0.22204  Biso   1.000  H
  H149     1.0000 0.82667  0.98062  0.11205  Biso   1.000  H
  H150     1.0000 0.88081  0.99288  0.22212  Biso   1.000  H
  H151     1.0000 0.82669  0.98062  0.11214  Biso   1.000  H
  N102     1.0000 0.86501  0.06362  0.10650  Biso   1.000  N
  N103     1.0000 0.86505  0.06362  0.10650  Biso   1.000  N
  N104     1.0000 0.92769  0.14681  0.23138  Biso   1.000  N
  H152     1.0000 0.94268  0.17958  0.38353  Biso   1.000  H
  H153     1.0000 0.94339  0.10242  0.37620  Biso   1.000  H
  H154     1.0000 0.94270  0.17958  0.38361  Biso   1.000  H
  C150     1.0000 0.84059  0.06639  0.98987  Biso   1.000  C
  C151     1.0000 0.92377  0.12378  0.05349  Biso   1.000  C
  C152     1.0000 0.92380  0.12378  0.05349  Biso   1.000  C
  C153     1.0000 0.92966  0.20682  0.18333  Biso   1.000  C
  C154     1.0000 0.92971  0.20682  0.18341  Biso   1.000  C
  C155     1.0000 0.92038  0.09110  0.15598  Biso   1.000  C
  C156     1.0000 0.92041  0.09110  0.15598  Biso   1.000  C
  O50      1.0000 0.79733  0.04068  0.92650  Biso   1.000  O
  H155     1.0000 0.95588  0.10850  0.04549  Biso   1.000  H
  H156     1.0000 0.95592  0.10850  0.04549  Biso   1.000  H
  O51      1.0000 0.93329  0.26110  0.22743  Biso   1.000  O
  O52      1.0000 0.93335  0.26110  0.22751  Biso   1.000  O
  H157     1.0000 0.94829  0.05699  0.19116  Biso   1.000  H
  H158     1.0000 0.94831  0.05699  0.19124  Biso   1.000  H
  C157     1.0000 0.35878  0.61908  0.84286  Biso   1.000  C
  N105     1.0000 0.33683  0.68631  0.80861  Biso   1.000  N
  N106     1.0000 0.33687  0.68631  0.80861  Biso   1.000  N
  N107     1.0000 0.37329  0.60371  0.95839  Biso   1.000  N
  H159     1.0000 0.33189  0.58739  0.79506  Biso   1.000  H
  H160     1.0000 0.39087  0.61399  0.83040  Biso   1.000  H
  H161     1.0000 0.33191  0.58739  0.79514  Biso   1.000  H
  H162     1.0000 0.39091  0.61399  0.83040  Biso   1.000  H
  C158     1.0000 0.28500  0.69560  0.72908  Biso   1.000  C
  C159     1.0000 0.37239  0.74192  0.81534  Biso   1.000  C
  C160     1.0000 0.35880  0.61908  0.84294  Biso   1.000  C
  C161     1.0000 0.37241  0.74192  0.81542  Biso   1.000  C
  C162     1.0000 0.34057  0.56639  0.98987  Biso   1.000  C
  C163     1.0000 0.34060  0.56639  0.98987  Biso   1.000  C
  C164     1.0000 0.42379  0.62378  0.05349  Biso   1.000  C
  O53      1.0000 0.24675  0.65546  0.69997  Biso   1.000  O
  O54      1.0000 0.24671  0.65546  0.69997  Biso   1.000  O
  N108     1.0000 0.28105  0.75798  0.68255  Biso   1.000  N
  N109     1.0000 0.28107  0.75798  0.68263  Biso   1.000  N
  C165     1.0000 0.33109  0.79501  0.74011  Biso   1.000  C
  N110     1.0000 0.39756  0.77331  0.92398  Biso   1.000  N
  H163     1.0000 0.39907  0.73020  0.78799  Biso   1.000  H
  N111     1.0000 0.39760  0.77331  0.92398  Biso   1.000  N
  H164     1.0000 0.39910  0.73020  0.78799  Biso   1.000  H
  O55      1.0000 0.29731  0.54068  0.92650  Biso   1.000  O
  O56      1.0000 0.29735  0.54068  0.92650  Biso   1.000  O
  N112     1.0000 0.36503  0.56362  0.10650  Biso   1.000  N
  N113     1.0000 0.42721  0.69441  0.07957  Biso   1.000  N
  H165     1.0000 0.45590  0.60850  0.04549  Biso   1.000  H
  C166     1.0000 0.42039  0.59110  0.15598  Biso   1.000  C
  N114     1.0000 0.42725  0.69441  0.07957  Biso   1.000  N
  C167     1.0000 0.22989  0.78552  0.60159  Biso   1.000  C
  N115     1.0000 0.33060  0.84301  0.82165  Biso   1.000  N
  H166     1.0000 0.34279  0.81508  0.68709  Biso   1.000  H
  N116     1.0000 0.33062  0.84301  0.82173  Biso   1.000  N
  C168     1.0000 0.37177  0.83000  0.92827  Biso   1.000  C
  C169     1.0000 0.37180  0.83000  0.92827  Biso   1.000  C
  C170     1.0000 0.44336  0.74449  0.02269  Biso   1.000  C
  C171     1.0000 0.44340  0.74449  0.02269  Biso   1.000  C
  C172     1.0000 0.34847  0.51419  0.16524  Biso   1.000  C
  C173     1.0000 0.34849  0.51419  0.16532  Biso   1.000  C
  C174     1.0000 0.42968  0.70682  0.18333  Biso   1.000  C
  C175     1.0000 0.42969  0.70682  0.18341  Biso   1.000  C
  H167     1.0000 0.44827  0.55699  0.19116  Biso   1.000  H
  N117     1.0000 0.42767  0.64681  0.23138  Biso   1.000  N
  H168     1.0000 0.44829  0.55699  0.19124  Biso   1.000  H
  N118     1.0000 0.42771  0.64681  0.23138  Biso   1.000  N
  N119     1.0000 0.20210  0.82719  0.64973  Biso   1.000  N
  H169     1.0000 0.20578  0.74948  0.56087  Biso   1.000  H
  H170     1.0000 0.23668  0.81152  0.54765  Biso   1.000  H
  N120     1.0000 0.20211  0.82719  0.64981  Biso   1.000  N
  H171     1.0000 0.23670  0.81152  0.54774  Biso   1.000  H
  C176     1.0000 0.31137  0.91102  0.78883  Biso   1.000  C
  C177     1.0000 0.31139  0.91102  0.78891  Biso   1.000  C
  O57      1.0000 0.38311  0.86500  0.01250  Biso   1.000  O
  H172     1.0000 0.46898  0.72521  0.99887  Biso   1.000  H
  H173     1.0000 0.46219  0.77958  0.07570  Biso   1.000  H
  N121     1.0000 0.31709  0.54221  0.21909  Biso   1.000  N
  H174     1.0000 0.38078  0.49288  0.22204  Biso   1.000  H
  H175     1.0000 0.32669  0.48062  0.11205  Biso   1.000  H
  N122     1.0000 0.31713  0.54221  0.21909  Biso   1.000  N
  H176     1.0000 0.38080  0.49288  0.22212  Biso   1.000  H
  H177     1.0000 0.32671  0.48062  0.11214  Biso   1.000  H
  O58      1.0000 0.43331  0.76110  0.22743  Biso   1.000  O
  O59      1.0000 0.43333  0.76110  0.22751  Biso   1.000  O
  C178     1.0000 0.42419  0.64192  0.33699  Biso   1.000  C
  C179     1.0000 0.20877  0.89802  0.65865  Biso   1.000  C
  C180     1.0000 0.15549  0.80702  0.65368  Biso   1.000  C
  C181     1.0000 0.20879  0.89802  0.65873  Biso   1.000  C
  N123     1.0000 0.25510  0.91992  0.76300  Biso   1.000  N
  H178     1.0000 0.33348  0.94058  0.84976  Biso   1.000  H
  H179     1.0000 0.31658  0.92299  0.72370  Biso   1.000  H
  H180     1.0000 0.33350  0.94058  0.84984  Biso   1.000  H
  H181     1.0000 0.31662  0.92299  0.72370  Biso   1.000  H
  C182     1.0000 0.26129  0.54612  0.16675  Biso   1.000  C
  C183     1.0000 0.34126  0.57761  0.32613  Biso   1.000  C
  C184     1.0000 0.26130  0.54612  0.16684  Biso   1.000  C
  C185     1.0000 0.34131  0.57761  0.32622  Biso   1.000  C
  H182     1.0000 0.44266  0.67958  0.38353  Biso   1.000  H
  H183     1.0000 0.44338  0.60242  0.37620  Biso   1.000  H
  N124     1.0000 0.36892  0.63950  0.32386  Biso   1.000  N
  H184     1.0000 0.44272  0.67958  0.38361  Biso   1.000  H
  H185     1.0000 0.44341  0.60242  0.37620  Biso   1.000  H
  H186     1.0000 0.20978  0.91730  0.59183  Biso   1.000  H
  C186     1.0000 0.15868  0.92239  0.67380  Biso   1.000  C
  H187     1.0000 0.20980  0.91730  0.59192  Biso   1.000  H
  C187     1.0000 0.15872  0.92239  0.67380  Biso   1.000  C
  O60      1.0000 0.13761  0.74978  0.63904  Biso   1.000  O
  N125     1.0000 0.13106  0.86050  0.67607  Biso   1.000  N
  O61      1.0000 0.13766  0.74978  0.63913  Biso   1.000  O
  C188     1.0000 0.23869  0.95388  0.83318  Biso   1.000  C
  O62      1.0000 0.23012  0.52358  0.07444  Biso   1.000  O
  N126     1.0000 0.24487  0.58008  0.23693  Biso   1.000  N
  O63      1.0000 0.23014  0.52358  0.07452  Biso   1.000  O
  N127     1.0000 0.24489  0.58008  0.23702  Biso   1.000  N
  C189     1.0000 0.29117  0.60198  0.34128  Biso   1.000  C
  H188     1.0000 0.36499  0.54879  0.38815  Biso   1.000  H
  C190     1.0000 0.29120  0.60198  0.34128  Biso   1.000  C
  H189     1.0000 0.36501  0.54879  0.38824  Biso   1.000  H
  C191     1.0000 0.34448  0.69298  0.34625  Biso   1.000  C
  C192     1.0000 0.34450  0.69298  0.34633  Biso   1.000  C
  N128     1.0000 0.18285  0.95779  0.78084  Biso   1.000  N
  H190     1.0000 0.13499  0.95121  0.61178  Biso   1.000  H
  N129     1.0000 0.18290  0.95779  0.78092  Biso   1.000  N
  C193     1.0000 0.07579  0.85808  0.66294  Biso   1.000  C
  C194     1.0000 0.07581  0.85808  0.66302  Biso   1.000  C
  O64      1.0000 0.26985  0.97642  0.92549  Biso   1.000  O
  C195     1.0000 0.18860  0.58898  0.21110  Biso   1.000  C
  N130     1.0000 0.29788  0.67281  0.35020  Biso   1.000  N
  H191     1.0000 0.29019  0.58270  0.40810  Biso   1.000  H
  O65      1.0000 0.36233  0.75022  0.36089  Biso   1.000  O
  C196     1.0000 0.15147  0.98581  0.83469  Biso   1.000  C
  C197     1.0000 0.15151  0.98581  0.83469  Biso   1.000  C
  N131     1.0000 0.07227  0.85319  0.76855  Biso   1.000  N
  H192     1.0000 0.05728  0.82042  0.61641  Biso   1.000  H
  H193     1.0000 0.05656  0.89758  0.62373  Biso   1.000  H
  N132     1.0000 0.07232  0.85319  0.76863  Biso   1.000  N
  H194     1.0000 0.05731  0.82042  0.61641  Biso   1.000  H
  H195     1.0000 0.05662  0.89758  0.62381  Biso   1.000  H
  N133     1.0000 0.16934  0.65699  0.17828  Biso   1.000  N
  H196     1.0000 0.16650  0.55942  0.15017  Biso   1.000  H
  H197     1.0000 0.18336  0.57701  0.27623  Biso   1.000  H
  N134     1.0000 0.16937  0.65699  0.17828  Biso   1.000  N
  H198     1.0000 0.18341  0.57701  0.27632  Biso   1.000  H
  C198     1.0000 0.27008  0.71448  0.39834  Biso   1.000  C
  C199     1.0000 0.27010  0.71448  0.39842  Biso   1.000  C
  N135     1.0000 0.13495  0.93638  0.89343  Biso   1.000  N
  N136     1.0000 0.13497  0.93638  0.89351  Biso   1.000  N
  H199     1.0000 0.11920  0.00712  0.77789  Biso   1.000  H
  H200     1.0000 0.17328  0.01938  0.88788  Biso   1.000  H
  C200     1.0000 0.07958  0.90890  0.84395  Biso   1.000  C
  C201     1.0000 0.07030  0.79318  0.81660  Biso   1.000  C
  C202     1.0000 0.07960  0.90890  0.84403  Biso   1.000  C
  C203     1.0000 0.12817  0.67000  0.07166  Biso   1.000  C
  C204     1.0000 0.12821  0.67000  0.07166  Biso   1.000  C
  C205     1.0000 0.16885  0.70499  0.25982  Biso   1.000  C
  C206     1.0000 0.16891  0.70499  0.25991  Biso   1.000  C
  N137     1.0000 0.21892  0.74202  0.31738  Biso   1.000  N
  H201     1.0000 0.29416  0.75052  0.43906  Biso   1.000  H
  H202     1.0000 0.26329  0.68848  0.45228  Biso   1.000  H
  H203     1.0000 0.29420  0.75052  0.43906  Biso   1.000  H
  C207     1.0000 0.15937  0.93361  0.01006  Biso   1.000  C
  C208     1.0000 0.15941  0.93361  0.01006  Biso   1.000  C
  C209     1.0000 0.07619  0.87622  0.94645  Biso   1.000  C
  H204     1.0000 0.05166  0.94301  0.80877  Biso   1.000  H
  C210     1.0000 0.07621  0.87622  0.94653  Biso   1.000  C
  H205     1.0000 0.05170  0.94301  0.80877  Biso   1.000  H
  O66      1.0000 0.06666  0.73890  0.77251  Biso   1.000  O
  N138     1.0000 0.07273  0.80559  0.92036  Biso   1.000  N
  N139     1.0000 0.07277  0.80559  0.92036  Biso   1.000  N
  N140     1.0000 0.10238  0.72669  0.07595  Biso   1.000  N
  N141     1.0000 0.10243  0.72669  0.07604  Biso   1.000  N
  O67      1.0000 0.11686  0.63500  0.98743  Biso   1.000  O
  O68      1.0000 0.11688  0.63500  0.98751  Biso   1.000  O
  C211     1.0000 0.12759  0.75808  0.18459  Biso   1.000  C
  H206     1.0000 0.15719  0.68492  0.31284  Biso   1.000  H
  H207     1.0000 0.15721  0.68492  0.31292  Biso   1.000  H
  C212     1.0000 0.21498  0.80440  0.27085  Biso   1.000  C
  C213     1.0000 0.21500  0.80440  0.27093  Biso   1.000  C
  O69      1.0000 0.20263  0.95932  0.07343  Biso   1.000  O
  N142     1.0000 0.12669  0.89629  0.04154  Biso   1.000  N
  O70      1.0000 0.20269  0.95932  0.07351  Biso   1.000  O
  N143     1.0000 0.12670  0.89629  0.04162  Biso   1.000  N
  H208     1.0000 0.04408  0.89150  0.95444  Biso   1.000  H
  H209     1.0000 0.04410  0.89150  0.95452  Biso   1.000  H
  C214     1.0000 0.05657  0.75551  0.97724  Biso   1.000  C
  C215     1.0000 0.05659  0.75551  0.97733  Biso   1.000  C
  N144     1.0000 0.16311  0.81369  0.19132  Biso   1.000  N
  N145     1.0000 0.16316  0.81369  0.19141  Biso   1.000  N
  H210     1.0000 0.10087  0.76980  0.21194  Biso   1.000  H
  H211     1.0000 0.10089  0.76980  0.21203  Biso   1.000  H
  O71      1.0000 0.25323  0.84454  0.29996  Biso   1.000  O
  O72      1.0000 0.25327  0.84454  0.29996  Biso   1.000  O
  C216     1.0000 0.14120  0.88092  0.15707  Biso   1.000  C
  H212     1.0000 0.03775  0.72042  0.92423  Biso   1.000  H
  H213     1.0000 0.03781  0.72042  0.92431  Biso   1.000  H
  H214     1.0000 0.03099  0.77479  0.00106  Biso   1.000  H
  H215     1.0000 0.16809  0.91261  0.20487  Biso   1.000  H
  H216     1.0000 0.10906  0.88601  0.16953  Biso   1.000  H
  H217     1.0000 0.10912  0.88601  0.16961  Biso   1.000  H
  C217     1.0000 0.35878  0.61908  0.84286  Biso   1.000  C
  N146     1.0000 0.33683  0.68631  0.80861  Biso   1.000  N
  N147     1.0000 0.33687  0.68631  0.80861  Biso   1.000  N
  N148     1.0000 0.37329  0.60371  0.95839  Biso   1.000  N
  H218     1.0000 0.33189  0.58739  0.79506  Biso   1.000  H
  H219     1.0000 0.39087  0.61399  0.83040  Biso   1.000  H
  H220     1.0000 0.33191  0.58739  0.79514  Biso   1.000  H
  H221     1.0000 0.39091  0.61399  0.83040  Biso   1.000  H
  C218     1.0000 0.28500  0.69560  0.72908  Biso   1.000  C
  C219     1.0000 0.37239  0.74192  0.81534  Biso   1.000  C
  C220     1.0000 0.35880  0.61908  0.84294  Biso   1.000  C
  C221     1.0000 0.37241  0.74192  0.81542  Biso   1.000  C
  C222     1.0000 0.34057  0.56639  0.98987  Biso   1.000  C
  C223     1.0000 0.34060  0.56639  0.98987  Biso   1.000  C
  C224     1.0000 0.42379  0.62378  0.05349  Biso   1.000  C
  O73      1.0000 0.24671  0.65546  0.69997  Biso   1.000  O
  N149     1.0000 0.28105  0.75798  0.68255  Biso   1.000  N
  O74      1.0000 0.24675  0.65546  0.69997  Biso   1.000  O
  N150     1.0000 0.28107  0.75798  0.68263  Biso   1.000  N
  C225     1.0000 0.33109  0.79501  0.74011  Biso   1.000  C
  N151     1.0000 0.39756  0.77331  0.92398  Biso   1.000  N
  H222     1.0000 0.39907  0.73020  0.78799  Biso   1.000  H
  N152     1.0000 0.39760  0.77331  0.92398  Biso   1.000  N
  H223     1.0000 0.39910  0.73020  0.78799  Biso   1.000  H
  O75      1.0000 0.29731  0.54068  0.92650  Biso   1.000  O
  O76      1.0000 0.29735  0.54068  0.92650  Biso   1.000  O
  N153     1.0000 0.36503  0.56362  0.10650  Biso   1.000  N
  N154     1.0000 0.42721  0.69441  0.07957  Biso   1.000  N
  H224     1.0000 0.45590  0.60850  0.04549  Biso   1.000  H
  C226     1.0000 0.42039  0.59110  0.15598  Biso   1.000  C
  N155     1.0000 0.42725  0.69441  0.07957  Biso   1.000  N
  C227     1.0000 0.22989  0.78552  0.60159  Biso   1.000  C
  H225     1.0000 0.34279  0.81508  0.68709  Biso   1.000  H
  N156     1.0000 0.33060  0.84301  0.82165  Biso   1.000  N
  N157     1.0000 0.33062  0.84301  0.82173  Biso   1.000  N
  C228     1.0000 0.37177  0.83000  0.92827  Biso   1.000  C
  C229     1.0000 0.37180  0.83000  0.92827  Biso   1.000  C
  C230     1.0000 0.44336  0.74449  0.02269  Biso   1.000  C
  C231     1.0000 0.44340  0.74449  0.02269  Biso   1.000  C
  C232     1.0000 0.34847  0.51419  0.16524  Biso   1.000  C
  C233     1.0000 0.34849  0.51419  0.16532  Biso   1.000  C
  C234     1.0000 0.42968  0.70682  0.18333  Biso   1.000  C
  C235     1.0000 0.42969  0.70682  0.18341  Biso   1.000  C
  H226     1.0000 0.44827  0.55699  0.19116  Biso   1.000  H
  N158     1.0000 0.42767  0.64681  0.23138  Biso   1.000  N
  H227     1.0000 0.44829  0.55699  0.19124  Biso   1.000  H
  N159     1.0000 0.42771  0.64681  0.23138  Biso   1.000  N
  H228     1.0000 0.20578  0.74948  0.56087  Biso   1.000  H
  N160     1.0000 0.20210  0.82719  0.64973  Biso   1.000  N
  H229     1.0000 0.23668  0.81152  0.54765  Biso   1.000  H
  N161     1.0000 0.20211  0.82719  0.64981  Biso   1.000  N
  H230     1.0000 0.23670  0.81152  0.54774  Biso   1.000  H
  C236     1.0000 0.31137  0.91102  0.78883  Biso   1.000  C
  C237     1.0000 0.31139  0.91102  0.78891  Biso   1.000  C
  O77      1.0000 0.38311  0.86500  0.01250  Biso   1.000  O
  H231     1.0000 0.46898  0.72521  0.99887  Biso   1.000  H
  H232     1.0000 0.46219  0.77958  0.07570  Biso   1.000  H
  N162     1.0000 0.31709  0.54221  0.21909  Biso   1.000  N
  H233     1.0000 0.38078  0.49288  0.22204  Biso   1.000  H
  H234     1.0000 0.32669  0.48062  0.11205  Biso   1.000  H
  N163     1.0000 0.31713  0.54221  0.21909  Biso   1.000  N
  H235     1.0000 0.38080  0.49288  0.22212  Biso   1.000  H
  H236     1.0000 0.32671  0.48062  0.11214  Biso   1.000  H
  O78      1.0000 0.43331  0.76110  0.22743  Biso   1.000  O
  O79      1.0000 0.43333  0.76110  0.22751  Biso   1.000  O
  C238     1.0000 0.42419  0.64192  0.33699  Biso   1.000  C
  C239     1.0000 0.15549  0.80702  0.65368  Biso   1.000  C
  C240     1.0000 0.20877  0.89802  0.65865  Biso   1.000  C
  C241     1.0000 0.20879  0.89802  0.65873  Biso   1.000  C
  N164     1.0000 0.25510  0.91992  0.76300  Biso   1.000  N
  H237     1.0000 0.33348  0.94058  0.84976  Biso   1.000  H
  H238     1.0000 0.31658  0.92299  0.72370  Biso   1.000  H
  H239     1.0000 0.33350  0.94058  0.84984  Biso   1.000  H
  H240     1.0000 0.31662  0.92299  0.72370  Biso   1.000  H
  C242     1.0000 0.26129  0.54612  0.16675  Biso   1.000  C
  C243     1.0000 0.34126  0.57761  0.32613  Biso   1.000  C
  C244     1.0000 0.26130  0.54612  0.16684  Biso   1.000  C
  C245     1.0000 0.34131  0.57761  0.32622  Biso   1.000  C
  H241     1.0000 0.44266  0.67958  0.38353  Biso   1.000  H
  H242     1.0000 0.44338  0.60242  0.37620  Biso   1.000  H
  N165     1.0000 0.36892  0.63950  0.32386  Biso   1.000  N
  H243     1.0000 0.44272  0.67958  0.38361  Biso   1.000  H
  H244     1.0000 0.44341  0.60242  0.37620  Biso   1.000  H
  N166     1.0000 0.13106  0.86050  0.67607  Biso   1.000  N
  O80      1.0000 0.13761  0.74978  0.63904  Biso   1.000  O
  O81      1.0000 0.13766  0.74978  0.63913  Biso   1.000  O
  H245     1.0000 0.20978  0.91730  0.59183  Biso   1.000  H
  C246     1.0000 0.15868  0.92239  0.67380  Biso   1.000  C
  H246     1.0000 0.20980  0.91730  0.59192  Biso   1.000  H
  C247     1.0000 0.15872  0.92239  0.67380  Biso   1.000  C
  C248     1.0000 0.23869  0.95388  0.83318  Biso   1.000  C
  O82      1.0000 0.23012  0.52358  0.07444  Biso   1.000  O
  N167     1.0000 0.24487  0.58008  0.23693  Biso   1.000  N
  O83      1.0000 0.23014  0.52358  0.07452  Biso   1.000  O
  N168     1.0000 0.24489  0.58008  0.23702  Biso   1.000  N
  C249     1.0000 0.29117  0.60198  0.34128  Biso   1.000  C
  H247     1.0000 0.36499  0.54879  0.38815  Biso   1.000  H
  C250     1.0000 0.29120  0.60198  0.34128  Biso   1.000  C
  H248     1.0000 0.36501  0.54879  0.38824  Biso   1.000  H
  C251     1.0000 0.34448  0.69298  0.34625  Biso   1.000  C
  C252     1.0000 0.34450  0.69298  0.34633  Biso   1.000  C
  C253     1.0000 0.07579  0.85808  0.66294  Biso   1.000  C
  C254     1.0000 0.07581  0.85808  0.66302  Biso   1.000  C
  H249     1.0000 0.13499  0.95121  0.61178  Biso   1.000  H
  N169     1.0000 0.18285  0.95779  0.78084  Biso   1.000  N
  N170     1.0000 0.18290  0.95779  0.78092  Biso   1.000  N
  O84      1.0000 0.26985  0.97642  0.92549  Biso   1.000  O
  C255     1.0000 0.18860  0.58898  0.21110  Biso   1.000  C
  N171     1.0000 0.29788  0.67281  0.35020  Biso   1.000  N
  H250     1.0000 0.29019  0.58270  0.40810  Biso   1.000  H
  O85      1.0000 0.36233  0.75022  0.36089  Biso   1.000  O
  N172     1.0000 0.07227  0.85319  0.76855  Biso   1.000  N
  H251     1.0000 0.05728  0.82042  0.61641  Biso   1.000  H
  H252     1.0000 0.05656  0.89758  0.62373  Biso   1.000  H
  N173     1.0000 0.07232  0.85319  0.76863  Biso   1.000  N
  H253     1.0000 0.05731  0.82042  0.61641  Biso   1.000  H
  H254     1.0000 0.05662  0.89758  0.62381  Biso   1.000  H
  C256     1.0000 0.15147  0.98581  0.83469  Biso   1.000  C
  C257     1.0000 0.15151  0.98581  0.83469  Biso   1.000  C
  N174     1.0000 0.16934  0.65699  0.17828  Biso   1.000  N
  H255     1.0000 0.16650  0.55942  0.15017  Biso   1.000  H
  H256     1.0000 0.18336  0.57701  0.27623  Biso   1.000  H
  N175     1.0000 0.16937  0.65699  0.17828  Biso   1.000  N
  H257     1.0000 0.18341  0.57701  0.27632  Biso   1.000  H
  C258     1.0000 0.27008  0.71448  0.39834  Biso   1.000  C
  C259     1.0000 0.27010  0.71448  0.39842  Biso   1.000  C
  C260     1.0000 0.07030  0.79318  0.81660  Biso   1.000  C
  C261     1.0000 0.07958  0.90890  0.84395  Biso   1.000  C
  C262     1.0000 0.07960  0.90890  0.84403  Biso   1.000  C
  N176     1.0000 0.13495  0.93638  0.89343  Biso   1.000  N
  N177     1.0000 0.13497  0.93638  0.89351  Biso   1.000  N
  H258     1.0000 0.11920  0.00712  0.77789  Biso   1.000  H
  H259     1.0000 0.17328  0.01938  0.88788  Biso   1.000  H
  C263     1.0000 0.12817  0.67000  0.07166  Biso   1.000  C
  C264     1.0000 0.12821  0.67000  0.07166  Biso   1.000  C
  C265     1.0000 0.16885  0.70499  0.25982  Biso   1.000  C
  C266     1.0000 0.16891  0.70499  0.25991  Biso   1.000  C
  N178     1.0000 0.21892  0.74202  0.31738  Biso   1.000  N
  H260     1.0000 0.29416  0.75052  0.43906  Biso   1.000  H
  H261     1.0000 0.26329  0.68848  0.45228  Biso   1.000  H
  H262     1.0000 0.29420  0.75052  0.43906  Biso   1.000  H
  O86      1.0000 0.06666  0.73890  0.77251  Biso   1.000  O
  N179     1.0000 0.07273  0.80559  0.92036  Biso   1.000  N
  N180     1.0000 0.07277  0.80559  0.92036  Biso   1.000  N
  C267     1.0000 0.07619  0.87622  0.94645  Biso   1.000  C
  H263     1.0000 0.05166  0.94301  0.80877  Biso   1.000  H
  C268     1.0000 0.07621  0.87622  0.94653  Biso   1.000  C
  H264     1.0000 0.05170  0.94301  0.80877  Biso   1.000  H
  C269     1.0000 0.15937  0.93361  0.01006  Biso   1.000  C
  C270     1.0000 0.15941  0.93361  0.01006  Biso   1.000  C
  N181     1.0000 0.10238  0.72669  0.07595  Biso   1.000  N
  N182     1.0000 0.10243  0.72669  0.07604  Biso   1.000  N
  O87      1.0000 0.11686  0.63500  0.98743  Biso   1.000  O
  O88      1.0000 0.11688  0.63500  0.98751  Biso   1.000  O
  C271     1.0000 0.12759  0.75808  0.18459  Biso   1.000  C
  H265     1.0000 0.15719  0.68492  0.31284  Biso   1.000  H
  H266     1.0000 0.15721  0.68492  0.31292  Biso   1.000  H
  C272     1.0000 0.21498  0.80440  0.27085  Biso   1.000  C
  C273     1.0000 0.21500  0.80440  0.27093  Biso   1.000  C
  C274     1.0000 0.05657  0.75551  0.97724  Biso   1.000  C
  C275     1.0000 0.05659  0.75551  0.97733  Biso   1.000  C
  H267     1.0000 0.04408  0.89150  0.95444  Biso   1.000  H
  H268     1.0000 0.04410  0.89150  0.95452  Biso   1.000  H
  N183     1.0000 0.12669  0.89629  0.04154  Biso   1.000  N
  N184     1.0000 0.12670  0.89629  0.04162  Biso   1.000  N
  O89      1.0000 0.20263  0.95932  0.07343  Biso   1.000  O
  O90      1.0000 0.20269  0.95932  0.07351  Biso   1.000  O
  N185     1.0000 0.16311  0.81369  0.19132  Biso   1.000  N
  N186     1.0000 0.16316  0.81369  0.19141  Biso   1.000  N
  H269     1.0000 0.10087  0.76980  0.21194  Biso   1.000  H
  H270     1.0000 0.10089  0.76980  0.21203  Biso   1.000  H
  O91      1.0000 0.25323  0.84454  0.29996  Biso   1.000  O
  O92      1.0000 0.25327  0.84454  0.29996  Biso   1.000  O
  H271     1.0000 0.03775  0.72042  0.92423  Biso   1.000  H
  H272     1.0000 0.03781  0.72042  0.92431  Biso   1.000  H
  H273     1.0000 0.03099  0.77479  0.00106  Biso   1.000  H
  C276     1.0000 0.14120  0.88092  0.15707  Biso   1.000  C
  H274     1.0000 0.16809  0.91261  0.20487  Biso   1.000  H
  H275     1.0000 0.10906  0.88601  0.16953  Biso   1.000  H
  H276     1.0000 0.10912  0.88601  0.16961  Biso   1.000  H
  C277     1.0000 0.64122  0.61908  0.65713  Biso   1.000  C
  N187     1.0000 0.62671  0.60371  0.54160  Biso   1.000  N
  N188     1.0000 0.66316  0.68631  0.69138  Biso   1.000  N
  H277     1.0000 0.66811  0.58739  0.70493  Biso   1.000  H
  H278     1.0000 0.60908  0.61399  0.66959  Biso   1.000  H
  C278     1.0000 0.57621  0.62378  0.44650  Biso   1.000  C
  C279     1.0000 0.65939  0.56639  0.51012  Biso   1.000  C
  C280     1.0000 0.71500  0.69560  0.77091  Biso   1.000  C
  C281     1.0000 0.62759  0.74192  0.68457  Biso   1.000  C
  C282     1.0000 0.57960  0.59110  0.34401  Biso   1.000  C
  N189     1.0000 0.57275  0.69441  0.42042  Biso   1.000  N
  H279     1.0000 0.54410  0.60850  0.45450  Biso   1.000  H
  N190     1.0000 0.63497  0.56362  0.39349  Biso   1.000  N
  O93      1.0000 0.70265  0.54068  0.57349  Biso   1.000  O
  O94      1.0000 0.75325  0.65546  0.80002  Biso   1.000  O
  N191     1.0000 0.71894  0.75798  0.81744  Biso   1.000  N
  N192     1.0000 0.60240  0.77331  0.57601  Biso   1.000  N
  C283     1.0000 0.66891  0.79501  0.75988  Biso   1.000  C
  H280     1.0000 0.60089  0.73020  0.71200  Biso   1.000  H
  H281     1.0000 0.55172  0.55699  0.30883  Biso   1.000  H
  N193     1.0000 0.57229  0.64681  0.26861  Biso   1.000  N
  C284     1.0000 0.57030  0.70682  0.31658  Biso   1.000  C
  C285     1.0000 0.55659  0.74449  0.47730  Biso   1.000  C
  C286     1.0000 0.65151  0.51419  0.33467  Biso   1.000  C
  C287     1.0000 0.77010  0.78552  0.89840  Biso   1.000  C
  C288     1.0000 0.62819  0.83000  0.57172  Biso   1.000  C
  N194     1.0000 0.66939  0.84301  0.67834  Biso   1.000  N
  H282     1.0000 0.65721  0.81508  0.81290  Biso   1.000  H
  C289     1.0000 0.57581  0.64192  0.16300  Biso   1.000  C
  O95      1.0000 0.56667  0.76110  0.27248  Biso   1.000  O
  H283     1.0000 0.53101  0.72521  0.50112  Biso   1.000  H
  H284     1.0000 0.53781  0.77958  0.42429  Biso   1.000  H
  N195     1.0000 0.68290  0.54221  0.28090  Biso   1.000  N
  H285     1.0000 0.61920  0.49288  0.27787  Biso   1.000  H
  H286     1.0000 0.67330  0.48062  0.38794  Biso   1.000  H
  N196     1.0000 0.79788  0.82719  0.85018  Biso   1.000  N
  H287     1.0000 0.79422  0.74948  0.93912  Biso   1.000  H
  H288     1.0000 0.76331  0.81152  0.95234  Biso   1.000  H
  O96      1.0000 0.61688  0.86500  0.48749  Biso   1.000  O
  C290     1.0000 0.68860  0.91102  0.71108  Biso   1.000  C
  H289     1.0000 0.55728  0.67958  0.11638  Biso   1.000  H
  H290     1.0000 0.55658  0.60242  0.12379  Biso   1.000  H
  N197     1.0000 0.63108  0.63950  0.17613  Biso   1.000  N
  C291     1.0000 0.73871  0.54612  0.33324  Biso   1.000  C
  C292     1.0000 0.65868  0.57761  0.17377  Biso   1.000  C
  C293     1.0000 0.79122  0.89802  0.84134  Biso   1.000  C
  C294     1.0000 0.84450  0.80702  0.84631  Biso   1.000  C
  N198     1.0000 0.74489  0.91992  0.73699  Biso   1.000  N
  H291     1.0000 0.66652  0.94058  0.65023  Biso   1.000  H
  H292     1.0000 0.68342  0.92299  0.77629  Biso   1.000  H
  C295     1.0000 0.65549  0.69298  0.15366  Biso   1.000  C
  O97      1.0000 0.76986  0.52358  0.42547  Biso   1.000  O
  N199     1.0000 0.75511  0.58008  0.26297  Biso   1.000  N
  C296     1.0000 0.70879  0.60198  0.15871  Biso   1.000  C
  H293     1.0000 0.63501  0.54879  0.11184  Biso   1.000  H
  H294     1.0000 0.79020  0.91730  0.90807  Biso   1.000  H
  C297     1.0000 0.84132  0.92239  0.82619  Biso   1.000  C
  O98      1.0000 0.86233  0.74978  0.86086  Biso   1.000  O
  N200     1.0000 0.86894  0.86050  0.82392  Biso   1.000  N
  C298     1.0000 0.76131  0.95388  0.66681  Biso   1.000  C
  N201     1.0000 0.70212  0.67281  0.14979  Biso   1.000  N
  O99      1.0000 0.63766  0.75022  0.13910  Biso   1.000  O
  C299     1.0000 0.81139  0.58898  0.28889  Biso   1.000  C
  H295     1.0000 0.70980  0.58270  0.09189  Biso   1.000  H
  N202     1.0000 0.81709  0.95779  0.71907  Biso   1.000  N
  H296     1.0000 0.86501  0.95121  0.88821  Biso   1.000  H
  C300     1.0000 0.92419  0.85808  0.83696  Biso   1.000  C
  O100     1.0000 0.73014  0.97642  0.57450  Biso   1.000  O
  C301     1.0000 0.72990  0.71448  0.10157  Biso   1.000  C
  N203     1.0000 0.83062  0.65699  0.32171  Biso   1.000  N
  H297     1.0000 0.83350  0.55942  0.34982  Biso   1.000  H
  H298     1.0000 0.81658  0.57701  0.22367  Biso   1.000  H
  C302     1.0000 0.84849  0.98581  0.66530  Biso   1.000  C
  N204     1.0000 0.92773  0.85319  0.73144  Biso   1.000  N
  H299     1.0000 0.94268  0.82042  0.88358  Biso   1.000  H
  H300     1.0000 0.94341  0.89758  0.87618  Biso   1.000  H
  N205     1.0000 0.78107  0.74202  0.18261  Biso   1.000  N
  H301     1.0000 0.70580  0.75052  0.06093  Biso   1.000  H
  H302     1.0000 0.73670  0.68848  0.04771  Biso   1.000  H
  C303     1.0000 0.87182  0.67000  0.42833  Biso   1.000  C
  C304     1.0000 0.83109  0.70499  0.24008  Biso   1.000  C
  N206     1.0000 0.86503  0.93638  0.60648  Biso   1.000  N
  H303     1.0000 0.88080  0.00712  0.72210  Biso   1.000  H
  H304     1.0000 0.82671  0.01938  0.61211  Biso   1.000  H
  C305     1.0000 0.92970  0.79318  0.68339  Biso   1.000  C
  C306     1.0000 0.92041  0.90890  0.65604  Biso   1.000  C
  C307     1.0000 0.78500  0.80440  0.22906  Biso   1.000  C
  O101     1.0000 0.88311  0.63500  0.51248  Biso   1.000  O
  N207     1.0000 0.89758  0.72669  0.42404  Biso   1.000  N
  H305     1.0000 0.84279  0.68492  0.18707  Biso   1.000  H
  C308     1.0000 0.87241  0.75808  0.31540  Biso   1.000  C
  C309     1.0000 0.84059  0.93361  0.48993  Biso   1.000  C
  N208     1.0000 0.92723  0.80559  0.57963  Biso   1.000  N
  O102     1.0000 0.93333  0.73890  0.72748  Biso   1.000  O
  C310     1.0000 0.92379  0.87622  0.55346  Biso   1.000  C
  H306     1.0000 0.94829  0.94301  0.69122  Biso   1.000  H
  O103     1.0000 0.74673  0.84454  0.20003  Biso   1.000  O
  N209     1.0000 0.83683  0.81369  0.30858  Biso   1.000  N
  C311     1.0000 0.94340  0.75551  0.52266  Biso   1.000  C
  H307     1.0000 0.89910  0.76980  0.28796  Biso   1.000  H
  N210     1.0000 0.87329  0.89629  0.45837  Biso   1.000  N
  O104     1.0000 0.79731  0.95932  0.42648  Biso   1.000  O
  H308     1.0000 0.95590  0.89150  0.54547  Biso   1.000  H
  C312     1.0000 0.85880  0.88092  0.34291  Biso   1.000  C
  H309     1.0000 0.96900  0.77479  0.49893  Biso   1.000  H
  H310     1.0000 0.96219  0.72042  0.57568  Biso   1.000  H
  H311     1.0000 0.83191  0.91261  0.29512  Biso   1.000  H
  H312     1.0000 0.89091  0.88601  0.33038  Biso   1.000  H
