data_image0
_cell_length_a       16.5
_cell_length_b       17.634
_cell_length_c       22.614
_cell_angle_alpha    90
_cell_angle_beta     90
_cell_angle_gamma    90

_symmetry_space_group_name_H-M    "P 1"
_symmetry_int_tables_number       1

loop_
  _symmetry_equiv_pos_as_xyz
  'x, y, z'

loop_
  _atom_site_label
  _atom_site_occupancy
  _atom_site_fract_x
  _atom_site_fract_y
  _atom_site_fract_z
  _atom_site_thermal_displace_type
  _atom_site_B_iso_or_equiv
  _atom_site_type_symbol
  C1       1.0000 0.25188  0.28933  0.76939  Biso   1.000  C
  C2       1.0000 0.17273  0.33282  0.76280  Biso   1.000  C
  H1       1.0000 0.26903  0.27129  0.73079  Biso   1.000  H
  H2       1.0000 0.24261  0.24521  0.79420  Biso   1.000  H
  C3       1.0000 0.32042  0.33719  0.79659  Biso   1.000  C
  C4       1.0000 0.15261  0.37740  0.81892  Biso   1.000  C
  H3       1.0000 0.12921  0.29749  0.75431  Biso   1.000  H
  H4       1.0000 0.17709  0.36759  0.72968  Biso   1.000  H
  C5       1.0000 0.29891  0.42072  0.79959  Biso   1.000  C
  H5       1.0000 0.33188  0.31887  0.83621  Biso   1.000  H
  H6       1.0000 0.36921  0.33112  0.77311  Biso   1.000  H
  C6       1.0000 0.22291  0.43252  0.83731  Biso   1.000  C
  N1       1.0000 0.14358  0.32891  0.87030  Biso   1.000  N
  N2       1.0000 0.08503  0.42940  0.80990  Biso   1.000  N
  N3       1.0000 0.08497  0.42940  0.80990  Biso   1.000  N
  H7       1.0000 0.28952  0.43989  0.76002  Biso   1.000  H
  H8       1.0000 0.34382  0.44868  0.81662  Biso   1.000  H
  N4       1.0000 0.23691  0.41239  0.89913  Biso   1.000  N
  N5       1.0000 0.18721  0.50760  0.82944  Biso   1.000  N
  C7       1.0000 0.09218  0.26262  0.87490  Biso   1.000  C
  C8       1.0000 0.19127  0.35159  0.91691  Biso   1.000  C
  C9       1.0000 0.00612  0.40842  0.78752  Biso   1.000  C
  C10      1.0000 0.10842  0.50391  0.81282  Biso   1.000  C
  C11      1.0000 0.29982  0.44289  0.93690  Biso   1.000  C
  C12      1.0000 0.22897  0.57871  0.83718  Biso   1.000  C
  C13      1.0000 0.22903  0.57871  0.83718  Biso   1.000  C
  H9       1.0000 0.09248  0.23642  0.83718  Biso   1.000  H
  H10      1.0000 0.11527  0.22859  0.90409  Biso   1.000  H
  N6       1.0000 0.00958  0.27799  0.89100  Biso   1.000  N
  O1       1.0000 0.19442  0.32029  0.96515  Biso   1.000  O
  H11      1.0000 0.01291  0.36951  0.75750  Biso   1.000  H
  H12      1.0000 0.98188  0.45231  0.76859  Biso   1.000  H
  N7       1.0000 0.95109  0.38051  0.83218  Biso   1.000  N
  O2       1.0000 0.06479  0.55852  0.80105  Biso   1.000  O
  H13      1.0000 0.34739  0.45339  0.91311  Biso   1.000  H
  H14      1.0000 0.31448  0.40490  0.96599  Biso   1.000  H
  N8       1.0000 0.27600  0.51180  0.96741  Biso   1.000  N
  H15      1.0000 0.20400  0.61620  0.81171  Biso   1.000  H
  H16      1.0000 0.28473  0.57242  0.82431  Biso   1.000  H
  N9       1.0000 0.22970  0.60820  0.89710  Biso   1.000  N
  C14      1.0000 0.98042  0.26778  0.94720  Biso   1.000  C
  C15      1.0000 0.94818  0.30141  0.85000  Biso   1.000  C
  C16      1.0000 0.88073  0.41760  0.84572  Biso   1.000  C
  C17      1.0000 0.28679  0.58648  0.94220  Biso   1.000  C
  C18      1.0000 0.26661  0.51429  0.02720  Biso   1.000  C
  C19      1.0000 0.17503  0.66179  0.91651  Biso   1.000  C
  C20      1.0000 0.17497  0.66179  0.91651  Biso   1.000  C
  O3       1.0000 0.01873  0.24441  0.98956  Biso   1.000  O
  N10      1.0000 0.89958  0.28649  0.94667  Biso   1.000  N
  C21      1.0000 0.86909  0.29732  0.88662  Biso   1.000  C
  H17      1.0000 0.94600  0.26772  0.81560  Biso   1.000  H
  N11      1.0000 0.83103  0.36912  0.87592  Biso   1.000  N
  O4       1.0000 0.86388  0.48287  0.83095  Biso   1.000  O
  N12      1.0000 0.83097  0.36912  0.87592  Biso   1.000  N
  H18      1.0000 0.34279  0.59419  0.92898  Biso   1.000  H
  C22      1.0000 0.26552  0.64013  0.99469  Biso   1.000  C
  O5       1.0000 0.26861  0.45951  0.06111  Biso   1.000  O
  N13      1.0000 0.25582  0.58813  0.04378  Biso   1.000  N
  N14      1.0000 0.19182  0.67631  0.97471  Biso   1.000  N
  O6       1.0000 0.12303  0.69168  0.88675  Biso   1.000  O
  O7       1.0000 0.12297  0.69168  0.88675  Biso   1.000  O
  C23      1.0000 0.84630  0.26143  0.99430  Biso   1.000  C
  H19      1.0000 0.83479  0.25491  0.87410  Biso   1.000  H
  C24      1.0000 0.74988  0.38879  0.89489  Biso   1.000  C
  H20      1.0000 0.30861  0.67710  0.00221  Biso   1.000  H
  C25      1.0000 0.25012  0.61121  0.10511  Biso   1.000  C
  C26      1.0000 0.15370  0.73857  0.00570  Biso   1.000  C
  H21      1.0000 0.80448  0.22888  0.97789  Biso   1.000  H
  H22      1.0000 0.87752  0.23171  0.02229  Biso   1.000  H
  N15      1.0000 0.80818  0.32369  0.02529  Biso   1.000  N
  H23      1.0000 0.71479  0.34530  0.88879  Biso   1.000  H
  H24      1.0000 0.73000  0.42962  0.87021  Biso   1.000  H
  N16      1.0000 0.74418  0.41187  0.95622  Biso   1.000  N
  H25      1.0000 0.28521  0.65470  0.11121  Biso   1.000  H
  H26      1.0000 0.27000  0.57038  0.12979  Biso   1.000  H
  N17      1.0000 0.16903  0.63088  0.12408  Biso   1.000  N
  N18      1.0000 0.16897  0.63088  0.12408  Biso   1.000  N
  H27      1.0000 0.12248  0.76829  0.97771  Biso   1.000  H
  H28      1.0000 0.19552  0.77112  0.02211  Biso   1.000  H
  N19      1.0000 0.10042  0.71351  0.05333  Biso   1.000  N
  C27      1.0000 0.73448  0.35987  0.00531  Biso   1.000  C
  C28      1.0000 0.82497  0.33821  0.08349  Biso   1.000  C
  C29      1.0000 0.82503  0.33821  0.08349  Biso   1.000  C
  C30      1.0000 0.73339  0.48571  0.97280  Biso   1.000  C
  C31      1.0000 0.13091  0.70268  0.11338  Biso   1.000  C
  C32      1.0000 0.11927  0.58240  0.15428  Biso   1.000  C
  C33      1.0000 0.01958  0.73222  0.05280  Biso   1.000  C
  H29      1.0000 0.69139  0.32290  0.99779  Biso   1.000  H
  C34      1.0000 0.71321  0.41352  0.05780  Biso   1.000  C
  N20      1.0000 0.77030  0.39180  0.10290  Biso   1.000  N
  O8       1.0000 0.87703  0.30832  0.11325  Biso   1.000  O
  O9       1.0000 0.87697  0.30832  0.11325  Biso   1.000  O
  O10      1.0000 0.73139  0.54049  0.93889  Biso   1.000  O
  N21      1.0000 0.72400  0.48820  0.03259  Biso   1.000  N
  H30      1.0000 0.16521  0.74509  0.12590  Biso   1.000  H
  C35      1.0000 0.05182  0.69859  0.15000  Biso   1.000  C
  N22      1.0000 0.04891  0.61949  0.16782  Biso   1.000  N
  O11      1.0000 0.13612  0.51713  0.16905  Biso   1.000  O
  N23      1.0000 0.99042  0.72201  0.10900  Biso   1.000  N
  O12      1.0000 0.98127  0.75559  0.01044  Biso   1.000  O
  H31      1.0000 0.65721  0.40581  0.07102  Biso   1.000  H
  C36      1.0000 0.77103  0.42129  0.16282  Biso   1.000  C
  C37      1.0000 0.70018  0.55711  0.06310  Biso   1.000  C
  H32      1.0000 0.05400  0.73228  0.18440  Biso   1.000  H
  C38      1.0000 0.99388  0.59158  0.21248  Biso   1.000  C
  C39      1.0000 0.90782  0.73738  0.12510  Biso   1.000  C
  H33      1.0000 0.79600  0.38380  0.18829  Biso   1.000  H
  H34      1.0000 0.71527  0.42758  0.17569  Biso   1.000  H
  N24      1.0000 0.81279  0.49240  0.17056  Biso   1.000  N
  H35      1.0000 0.65261  0.54661  0.08689  Biso   1.000  H
  H36      1.0000 0.68552  0.59510  0.03401  Biso   1.000  H
  N25      1.0000 0.76309  0.58761  0.10087  Biso   1.000  N
  H37      1.0000 0.98709  0.63049  0.24250  Biso   1.000  H
  N26      1.0000 0.91497  0.57060  0.19010  Biso   1.000  N
  N27      1.0000 0.91503  0.57060  0.19010  Biso   1.000  N
  H38      1.0000 0.01812  0.54769  0.23141  Biso   1.000  H
  H39      1.0000 0.90752  0.76358  0.16282  Biso   1.000  H
  H40      1.0000 0.88473  0.77141  0.09591  Biso   1.000  H
  N28      1.0000 0.85642  0.67109  0.12970  Biso   1.000  N
  C40      1.0000 0.89158  0.49609  0.18718  Biso   1.000  C
  C41      1.0000 0.77709  0.56748  0.16269  Biso   1.000  C
  C42      1.0000 0.80873  0.64841  0.08309  Biso   1.000  C
  C43      1.0000 0.84739  0.62260  0.18108  Biso   1.000  C
  O13      1.0000 0.93521  0.44148  0.19895  Biso   1.000  O
  C44      1.0000 0.70109  0.57928  0.20041  Biso   1.000  C
  O14      1.0000 0.80558  0.67971  0.03485  Biso   1.000  O
  C45      1.0000 0.82727  0.66718  0.23720  Biso   1.000  C
  H41      1.0000 0.71048  0.56011  0.23998  Biso   1.000  H
  H42      1.0000 0.65618  0.55132  0.18338  Biso   1.000  H
  C46      1.0000 0.67958  0.66281  0.20341  Biso   1.000  C
  H43      1.0000 0.87079  0.70251  0.24569  Biso   1.000  H
  H44      1.0000 0.82291  0.63241  0.27032  Biso   1.000  H
  C47      1.0000 0.74812  0.71067  0.23061  Biso   1.000  C
  H45      1.0000 0.66812  0.68113  0.16379  Biso   1.000  H
  H46      1.0000 0.63079  0.66888  0.22689  Biso   1.000  H
  H47      1.0000 0.73103  0.72871  0.26921  Biso   1.000  H
  H48      1.0000 0.75739  0.75479  0.20580  Biso   1.000  H
  C48      1.0000 0.25188  0.28933  0.76939  Biso   1.000  C
  C49      1.0000 0.17273  0.33282  0.76280  Biso   1.000  C
  H49      1.0000 0.26903  0.27129  0.73079  Biso   1.000  H
  H50      1.0000 0.24261  0.24521  0.79420  Biso   1.000  H
  C50      1.0000 0.32042  0.33719  0.79659  Biso   1.000  C
  C51      1.0000 0.15261  0.37740  0.81892  Biso   1.000  C
  H51      1.0000 0.12921  0.29749  0.75431  Biso   1.000  H
  H52      1.0000 0.17709  0.36759  0.72968  Biso   1.000  H
  C52      1.0000 0.29891  0.42072  0.79959  Biso   1.000  C
  H53      1.0000 0.33188  0.31887  0.83621  Biso   1.000  H
  H54      1.0000 0.36921  0.33112  0.77311  Biso   1.000  H
  C53      1.0000 0.22291  0.43252  0.83731  Biso   1.000  C
  N29      1.0000 0.14358  0.32891  0.87030  Biso   1.000  N
  N30      1.0000 0.08503  0.42940  0.80990  Biso   1.000  N
  N31      1.0000 0.08497  0.42940  0.80990  Biso   1.000  N
  H55      1.0000 0.28952  0.43989  0.76002  Biso   1.000  H
  H56      1.0000 0.34382  0.44868  0.81662  Biso   1.000  H
  N32      1.0000 0.23691  0.41239  0.89913  Biso   1.000  N
  N33      1.0000 0.18721  0.50760  0.82944  Biso   1.000  N
  C54      1.0000 0.09218  0.26262  0.87490  Biso   1.000  C
  C55      1.0000 0.19127  0.35159  0.91691  Biso   1.000  C
  C56      1.0000 0.00612  0.40842  0.78752  Biso   1.000  C
  C57      1.0000 0.10842  0.50391  0.81282  Biso   1.000  C
  C58      1.0000 0.29982  0.44289  0.93690  Biso   1.000  C
  C59      1.0000 0.22903  0.57871  0.83718  Biso   1.000  C
  C60      1.0000 0.22897  0.57871  0.83718  Biso   1.000  C
  H57      1.0000 0.09248  0.23642  0.83718  Biso   1.000  H
  H58      1.0000 0.11527  0.22859  0.90409  Biso   1.000  H
  N34      1.0000 0.00958  0.27799  0.89100  Biso   1.000  N
  O15      1.0000 0.19442  0.32029  0.96515  Biso   1.000  O
  H59      1.0000 0.01291  0.36951  0.75750  Biso   1.000  H
  H60      1.0000 0.98188  0.45231  0.76859  Biso   1.000  H
  N35      1.0000 0.95109  0.38051  0.83218  Biso   1.000  N
  O16      1.0000 0.06479  0.55852  0.80105  Biso   1.000  O
  H61      1.0000 0.34739  0.45339  0.91311  Biso   1.000  H
  H62      1.0000 0.31448  0.40490  0.96599  Biso   1.000  H
  N36      1.0000 0.27600  0.51180  0.96741  Biso   1.000  N
  H63      1.0000 0.20400  0.61620  0.81171  Biso   1.000  H
  H64      1.0000 0.28473  0.57242  0.82431  Biso   1.000  H
  N37      1.0000 0.22970  0.60820  0.89710  Biso   1.000  N
  C61      1.0000 0.98042  0.26778  0.94720  Biso   1.000  C
  C62      1.0000 0.94818  0.30141  0.85000  Biso   1.000  C
  C63      1.0000 0.88073  0.41760  0.84572  Biso   1.000  C
  C64      1.0000 0.28679  0.58648  0.94220  Biso   1.000  C
  C65      1.0000 0.26661  0.51429  0.02720  Biso   1.000  C
  C66      1.0000 0.17503  0.66179  0.91651  Biso   1.000  C
  C67      1.0000 0.17497  0.66179  0.91651  Biso   1.000  C
  O17      1.0000 0.01873  0.24441  0.98956  Biso   1.000  O
  N38      1.0000 0.89958  0.28649  0.94667  Biso   1.000  N
  C68      1.0000 0.86909  0.29732  0.88662  Biso   1.000  C
  H65      1.0000 0.94600  0.26772  0.81560  Biso   1.000  H
  N39      1.0000 0.83103  0.36912  0.87592  Biso   1.000  N
  O18      1.0000 0.86388  0.48287  0.83095  Biso   1.000  O
  N40      1.0000 0.83097  0.36912  0.87592  Biso   1.000  N
  H66      1.0000 0.34279  0.59419  0.92898  Biso   1.000  H
  C69      1.0000 0.26552  0.64013  0.99469  Biso   1.000  C
  O19      1.0000 0.26861  0.45951  0.06111  Biso   1.000  O
  N41      1.0000 0.25582  0.58813  0.04378  Biso   1.000  N
  N42      1.0000 0.19182  0.67631  0.97471  Biso   1.000  N
  O20      1.0000 0.12303  0.69168  0.88675  Biso   1.000  O
  O21      1.0000 0.12297  0.69168  0.88675  Biso   1.000  O
  C70      1.0000 0.84630  0.26143  0.99430  Biso   1.000  C
  H67      1.0000 0.83479  0.25491  0.87410  Biso   1.000  H
  C71      1.0000 0.74988  0.38879  0.89489  Biso   1.000  C
  H68      1.0000 0.30861  0.67710  0.00221  Biso   1.000  H
  C72      1.0000 0.25012  0.61121  0.10511  Biso   1.000  C
  C73      1.0000 0.15370  0.73857  0.00570  Biso   1.000  C
  H69      1.0000 0.80448  0.22888  0.97789  Biso   1.000  H
  H70      1.0000 0.87752  0.23171  0.02229  Biso   1.000  H
  N43      1.0000 0.80818  0.32369  0.02529  Biso   1.000  N
  H71      1.0000 0.71479  0.34530  0.88879  Biso   1.000  H
  H72      1.0000 0.73000  0.42962  0.87021  Biso   1.000  H
  N44      1.0000 0.74418  0.41187  0.95622  Biso   1.000  N
  H73      1.0000 0.28521  0.65470  0.11121  Biso   1.000  H
  H74      1.0000 0.27000  0.57038  0.12979  Biso   1.000  H
  N45      1.0000 0.16903  0.63088  0.12408  Biso   1.000  N
  N46      1.0000 0.16897  0.63088  0.12408  Biso   1.000  N
  H75      1.0000 0.12248  0.76829  0.97771  Biso   1.000  H
  H76      1.0000 0.19552  0.77112  0.02211  Biso   1.000  H
  N47      1.0000 0.10042  0.71351  0.05333  Biso   1.000  N
  C74      1.0000 0.73448  0.35987  0.00531  Biso   1.000  C
  C75      1.0000 0.82497  0.33821  0.08349  Biso   1.000  C
  C76      1.0000 0.82503  0.33821  0.08349  Biso   1.000  C
  C77      1.0000 0.73339  0.48571  0.97280  Biso   1.000  C
  C78      1.0000 0.13091  0.70268  0.11338  Biso   1.000  C
  C79      1.0000 0.11927  0.58240  0.15428  Biso   1.000  C
  C80      1.0000 0.01958  0.73222  0.05280  Biso   1.000  C
  H77      1.0000 0.69139  0.32290  0.99779  Biso   1.000  H
  C81      1.0000 0.71321  0.41352  0.05780  Biso   1.000  C
  N48      1.0000 0.77030  0.39180  0.10290  Biso   1.000  N
  O22      1.0000 0.87703  0.30832  0.11325  Biso   1.000  O
  O23      1.0000 0.87697  0.30832  0.11325  Biso   1.000  O
  O24      1.0000 0.73139  0.54049  0.93889  Biso   1.000  O
  N49      1.0000 0.72400  0.48820  0.03259  Biso   1.000  N
  H78      1.0000 0.16521  0.74509  0.12590  Biso   1.000  H
  C82      1.0000 0.05182  0.69859  0.15000  Biso   1.000  C
  N50      1.0000 0.04891  0.61949  0.16782  Biso   1.000  N
  O25      1.0000 0.13612  0.51713  0.16905  Biso   1.000  O
  N51      1.0000 0.99042  0.72201  0.10900  Biso   1.000  N
  O26      1.0000 0.98127  0.75559  0.01044  Biso   1.000  O
  H79      1.0000 0.65721  0.40581  0.07102  Biso   1.000  H
  C83      1.0000 0.77103  0.42129  0.16282  Biso   1.000  C
  C84      1.0000 0.70018  0.55711  0.06310  Biso   1.000  C
  H80      1.0000 0.05400  0.73228  0.18440  Biso   1.000  H
  C85      1.0000 0.99388  0.59158  0.21248  Biso   1.000  C
  C86      1.0000 0.90782  0.73738  0.12510  Biso   1.000  C
  H81      1.0000 0.79600  0.38380  0.18829  Biso   1.000  H
  H82      1.0000 0.71527  0.42758  0.17569  Biso   1.000  H
  N52      1.0000 0.81279  0.49240  0.17056  Biso   1.000  N
  H83      1.0000 0.65261  0.54661  0.08689  Biso   1.000  H
  H84      1.0000 0.68552  0.59510  0.03401  Biso   1.000  H
  N53      1.0000 0.76309  0.58761  0.10087  Biso   1.000  N
  H85      1.0000 0.98709  0.63049  0.24250  Biso   1.000  H
  N54      1.0000 0.91497  0.57060  0.19010  Biso   1.000  N
  N55      1.0000 0.91503  0.57060  0.19010  Biso   1.000  N
  H86      1.0000 0.01812  0.54769  0.23141  Biso   1.000  H
  H87      1.0000 0.90752  0.76358  0.16282  Biso   1.000  H
  H88      1.0000 0.88473  0.77141  0.09591  Biso   1.000  H
  N56      1.0000 0.85642  0.67109  0.12970  Biso   1.000  N
  C87      1.0000 0.89158  0.49609  0.18718  Biso   1.000  C
  C88      1.0000 0.77709  0.56748  0.16269  Biso   1.000  C
  C89      1.0000 0.80873  0.64841  0.08309  Biso   1.000  C
  C90      1.0000 0.84739  0.62260  0.18108  Biso   1.000  C
  O27      1.0000 0.93521  0.44148  0.19895  Biso   1.000  O
  C91      1.0000 0.70109  0.57928  0.20041  Biso   1.000  C
  O28      1.0000 0.80558  0.67971  0.03485  Biso   1.000  O
  C92      1.0000 0.82727  0.66718  0.23720  Biso   1.000  C
  H89      1.0000 0.71048  0.56011  0.23998  Biso   1.000  H
  H90      1.0000 0.65618  0.55132  0.18338  Biso   1.000  H
  C93      1.0000 0.67958  0.66281  0.20341  Biso   1.000  C
  H91      1.0000 0.87079  0.70251  0.24569  Biso   1.000  H
  H92      1.0000 0.82291  0.63241  0.27032  Biso   1.000  H
  C94      1.0000 0.74812  0.71067  0.23061  Biso   1.000  C
  H93      1.0000 0.66812  0.68113  0.16379  Biso   1.000  H
  H94      1.0000 0.63079  0.66888  0.22689  Biso   1.000  H
  H95      1.0000 0.73103  0.72871  0.26921  Biso   1.000  H
  H96      1.0000 0.75739  0.75479  0.20580  Biso   1.000  H
  C95      1.0000 0.25188  0.28933  0.76939  Biso   1.000  C
  C96      1.0000 0.17273  0.33282  0.76280  Biso   1.000  C
  H97      1.0000 0.26903  0.27129  0.73079  Biso   1.000  H
  H98      1.0000 0.24261  0.24521  0.79420  Biso   1.000  H
  C97      1.0000 0.32042  0.33719  0.79659  Biso   1.000  C
  C98      1.0000 0.15261  0.37740  0.81892  Biso   1.000  C
  H99      1.0000 0.12921  0.29749  0.75431  Biso   1.000  H
  H100     1.0000 0.17709  0.36759  0.72968  Biso   1.000  H
  C99      1.0000 0.29891  0.42072  0.79959  Biso   1.000  C
  H101     1.0000 0.33188  0.31887  0.83621  Biso   1.000  H
  H102     1.0000 0.36921  0.33112  0.77311  Biso   1.000  H
  C100     1.0000 0.22291  0.43252  0.83731  Biso   1.000  C
  N57      1.0000 0.14358  0.32891  0.87030  Biso   1.000  N
  N58      1.0000 0.08503  0.42940  0.80990  Biso   1.000  N
  N59      1.0000 0.08497  0.42940  0.80990  Biso   1.000  N
  H103     1.0000 0.28952  0.43989  0.76002  Biso   1.000  H
  H104     1.0000 0.34382  0.44868  0.81662  Biso   1.000  H
  N60      1.0000 0.23691  0.41239  0.89913  Biso   1.000  N
  N61      1.0000 0.18721  0.50760  0.82944  Biso   1.000  N
  C101     1.0000 0.09218  0.26262  0.87490  Biso   1.000  C
  C102     1.0000 0.19127  0.35159  0.91691  Biso   1.000  C
  C103     1.0000 0.00612  0.40842  0.78752  Biso   1.000  C
  C104     1.0000 0.10842  0.50391  0.81282  Biso   1.000  C
  C105     1.0000 0.29982  0.44289  0.93690  Biso   1.000  C
  C106     1.0000 0.22903  0.57871  0.83718  Biso   1.000  C
  C107     1.0000 0.22897  0.57871  0.83718  Biso   1.000  C
  H105     1.0000 0.09248  0.23642  0.83718  Biso   1.000  H
  H106     1.0000 0.11527  0.22859  0.90409  Biso   1.000  H
  N62      1.0000 0.00958  0.27799  0.89100  Biso   1.000  N
  O29      1.0000 0.19442  0.32029  0.96515  Biso   1.000  O
  H107     1.0000 0.01291  0.36951  0.75750  Biso   1.000  H
  H108     1.0000 0.98188  0.45231  0.76859  Biso   1.000  H
  N63      1.0000 0.95109  0.38051  0.83218  Biso   1.000  N
  O30      1.0000 0.06479  0.55852  0.80105  Biso   1.000  O
  H109     1.0000 0.34739  0.45339  0.91311  Biso   1.000  H
  H110     1.0000 0.31448  0.40490  0.96599  Biso   1.000  H
  N64      1.0000 0.27600  0.51180  0.96741  Biso   1.000  N
  H111     1.0000 0.20400  0.61620  0.81171  Biso   1.000  H
  H112     1.0000 0.28473  0.57242  0.82431  Biso   1.000  H
  N65      1.0000 0.22970  0.60820  0.89710  Biso   1.000  N
  C108     1.0000 0.98042  0.26778  0.94720  Biso   1.000  C
  C109     1.0000 0.94818  0.30141  0.85000  Biso   1.000  C
  C110     1.0000 0.88073  0.41760  0.84572  Biso   1.000  C
  C111     1.0000 0.28679  0.58648  0.94220  Biso   1.000  C
  C112     1.0000 0.26661  0.51429  0.02720  Biso   1.000  C
  C113     1.0000 0.17503  0.66179  0.91651  Biso   1.000  C
  C114     1.0000 0.17497  0.66179  0.91651  Biso   1.000  C
  O31      1.0000 0.01873  0.24441  0.98956  Biso   1.000  O
  N66      1.0000 0.89958  0.28649  0.94667  Biso   1.000  N
  C115     1.0000 0.86909  0.29732  0.88662  Biso   1.000  C
  H113     1.0000 0.94600  0.26772  0.81560  Biso   1.000  H
  N67      1.0000 0.83103  0.36912  0.87592  Biso   1.000  N
  O32      1.0000 0.86388  0.48287  0.83095  Biso   1.000  O
  N68      1.0000 0.83097  0.36912  0.87592  Biso   1.000  N
  H114     1.0000 0.34279  0.59419  0.92898  Biso   1.000  H
  C116     1.0000 0.26552  0.64013  0.99469  Biso   1.000  C
  O33      1.0000 0.26861  0.45951  0.06111  Biso   1.000  O
  N69      1.0000 0.25582  0.58813  0.04378  Biso   1.000  N
  N70      1.0000 0.19182  0.67631  0.97471  Biso   1.000  N
  O34      1.0000 0.12303  0.69168  0.88675  Biso   1.000  O
  O35      1.0000 0.12297  0.69168  0.88675  Biso   1.000  O
  C117     1.0000 0.84630  0.26143  0.99430  Biso   1.000  C
  H115     1.0000 0.83479  0.25491  0.87410  Biso   1.000  H
  C118     1.0000 0.74988  0.38879  0.89489  Biso   1.000  C
  H116     1.0000 0.30861  0.67710  0.00221  Biso   1.000  H
  C119     1.0000 0.25012  0.61121  0.10511  Biso   1.000  C
  C120     1.0000 0.15370  0.73857  0.00570  Biso   1.000  C
  H117     1.0000 0.80448  0.22888  0.97789  Biso   1.000  H
  H118     1.0000 0.87752  0.23171  0.02229  Biso   1.000  H
  N71      1.0000 0.80818  0.32369  0.02529  Biso   1.000  N
  H119     1.0000 0.71479  0.34530  0.88879  Biso   1.000  H
  H120     1.0000 0.73000  0.42962  0.87021  Biso   1.000  H
  N72      1.0000 0.74418  0.41187  0.95622  Biso   1.000  N
  H121     1.0000 0.28521  0.65470  0.11121  Biso   1.000  H
  H122     1.0000 0.27000  0.57038  0.12979  Biso   1.000  H
  N73      1.0000 0.16903  0.63088  0.12408  Biso   1.000  N
  N74      1.0000 0.16897  0.63088  0.12408  Biso   1.000  N
  H123     1.0000 0.12248  0.76829  0.97771  Biso   1.000  H
  H124     1.0000 0.19552  0.77112  0.02211  Biso   1.000  H
  N75      1.0000 0.10042  0.71351  0.05333  Biso   1.000  N
  C121     1.0000 0.73448  0.35987  0.00531  Biso   1.000  C
  C122     1.0000 0.82497  0.33821  0.08349  Biso   1.000  C
  C123     1.0000 0.82503  0.33821  0.08349  Biso   1.000  C
  C124     1.0000 0.73339  0.48571  0.97280  Biso   1.000  C
  C125     1.0000 0.13091  0.70268  0.11338  Biso   1.000  C
  C126     1.0000 0.11927  0.58240  0.15428  Biso   1.000  C
  C127     1.0000 0.01958  0.73222  0.05280  Biso   1.000  C
  H125     1.0000 0.69139  0.32290  0.99779  Biso   1.000  H
  C128     1.0000 0.71321  0.41352  0.05780  Biso   1.000  C
  N76      1.0000 0.77030  0.39180  0.10290  Biso   1.000  N
  O36      1.0000 0.87703  0.30832  0.11325  Biso   1.000  O
  O37      1.0000 0.87697  0.30832  0.11325  Biso   1.000  O
  O38      1.0000 0.73139  0.54049  0.93889  Biso   1.000  O
  N77      1.0000 0.72400  0.48820  0.03259  Biso   1.000  N
  H126     1.0000 0.16521  0.74509  0.12590  Biso   1.000  H
  C129     1.0000 0.05182  0.69859  0.15000  Biso   1.000  C
  N78      1.0000 0.04891  0.61949  0.16782  Biso   1.000  N
  O39      1.0000 0.13612  0.51713  0.16905  Biso   1.000  O
  N79      1.0000 0.99042  0.72201  0.10900  Biso   1.000  N
  O40      1.0000 0.98127  0.75559  0.01044  Biso   1.000  O
  H127     1.0000 0.65721  0.40581  0.07102  Biso   1.000  H
  C130     1.0000 0.77103  0.42129  0.16282  Biso   1.000  C
  C131     1.0000 0.70018  0.55711  0.06310  Biso   1.000  C
  H128     1.0000 0.05400  0.73228  0.18440  Biso   1.000  H
  C132     1.0000 0.99388  0.59158  0.21248  Biso   1.000  C
  C133     1.0000 0.90782  0.73738  0.12510  Biso   1.000  C
  H129     1.0000 0.79600  0.38380  0.18829  Biso   1.000  H
  H130     1.0000 0.71527  0.42758  0.17569  Biso   1.000  H
  N80      1.0000 0.81279  0.49240  0.17056  Biso   1.000  N
  H131     1.0000 0.65261  0.54661  0.08689  Biso   1.000  H
  H132     1.0000 0.68552  0.59510  0.03401  Biso   1.000  H
  N81      1.0000 0.76309  0.58761  0.10087  Biso   1.000  N
  H133     1.0000 0.98709  0.63049  0.24250  Biso   1.000  H
  N82      1.0000 0.91497  0.57060  0.19010  Biso   1.000  N
  N83      1.0000 0.91503  0.57060  0.19010  Biso   1.000  N
  H134     1.0000 0.01812  0.54769  0.23141  Biso   1.000  H
  H135     1.0000 0.90752  0.76358  0.16282  Biso   1.000  H
  H136     1.0000 0.88473  0.77141  0.09591  Biso   1.000  H
  N84      1.0000 0.85642  0.67109  0.12970  Biso   1.000  N
  C134     1.0000 0.89158  0.49609  0.18718  Biso   1.000  C
  C135     1.0000 0.77709  0.56748  0.16269  Biso   1.000  C
  C136     1.0000 0.80873  0.64841  0.08309  Biso   1.000  C
  C137     1.0000 0.84739  0.62260  0.18108  Biso   1.000  C
  O41      1.0000 0.93521  0.44148  0.19895  Biso   1.000  O
  C138     1.0000 0.70109  0.57928  0.20041  Biso   1.000  C
  O42      1.0000 0.80558  0.67971  0.03485  Biso   1.000  O
  C139     1.0000 0.82727  0.66718  0.23720  Biso   1.000  C
  H137     1.0000 0.71048  0.56011  0.23998  Biso   1.000  H
  H138     1.0000 0.65618  0.55132  0.18338  Biso   1.000  H
  C140     1.0000 0.67958  0.66281  0.20341  Biso   1.000  C
  H139     1.0000 0.87079  0.70251  0.24569  Biso   1.000  H
  H140     1.0000 0.82291  0.63241  0.27032  Biso   1.000  H
  C141     1.0000 0.74812  0.71067  0.23061  Biso   1.000  C
  H141     1.0000 0.66812  0.68113  0.16379  Biso   1.000  H
  H142     1.0000 0.63079  0.66888  0.22689  Biso   1.000  H
  H143     1.0000 0.73103  0.72871  0.26921  Biso   1.000  H
  H144     1.0000 0.75739  0.75479  0.20580  Biso   1.000  H
  C142     1.0000 0.25188  0.28933  0.76939  Biso   1.000  C
  C143     1.0000 0.17273  0.33282  0.76280  Biso   1.000  C
  H145     1.0000 0.26903  0.27129  0.73079  Biso   1.000  H
  H146     1.0000 0.24261  0.24521  0.79420  Biso   1.000  H
  C144     1.0000 0.32042  0.33719  0.79659  Biso   1.000  C
  C145     1.0000 0.15261  0.37740  0.81892  Biso   1.000  C
  H147     1.0000 0.12921  0.29749  0.75431  Biso   1.000  H
  H148     1.0000 0.17709  0.36759  0.72968  Biso   1.000  H
  C146     1.0000 0.29891  0.42072  0.79959  Biso   1.000  C
  H149     1.0000 0.33188  0.31887  0.83621  Biso   1.000  H
  H150     1.0000 0.36921  0.33112  0.77311  Biso   1.000  H
  C147     1.0000 0.22291  0.43252  0.83731  Biso   1.000  C
  N85      1.0000 0.14358  0.32891  0.87030  Biso   1.000  N
  N86      1.0000 0.08503  0.42940  0.80990  Biso   1.000  N
  N87      1.0000 0.08497  0.42940  0.80990  Biso   1.000  N
  H151     1.0000 0.28952  0.43989  0.76002  Biso   1.000  H
  H152     1.0000 0.34382  0.44868  0.81662  Biso   1.000  H
  N88      1.0000 0.23691  0.41239  0.89913  Biso   1.000  N
  N89      1.0000 0.18721  0.50760  0.82944  Biso   1.000  N
  C148     1.0000 0.09218  0.26262  0.87490  Biso   1.000  C
  C149     1.0000 0.19127  0.35159  0.91691  Biso   1.000  C
  C150     1.0000 0.00612  0.40842  0.78752  Biso   1.000  C
  C151     1.0000 0.10842  0.50391  0.81282  Biso   1.000  C
  C152     1.0000 0.29982  0.44289  0.93690  Biso   1.000  C
  C153     1.0000 0.22897  0.57871  0.83718  Biso   1.000  C
  C154     1.0000 0.22903  0.57871  0.83718  Biso   1.000  C
  H153     1.0000 0.09248  0.23642  0.83718  Biso   1.000  H
  H154     1.0000 0.11527  0.22859  0.90409  Biso   1.000  H
  N90      1.0000 0.00958  0.27799  0.89100  Biso   1.000  N
  O43      1.0000 0.19442  0.32029  0.96515  Biso   1.000  O
  H155     1.0000 0.01291  0.36951  0.75750  Biso   1.000  H
  H156     1.0000 0.98188  0.45231  0.76859  Biso   1.000  H
  N91      1.0000 0.95109  0.38051  0.83218  Biso   1.000  N
  O44      1.0000 0.06479  0.55852  0.80105  Biso   1.000  O
  H157     1.0000 0.34739  0.45339  0.91311  Biso   1.000  H
  H158     1.0000 0.31448  0.40490  0.96599  Biso   1.000  H
  N92      1.0000 0.27600  0.51180  0.96741  Biso   1.000  N
  H159     1.0000 0.20400  0.61620  0.81171  Biso   1.000  H
  H160     1.0000 0.28473  0.57242  0.82431  Biso   1.000  H
  N93      1.0000 0.22970  0.60820  0.89710  Biso   1.000  N
  C155     1.0000 0.98042  0.26778  0.94720  Biso   1.000  C
  C156     1.0000 0.94818  0.30141  0.85000  Biso   1.000  C
  C157     1.0000 0.88073  0.41760  0.84572  Biso   1.000  C
  C158     1.0000 0.28679  0.58648  0.94220  Biso   1.000  C
  C159     1.0000 0.26661  0.51429  0.02720  Biso   1.000  C
  C160     1.0000 0.17503  0.66179  0.91651  Biso   1.000  C
  C161     1.0000 0.17497  0.66179  0.91651  Biso   1.000  C
  O45      1.0000 0.01873  0.24441  0.98956  Biso   1.000  O
  N94      1.0000 0.89958  0.28649  0.94667  Biso   1.000  N
  C162     1.0000 0.86909  0.29732  0.88662  Biso   1.000  C
  H161     1.0000 0.94600  0.26772  0.81560  Biso   1.000  H
  N95      1.0000 0.83103  0.36912  0.87592  Biso   1.000  N
  O46      1.0000 0.86388  0.48287  0.83095  Biso   1.000  O
  N96      1.0000 0.83097  0.36912  0.87592  Biso   1.000  N
  H162     1.0000 0.34279  0.59419  0.92898  Biso   1.000  H
  C163     1.0000 0.26552  0.64013  0.99469  Biso   1.000  C
  O47      1.0000 0.26861  0.45951  0.06111  Biso   1.000  O
  N97      1.0000 0.25582  0.58813  0.04378  Biso   1.000  N
  N98      1.0000 0.19182  0.67631  0.97471  Biso   1.000  N
  O48      1.0000 0.12303  0.69168  0.88675  Biso   1.000  O
  O49      1.0000 0.12297  0.69168  0.88675  Biso   1.000  O
  C164     1.0000 0.84630  0.26143  0.99430  Biso   1.000  C
  H163     1.0000 0.83479  0.25491  0.87410  Biso   1.000  H
  C165     1.0000 0.74988  0.38879  0.89489  Biso   1.000  C
  H164     1.0000 0.30861  0.67710  0.00221  Biso   1.000  H
  C166     1.0000 0.25012  0.61121  0.10511  Biso   1.000  C
  C167     1.0000 0.15370  0.73857  0.00570  Biso   1.000  C
  H165     1.0000 0.80448  0.22888  0.97789  Biso   1.000  H
  H166     1.0000 0.87752  0.23171  0.02229  Biso   1.000  H
  N99      1.0000 0.80818  0.32369  0.02529  Biso   1.000  N
  H167     1.0000 0.71479  0.34530  0.88879  Biso   1.000  H
  H168     1.0000 0.73000  0.42962  0.87021  Biso   1.000  H
  N100     1.0000 0.74418  0.41187  0.95622  Biso   1.000  N
  H169     1.0000 0.28521  0.65470  0.11121  Biso   1.000  H
  H170     1.0000 0.27000  0.57038  0.12979  Biso   1.000  H
  N101     1.0000 0.16903  0.63088  0.12408  Biso   1.000  N
  N102     1.0000 0.16897  0.63088  0.12408  Biso   1.000  N
  H171     1.0000 0.12248  0.76829  0.97771  Biso   1.000  H
  H172     1.0000 0.19552  0.77112  0.02211  Biso   1.000  H
  N103     1.0000 0.10042  0.71351  0.05333  Biso   1.000  N
  C168     1.0000 0.73448  0.35987  0.00531  Biso   1.000  C
  C169     1.0000 0.82497  0.33821  0.08349  Biso   1.000  C
  C170     1.0000 0.82503  0.33821  0.08349  Biso   1.000  C
  C171     1.0000 0.73339  0.48571  0.97280  Biso   1.000  C
  C172     1.0000 0.13091  0.70268  0.11338  Biso   1.000  C
  C173     1.0000 0.11927  0.58240  0.15428  Biso   1.000  C
  C174     1.0000 0.01958  0.73222  0.05280  Biso   1.000  C
  H173     1.0000 0.69139  0.32290  0.99779  Biso   1.000  H
  C175     1.0000 0.71321  0.41352  0.05780  Biso   1.000  C
  N104     1.0000 0.77030  0.39180  0.10290  Biso   1.000  N
  O50      1.0000 0.87703  0.30832  0.11325  Biso   1.000  O
  O51      1.0000 0.87697  0.30832  0.11325  Biso   1.000  O
  O52      1.0000 0.73139  0.54049  0.93889  Biso   1.000  O
  N105     1.0000 0.72400  0.48820  0.03259  Biso   1.000  N
  H174     1.0000 0.16521  0.74509  0.12590  Biso   1.000  H
  C176     1.0000 0.05182  0.69859  0.15000  Biso   1.000  C
  N106     1.0000 0.04891  0.61949  0.16782  Biso   1.000  N
  O53      1.0000 0.13612  0.51713  0.16905  Biso   1.000  O
  N107     1.0000 0.99042  0.72201  0.10900  Biso   1.000  N
  O54      1.0000 0.98127  0.75559  0.01044  Biso   1.000  O
  H175     1.0000 0.65721  0.40581  0.07102  Biso   1.000  H
  C177     1.0000 0.77103  0.42129  0.16282  Biso   1.000  C
  C178     1.0000 0.70018  0.55711  0.06310  Biso   1.000  C
  H176     1.0000 0.05400  0.73228  0.18440  Biso   1.000  H
  C179     1.0000 0.99388  0.59158  0.21248  Biso   1.000  C
  C180     1.0000 0.90782  0.73738  0.12510  Biso   1.000  C
  H177     1.0000 0.79600  0.38380  0.18829  Biso   1.000  H
  H178     1.0000 0.71527  0.42758  0.17569  Biso   1.000  H
  N108     1.0000 0.81279  0.49240  0.17056  Biso   1.000  N
  H179     1.0000 0.65261  0.54661  0.08689  Biso   1.000  H
  H180     1.0000 0.68552  0.59510  0.03401  Biso   1.000  H
  N109     1.0000 0.76309  0.58761  0.10087  Biso   1.000  N
  H181     1.0000 0.98709  0.63049  0.24250  Biso   1.000  H
  N110     1.0000 0.91497  0.57060  0.19010  Biso   1.000  N
  N111     1.0000 0.91503  0.57060  0.19010  Biso   1.000  N
  H182     1.0000 0.01812  0.54769  0.23141  Biso   1.000  H
  H183     1.0000 0.90752  0.76358  0.16282  Biso   1.000  H
  H184     1.0000 0.88473  0.77141  0.09591  Biso   1.000  H
  N112     1.0000 0.85642  0.67109  0.12970  Biso   1.000  N
  C181     1.0000 0.89158  0.49609  0.18718  Biso   1.000  C
  C182     1.0000 0.77709  0.56748  0.16269  Biso   1.000  C
  C183     1.0000 0.80873  0.64841  0.08309  Biso   1.000  C
  C184     1.0000 0.84739  0.62260  0.18108  Biso   1.000  C
  O55      1.0000 0.93521  0.44148  0.19895  Biso   1.000  O
  C185     1.0000 0.70109  0.57928  0.20041  Biso   1.000  C
  O56      1.0000 0.80558  0.67971  0.03485  Biso   1.000  O
  C186     1.0000 0.82727  0.66718  0.23720  Biso   1.000  C
  H185     1.0000 0.71048  0.56011  0.23998  Biso   1.000  H
  H186     1.0000 0.65618  0.55132  0.18338  Biso   1.000  H
  C187     1.0000 0.67958  0.66281  0.20341  Biso   1.000  C
  H187     1.0000 0.87079  0.70251  0.24569  Biso   1.000  H
  H188     1.0000 0.82291  0.63241  0.27032  Biso   1.000  H
  C188     1.0000 0.74812  0.71067  0.23061  Biso   1.000  C
  H189     1.0000 0.66812  0.68113  0.16379  Biso   1.000  H
  H190     1.0000 0.63079  0.66888  0.22689  Biso   1.000  H
  H191     1.0000 0.73103  0.72871  0.26921  Biso   1.000  H
  H192     1.0000 0.75739  0.75479  0.20580  Biso   1.000  H
  C189     1.0000 0.27103  0.07871  0.83718  Biso   1.000  C
  N113     1.0000 0.31279  0.00760  0.82944  Biso   1.000  N
  H193     1.0000 0.29600  0.11620  0.81171  Biso   1.000  H
  H194     1.0000 0.21527  0.07242  0.82431  Biso   1.000  H
  N114     1.0000 0.27030  0.10820  0.89710  Biso   1.000  N
  C190     1.0000 0.39158  0.00391  0.81282  Biso   1.000  C
  C191     1.0000 0.27709  0.93252  0.83731  Biso   1.000  C
  C192     1.0000 0.21321  0.08648  0.94220  Biso   1.000  C
  C193     1.0000 0.32497  0.16179  0.91651  Biso   1.000  C
  C194     1.0000 0.32503  0.16179  0.91651  Biso   1.000  C
  O57      1.0000 0.43521  0.05852  0.80105  Biso   1.000  O
  N115     1.0000 0.41497  0.92940  0.80990  Biso   1.000  N
  N116     1.0000 0.41503  0.92940  0.80990  Biso   1.000  N
  C195     1.0000 0.34739  0.87740  0.81892  Biso   1.000  C
  C196     1.0000 0.20109  0.92072  0.79959  Biso   1.000  C
  N117     1.0000 0.26309  0.91239  0.89913  Biso   1.000  N
  H195     1.0000 0.15721  0.09419  0.92898  Biso   1.000  H
  C197     1.0000 0.23448  0.14013  0.99469  Biso   1.000  C
  N118     1.0000 0.22400  0.01180  0.96741  Biso   1.000  N
  N119     1.0000 0.30818  0.17631  0.97471  Biso   1.000  N
  O58      1.0000 0.37703  0.19168  0.88675  Biso   1.000  O
  C198     1.0000 0.49388  0.90842  0.78752  Biso   1.000  C
  C199     1.0000 0.32727  0.83282  0.76280  Biso   1.000  C
  N120     1.0000 0.35642  0.82891  0.87030  Biso   1.000  N
  H196     1.0000 0.21048  0.93989  0.76002  Biso   1.000  H
  H197     1.0000 0.15618  0.94868  0.81662  Biso   1.000  H
  C200     1.0000 0.17958  0.83719  0.79659  Biso   1.000  C
  C201     1.0000 0.30873  0.85159  0.91691  Biso   1.000  C
  C202     1.0000 0.20018  0.94289  0.93690  Biso   1.000  C
  N121     1.0000 0.24418  0.08813  0.04378  Biso   1.000  N
  H198     1.0000 0.19139  0.17710  0.00221  Biso   1.000  H
  C203     1.0000 0.23339  0.01429  0.02720  Biso   1.000  C
  C204     1.0000 0.34630  0.23857  0.00570  Biso   1.000  C
  H199     1.0000 0.51812  0.95231  0.76859  Biso   1.000  H
  H200     1.0000 0.48709  0.86951  0.75750  Biso   1.000  H
  N122     1.0000 0.54891  0.88051  0.83218  Biso   1.000  N
  H201     1.0000 0.37079  0.79749  0.75431  Biso   1.000  H
  H202     1.0000 0.32291  0.86759  0.72968  Biso   1.000  H
  C205     1.0000 0.24812  0.78933  0.76939  Biso   1.000  C
  C206     1.0000 0.40782  0.76262  0.87490  Biso   1.000  C
  H203     1.0000 0.16812  0.81887  0.83621  Biso   1.000  H
  H204     1.0000 0.13079  0.83112  0.77311  Biso   1.000  H
  O59      1.0000 0.30558  0.82029  0.96515  Biso   1.000  O
  H205     1.0000 0.15261  0.95339  0.91311  Biso   1.000  H
  H206     1.0000 0.18552  0.90490  0.96599  Biso   1.000  H
  C207     1.0000 0.24988  0.11121  0.10511  Biso   1.000  C
  O60      1.0000 0.23139  0.95951  0.06111  Biso   1.000  O
  H207     1.0000 0.37752  0.26829  0.97771  Biso   1.000  H
  H208     1.0000 0.30448  0.27112  0.02211  Biso   1.000  H
  N123     1.0000 0.39958  0.21351  0.05333  Biso   1.000  N
  C208     1.0000 0.55182  0.80141  0.85000  Biso   1.000  C
  C209     1.0000 0.61927  0.91760  0.84572  Biso   1.000  C
  H209     1.0000 0.23097  0.77129  0.73079  Biso   1.000  H
  H210     1.0000 0.25739  0.74521  0.79420  Biso   1.000  H
  H211     1.0000 0.23103  0.77129  0.73079  Biso   1.000  H
  N124     1.0000 0.49042  0.77799  0.89100  Biso   1.000  N
  H212     1.0000 0.40752  0.73642  0.83718  Biso   1.000  H
  H213     1.0000 0.38473  0.72859  0.90409  Biso   1.000  H
  H214     1.0000 0.21479  0.15470  0.11121  Biso   1.000  H
  H215     1.0000 0.23000  0.07038  0.12979  Biso   1.000  H
  N125     1.0000 0.33103  0.13088  0.12408  Biso   1.000  N
  C210     1.0000 0.36909  0.20268  0.11338  Biso   1.000  C
  C211     1.0000 0.48042  0.23222  0.05280  Biso   1.000  C
  C212     1.0000 0.63091  0.79732  0.88662  Biso   1.000  C
  H216     1.0000 0.55400  0.76772  0.81560  Biso   1.000  H
  N126     1.0000 0.66903  0.86912  0.87592  Biso   1.000  N
  O61      1.0000 0.63612  0.98287  0.83095  Biso   1.000  O
  C213     1.0000 0.51958  0.76778  0.94720  Biso   1.000  C
  C214     1.0000 0.38073  0.08240  0.15428  Biso   1.000  C
  H217     1.0000 0.33479  0.24509  0.12590  Biso   1.000  H
  C215     1.0000 0.44818  0.19859  0.15000  Biso   1.000  C
  N127     1.0000 0.50958  0.22201  0.10900  Biso   1.000  N
  O62      1.0000 0.51873  0.25559  0.01044  Biso   1.000  O
  H218     1.0000 0.66521  0.75491  0.87410  Biso   1.000  H
  N128     1.0000 0.60042  0.78649  0.94667  Biso   1.000  N
  C216     1.0000 0.75012  0.88879  0.89489  Biso   1.000  C
  O63      1.0000 0.48127  0.74441  0.98956  Biso   1.000  O
  N129     1.0000 0.45109  0.11949  0.16782  Biso   1.000  N
  O64      1.0000 0.36388  0.01713  0.16905  Biso   1.000  O
  H219     1.0000 0.44600  0.23228  0.18440  Biso   1.000  H
  C217     1.0000 0.59218  0.23738  0.12510  Biso   1.000  C
  C218     1.0000 0.65370  0.76143  0.99430  Biso   1.000  C
  H220     1.0000 0.78521  0.84530  0.88879  Biso   1.000  H
  H221     1.0000 0.77000  0.92962  0.87021  Biso   1.000  H
  N130     1.0000 0.75582  0.91187  0.95622  Biso   1.000  N
  C219     1.0000 0.50612  0.09158  0.21248  Biso   1.000  C
  H222     1.0000 0.59248  0.26358  0.16282  Biso   1.000  H
  H223     1.0000 0.61527  0.27141  0.09591  Biso   1.000  H
  N131     1.0000 0.64358  0.17109  0.12970  Biso   1.000  N
  H224     1.0000 0.69552  0.72888  0.97789  Biso   1.000  H
  N132     1.0000 0.69182  0.82369  0.02529  Biso   1.000  N
  H225     1.0000 0.62248  0.73171  0.02229  Biso   1.000  H
  C220     1.0000 0.76661  0.98571  0.97280  Biso   1.000  C
  C221     1.0000 0.76552  0.85987  0.00531  Biso   1.000  C
  H226     1.0000 0.48188  0.04769  0.23141  Biso   1.000  H
  H227     1.0000 0.51291  0.13049  0.24250  Biso   1.000  H
  N133     1.0000 0.58503  0.07060  0.19010  Biso   1.000  N
  C222     1.0000 0.69127  0.14841  0.08309  Biso   1.000  C
  C223     1.0000 0.65261  0.12260  0.18108  Biso   1.000  C
  C224     1.0000 0.67503  0.83821  0.08349  Biso   1.000  C
  O65      1.0000 0.76861  0.04049  0.93889  Biso   1.000  O
  N134     1.0000 0.77600  0.98820  0.03259  Biso   1.000  N
  H228     1.0000 0.80861  0.82290  0.99779  Biso   1.000  H
  C225     1.0000 0.78679  0.91352  0.05780  Biso   1.000  C
  C226     1.0000 0.60842  0.99609  0.18718  Biso   1.000  C
  N135     1.0000 0.73691  0.08761  0.10087  Biso   1.000  N
  O66      1.0000 0.69442  0.17971  0.03485  Biso   1.000  O
  C227     1.0000 0.72291  0.06748  0.16269  Biso   1.000  C
  C228     1.0000 0.67273  0.16718  0.23720  Biso   1.000  C
  N136     1.0000 0.72970  0.89180  0.10290  Biso   1.000  N
  O67      1.0000 0.62303  0.80832  0.11325  Biso   1.000  O
  C229     1.0000 0.79982  0.05711  0.06310  Biso   1.000  C
  H229     1.0000 0.84279  0.90581  0.07102  Biso   1.000  H
  N137     1.0000 0.68721  0.99240  0.17056  Biso   1.000  N
  O68      1.0000 0.56479  0.94148  0.19895  Biso   1.000  O
  C230     1.0000 0.79891  0.07928  0.20041  Biso   1.000  C
  H230     1.0000 0.62921  0.20251  0.24569  Biso   1.000  H
  H231     1.0000 0.67709  0.13241  0.27032  Biso   1.000  H
  C231     1.0000 0.75188  0.21067  0.23061  Biso   1.000  C
  C232     1.0000 0.72897  0.92129  0.16282  Biso   1.000  C
  C233     1.0000 0.72903  0.92129  0.16282  Biso   1.000  C
  H232     1.0000 0.84739  0.04661  0.08689  Biso   1.000  H
  H233     1.0000 0.81448  0.09510  0.03401  Biso   1.000  H
  H234     1.0000 0.78952  0.06011  0.23998  Biso   1.000  H
  H235     1.0000 0.84382  0.05132  0.18338  Biso   1.000  H
  C234     1.0000 0.82042  0.16281  0.20341  Biso   1.000  C
  H236     1.0000 0.76897  0.22871  0.26921  Biso   1.000  H
  H237     1.0000 0.74261  0.25479  0.20580  Biso   1.000  H
  H238     1.0000 0.76903  0.22871  0.26921  Biso   1.000  H
  H239     1.0000 0.70400  0.88380  0.18829  Biso   1.000  H
  H240     1.0000 0.78473  0.92758  0.17569  Biso   1.000  H
  H241     1.0000 0.83188  0.18113  0.16379  Biso   1.000  H
  H242     1.0000 0.86921  0.16888  0.22689  Biso   1.000  H
  C235     1.0000 0.27103  0.07871  0.83718  Biso   1.000  C
  N138     1.0000 0.31279  0.00760  0.82944  Biso   1.000  N
  H243     1.0000 0.29600  0.11620  0.81171  Biso   1.000  H
  H244     1.0000 0.21527  0.07242  0.82431  Biso   1.000  H
  N139     1.0000 0.27030  0.10820  0.89710  Biso   1.000  N
  C236     1.0000 0.39158  0.00391  0.81282  Biso   1.000  C
  C237     1.0000 0.27709  0.93252  0.83731  Biso   1.000  C
  C238     1.0000 0.21321  0.08648  0.94220  Biso   1.000  C
  C239     1.0000 0.32497  0.16179  0.91651  Biso   1.000  C
  C240     1.0000 0.32503  0.16179  0.91651  Biso   1.000  C
  O69      1.0000 0.43521  0.05852  0.80105  Biso   1.000  O
  N140     1.0000 0.41497  0.92940  0.80990  Biso   1.000  N
  N141     1.0000 0.41503  0.92940  0.80990  Biso   1.000  N
  C241     1.0000 0.34739  0.87740  0.81892  Biso   1.000  C
  C242     1.0000 0.20109  0.92072  0.79959  Biso   1.000  C
  N142     1.0000 0.26309  0.91239  0.89913  Biso   1.000  N
  H245     1.0000 0.15721  0.09419  0.92898  Biso   1.000  H
  C243     1.0000 0.23448  0.14013  0.99469  Biso   1.000  C
  N143     1.0000 0.22400  0.01180  0.96741  Biso   1.000  N
  N144     1.0000 0.30818  0.17631  0.97471  Biso   1.000  N
  O70      1.0000 0.37703  0.19168  0.88675  Biso   1.000  O
  C244     1.0000 0.49388  0.90842  0.78752  Biso   1.000  C
  C245     1.0000 0.32727  0.83282  0.76280  Biso   1.000  C
  N145     1.0000 0.35642  0.82891  0.87030  Biso   1.000  N
  H246     1.0000 0.21048  0.93989  0.76002  Biso   1.000  H
  H247     1.0000 0.15618  0.94868  0.81662  Biso   1.000  H
  C246     1.0000 0.17958  0.83719  0.79659  Biso   1.000  C
  C247     1.0000 0.30873  0.85159  0.91691  Biso   1.000  C
  C248     1.0000 0.20018  0.94289  0.93690  Biso   1.000  C
  N146     1.0000 0.24418  0.08813  0.04378  Biso   1.000  N
  H248     1.0000 0.19139  0.17710  0.00221  Biso   1.000  H
  C249     1.0000 0.23339  0.01429  0.02720  Biso   1.000  C
  C250     1.0000 0.34630  0.23857  0.00570  Biso   1.000  C
  H249     1.0000 0.51812  0.95231  0.76859  Biso   1.000  H
  H250     1.0000 0.48709  0.86951  0.75750  Biso   1.000  H
  N147     1.0000 0.54891  0.88051  0.83218  Biso   1.000  N
  H251     1.0000 0.37079  0.79749  0.75431  Biso   1.000  H
  H252     1.0000 0.32291  0.86759  0.72968  Biso   1.000  H
  C251     1.0000 0.24812  0.78933  0.76939  Biso   1.000  C
  C252     1.0000 0.40782  0.76262  0.87490  Biso   1.000  C
  H253     1.0000 0.16812  0.81887  0.83621  Biso   1.000  H
  H254     1.0000 0.13079  0.83112  0.77311  Biso   1.000  H
  O71      1.0000 0.30558  0.82029  0.96515  Biso   1.000  O
  H255     1.0000 0.15261  0.95339  0.91311  Biso   1.000  H
  H256     1.0000 0.18552  0.90490  0.96599  Biso   1.000  H
  C253     1.0000 0.24988  0.11121  0.10511  Biso   1.000  C
  O72      1.0000 0.23139  0.95951  0.06111  Biso   1.000  O
  H257     1.0000 0.37752  0.26829  0.97771  Biso   1.000  H
  H258     1.0000 0.30448  0.27112  0.02211  Biso   1.000  H
  N148     1.0000 0.39958  0.21351  0.05333  Biso   1.000  N
  C254     1.0000 0.55182  0.80141  0.85000  Biso   1.000  C
  C255     1.0000 0.61927  0.91760  0.84572  Biso   1.000  C
  H259     1.0000 0.23097  0.77129  0.73079  Biso   1.000  H
  H260     1.0000 0.25739  0.74521  0.79420  Biso   1.000  H
  H261     1.0000 0.23103  0.77129  0.73079  Biso   1.000  H
  N149     1.0000 0.49042  0.77799  0.89100  Biso   1.000  N
  H262     1.0000 0.40752  0.73642  0.83718  Biso   1.000  H
  H263     1.0000 0.38473  0.72859  0.90409  Biso   1.000  H
  H264     1.0000 0.21479  0.15470  0.11121  Biso   1.000  H
  H265     1.0000 0.23000  0.07038  0.12979  Biso   1.000  H
  N150     1.0000 0.33103  0.13088  0.12408  Biso   1.000  N
  C256     1.0000 0.36909  0.20268  0.11338  Biso   1.000  C
  C257     1.0000 0.48042  0.23222  0.05280  Biso   1.000  C
  C258     1.0000 0.63091  0.79732  0.88662  Biso   1.000  C
  H266     1.0000 0.55400  0.76772  0.81560  Biso   1.000  H
  N151     1.0000 0.66903  0.86912  0.87592  Biso   1.000  N
  O73      1.0000 0.63612  0.98287  0.83095  Biso   1.000  O
  C259     1.0000 0.51958  0.76778  0.94720  Biso   1.000  C
  C260     1.0000 0.38073  0.08240  0.15428  Biso   1.000  C
  H267     1.0000 0.33479  0.24509  0.12590  Biso   1.000  H
  C261     1.0000 0.44818  0.19859  0.15000  Biso   1.000  C
  N152     1.0000 0.50958  0.22201  0.10900  Biso   1.000  N
  O74      1.0000 0.51873  0.25559  0.01044  Biso   1.000  O
  H268     1.0000 0.66521  0.75491  0.87410  Biso   1.000  H
  N153     1.0000 0.60042  0.78649  0.94667  Biso   1.000  N
  C262     1.0000 0.75012  0.88879  0.89489  Biso   1.000  C
  O75      1.0000 0.48127  0.74441  0.98956  Biso   1.000  O
  N154     1.0000 0.45109  0.11949  0.16782  Biso   1.000  N
  O76      1.0000 0.36388  0.01713  0.16905  Biso   1.000  O
  H269     1.0000 0.44600  0.23228  0.18440  Biso   1.000  H
  C263     1.0000 0.59218  0.23738  0.12510  Biso   1.000  C
  C264     1.0000 0.65370  0.76143  0.99430  Biso   1.000  C
  H270     1.0000 0.78521  0.84530  0.88879  Biso   1.000  H
  H271     1.0000 0.77000  0.92962  0.87021  Biso   1.000  H
  N155     1.0000 0.75582  0.91187  0.95622  Biso   1.000  N
  C265     1.0000 0.50612  0.09158  0.21248  Biso   1.000  C
  H272     1.0000 0.59248  0.26358  0.16282  Biso   1.000  H
  H273     1.0000 0.61527  0.27141  0.09591  Biso   1.000  H
  N156     1.0000 0.64358  0.17109  0.12970  Biso   1.000  N
  H274     1.0000 0.69552  0.72888  0.97789  Biso   1.000  H
  N157     1.0000 0.69182  0.82369  0.02529  Biso   1.000  N
  H275     1.0000 0.62248  0.73171  0.02229  Biso   1.000  H
  C266     1.0000 0.76661  0.98571  0.97280  Biso   1.000  C
  C267     1.0000 0.76552  0.85987  0.00531  Biso   1.000  C
  H276     1.0000 0.48188  0.04769  0.23141  Biso   1.000  H
  H277     1.0000 0.51291  0.13049  0.24250  Biso   1.000  H
  N158     1.0000 0.58503  0.07060  0.19010  Biso   1.000  N
  C268     1.0000 0.69127  0.14841  0.08309  Biso   1.000  C
  C269     1.0000 0.65261  0.12260  0.18108  Biso   1.000  C
  C270     1.0000 0.67503  0.83821  0.08349  Biso   1.000  C
  O77      1.0000 0.76861  0.04049  0.93889  Biso   1.000  O
  N159     1.0000 0.77600  0.98820  0.03259  Biso   1.000  N
  H278     1.0000 0.80861  0.82290  0.99779  Biso   1.000  H
  C271     1.0000 0.78679  0.91352  0.05780  Biso   1.000  C
  C272     1.0000 0.60842  0.99609  0.18718  Biso   1.000  C
  N160     1.0000 0.73691  0.08761  0.10087  Biso   1.000  N
  O78      1.0000 0.69442  0.17971  0.03485  Biso   1.000  O
  C273     1.0000 0.72291  0.06748  0.16269  Biso   1.000  C
  C274     1.0000 0.67273  0.16718  0.23720  Biso   1.000  C
  N161     1.0000 0.72970  0.89180  0.10290  Biso   1.000  N
  O79      1.0000 0.62303  0.80832  0.11325  Biso   1.000  O
  C275     1.0000 0.79982  0.05711  0.06310  Biso   1.000  C
  H279     1.0000 0.84279  0.90581  0.07102  Biso   1.000  H
  N162     1.0000 0.68721  0.99240  0.17056  Biso   1.000  N
  O80      1.0000 0.56479  0.94148  0.19895  Biso   1.000  O
  C276     1.0000 0.79891  0.07928  0.20041  Biso   1.000  C
  H280     1.0000 0.62921  0.20251  0.24569  Biso   1.000  H
  H281     1.0000 0.67709  0.13241  0.27032  Biso   1.000  H
  C277     1.0000 0.75188  0.21067  0.23061  Biso   1.000  C
  C278     1.0000 0.72897  0.92129  0.16282  Biso   1.000  C
  C279     1.0000 0.72903  0.92129  0.16282  Biso   1.000  C
  H282     1.0000 0.84739  0.04661  0.08689  Biso   1.000  H
  H283     1.0000 0.81448  0.09510  0.03401  Biso   1.000  H
  H284     1.0000 0.78952  0.06011  0.23998  Biso   1.000  H
  H285     1.0000 0.84382  0.05132  0.18338  Biso   1.000  H
  C280     1.0000 0.82042  0.16281  0.20341  Biso   1.000  C
  H286     1.0000 0.76897  0.22871  0.26921  Biso   1.000  H
  H287     1.0000 0.74261  0.25479  0.20580  Biso   1.000  H
  H288     1.0000 0.76903  0.22871  0.26921  Biso   1.000  H
  H289     1.0000 0.70400  0.88380  0.18829  Biso   1.000  H
  H290     1.0000 0.78473  0.92758  0.17569  Biso   1.000  H
  H291     1.0000 0.83188  0.18113  0.16379  Biso   1.000  H
  H292     1.0000 0.86921  0.16888  0.22689  Biso   1.000  H
  C281     1.0000 0.27103  0.07871  0.83718  Biso   1.000  C
  N163     1.0000 0.31279  0.00760  0.82944  Biso   1.000  N
  H293     1.0000 0.29600  0.11620  0.81171  Biso   1.000  H
  H294     1.0000 0.21527  0.07242  0.82431  Biso   1.000  H
  N164     1.0000 0.27030  0.10820  0.89710  Biso   1.000  N
  C282     1.0000 0.39158  0.00391  0.81282  Biso   1.000  C
  C283     1.0000 0.27709  0.93252  0.83731  Biso   1.000  C
  C284     1.0000 0.21321  0.08648  0.94220  Biso   1.000  C
  C285     1.0000 0.32497  0.16179  0.91651  Biso   1.000  C
  C286     1.0000 0.32503  0.16179  0.91651  Biso   1.000  C
  O81      1.0000 0.43521  0.05852  0.80105  Biso   1.000  O
  N165     1.0000 0.41497  0.92940  0.80990  Biso   1.000  N
  N166     1.0000 0.41503  0.92940  0.80990  Biso   1.000  N
  C287     1.0000 0.34739  0.87740  0.81892  Biso   1.000  C
  C288     1.0000 0.20109  0.92072  0.79959  Biso   1.000  C
  N167     1.0000 0.26309  0.91239  0.89913  Biso   1.000  N
  H295     1.0000 0.15721  0.09419  0.92898  Biso   1.000  H
  C289     1.0000 0.23448  0.14013  0.99469  Biso   1.000  C
  N168     1.0000 0.22400  0.01180  0.96741  Biso   1.000  N
  N169     1.0000 0.30818  0.17631  0.97471  Biso   1.000  N
  O82      1.0000 0.37703  0.19168  0.88675  Biso   1.000  O
  C290     1.0000 0.49388  0.90842  0.78752  Biso   1.000  C
  C291     1.0000 0.32727  0.83282  0.76280  Biso   1.000  C
  N170     1.0000 0.35642  0.82891  0.87030  Biso   1.000  N
  H296     1.0000 0.21048  0.93989  0.76002  Biso   1.000  H
  H297     1.0000 0.15618  0.94868  0.81662  Biso   1.000  H
  C292     1.0000 0.17958  0.83719  0.79659  Biso   1.000  C
  C293     1.0000 0.30873  0.85159  0.91691  Biso   1.000  C
  C294     1.0000 0.20018  0.94289  0.93690  Biso   1.000  C
  N171     1.0000 0.24418  0.08813  0.04378  Biso   1.000  N
  H298     1.0000 0.19139  0.17710  0.00221  Biso   1.000  H
  C295     1.0000 0.23339  0.01429  0.02720  Biso   1.000  C
  C296     1.0000 0.34630  0.23857  0.00570  Biso   1.000  C
  H299     1.0000 0.51812  0.95231  0.76859  Biso   1.000  H
  H300     1.0000 0.48709  0.86951  0.75750  Biso   1.000  H
  N172     1.0000 0.54891  0.88051  0.83218  Biso   1.000  N
  H301     1.0000 0.37079  0.79749  0.75431  Biso   1.000  H
  H302     1.0000 0.32291  0.86759  0.72968  Biso   1.000  H
  C297     1.0000 0.24812  0.78933  0.76939  Biso   1.000  C
  C298     1.0000 0.40782  0.76262  0.87490  Biso   1.000  C
  H303     1.0000 0.16812  0.81887  0.83621  Biso   1.000  H
  H304     1.0000 0.13079  0.83112  0.77311  Biso   1.000  H
  O83      1.0000 0.30558  0.82029  0.96515  Biso   1.000  O
  H305     1.0000 0.15261  0.95339  0.91311  Biso   1.000  H
  H306     1.0000 0.18552  0.90490  0.96599  Biso   1.000  H
  C299     1.0000 0.24988  0.11121  0.10511  Biso   1.000  C
  O84      1.0000 0.23139  0.95951  0.06111  Biso   1.000  O
  H307     1.0000 0.37752  0.26829  0.97771  Biso   1.000  H
  H308     1.0000 0.30448  0.27112  0.02211  Biso   1.000  H
  N173     1.0000 0.39958  0.21351  0.05333  Biso   1.000  N
  C300     1.0000 0.55182  0.80141  0.85000  Biso   1.000  C
  C301     1.0000 0.61927  0.91760  0.84572  Biso   1.000  C
  H309     1.0000 0.23097  0.77129  0.73079  Biso   1.000  H
  H310     1.0000 0.25739  0.74521  0.79420  Biso   1.000  H
  H311     1.0000 0.23103  0.77129  0.73079  Biso   1.000  H
  N174     1.0000 0.49042  0.77799  0.89100  Biso   1.000  N
  H312     1.0000 0.40752  0.73642  0.83718  Biso   1.000  H
  H313     1.0000 0.38473  0.72859  0.90409  Biso   1.000  H
  H314     1.0000 0.21479  0.15470  0.11121  Biso   1.000  H
  H315     1.0000 0.23000  0.07038  0.12979  Biso   1.000  H
  N175     1.0000 0.33103  0.13088  0.12408  Biso   1.000  N
  C302     1.0000 0.36909  0.20268  0.11338  Biso   1.000  C
  C303     1.0000 0.48042  0.23222  0.05280  Biso   1.000  C
  C304     1.0000 0.63091  0.79732  0.88662  Biso   1.000  C
  H316     1.0000 0.55400  0.76772  0.81560  Biso   1.000  H
  N176     1.0000 0.66903  0.86912  0.87592  Biso   1.000  N
  O85      1.0000 0.63612  0.98287  0.83095  Biso   1.000  O
  C305     1.0000 0.51958  0.76778  0.94720  Biso   1.000  C
  C306     1.0000 0.38073  0.08240  0.15428  Biso   1.000  C
  H317     1.0000 0.33479  0.24509  0.12590  Biso   1.000  H
  C307     1.0000 0.44818  0.19859  0.15000  Biso   1.000  C
  N177     1.0000 0.50958  0.22201  0.10900  Biso   1.000  N
  O86      1.0000 0.51873  0.25559  0.01044  Biso   1.000  O
  H318     1.0000 0.66521  0.75491  0.87410  Biso   1.000  H
  N178     1.0000 0.60042  0.78649  0.94667  Biso   1.000  N
  C308     1.0000 0.75012  0.88879  0.89489  Biso   1.000  C
  O87      1.0000 0.48127  0.74441  0.98956  Biso   1.000  O
  N179     1.0000 0.45109  0.11949  0.16782  Biso   1.000  N
  O88      1.0000 0.36388  0.01713  0.16905  Biso   1.000  O
  H319     1.0000 0.44600  0.23228  0.18440  Biso   1.000  H
  C309     1.0000 0.59218  0.23738  0.12510  Biso   1.000  C
  C310     1.0000 0.65370  0.76143  0.99430  Biso   1.000  C
  H320     1.0000 0.78521  0.84530  0.88879  Biso   1.000  H
  H321     1.0000 0.77000  0.92962  0.87021  Biso   1.000  H
  N180     1.0000 0.75582  0.91187  0.95622  Biso   1.000  N
  C311     1.0000 0.50612  0.09158  0.21248  Biso   1.000  C
  H322     1.0000 0.59248  0.26358  0.16282  Biso   1.000  H
  H323     1.0000 0.61527  0.27141  0.09591  Biso   1.000  H
  N181     1.0000 0.64358  0.17109  0.12970  Biso   1.000  N
  H324     1.0000 0.69552  0.72888  0.97789  Biso   1.000  H
  N182     1.0000 0.69182  0.82369  0.02529  Biso   1.000  N
  H325     1.0000 0.62248  0.73171  0.02229  Biso   1.000  H
  C312     1.0000 0.76661  0.98571  0.97280  Biso   1.000  C
  C313     1.0000 0.76552  0.85987  0.00531  Biso   1.000  C
  H326     1.0000 0.48188  0.04769  0.23141  Biso   1.000  H
  H327     1.0000 0.51291  0.13049  0.24250  Biso   1.000  H
  N183     1.0000 0.58503  0.07060  0.19010  Biso   1.000  N
  C314     1.0000 0.69127  0.14841  0.08309  Biso   1.000  C
  C315     1.0000 0.65261  0.12260  0.18108  Biso   1.000  C
  C316     1.0000 0.67503  0.83821  0.08349  Biso   1.000  C
  O89      1.0000 0.76861  0.04049  0.93889  Biso   1.000  O
  N184     1.0000 0.77600  0.98820  0.03259  Biso   1.000  N
  H328     1.0000 0.80861  0.82290  0.99779  Biso   1.000  H
  C317     1.0000 0.78679  0.91352  0.05780  Biso   1.000  C
  C318     1.0000 0.60842  0.99609  0.18718  Biso   1.000  C
  N185     1.0000 0.73691  0.08761  0.10087  Biso   1.000  N
  O90      1.0000 0.69442  0.17971  0.03485  Biso   1.000  O
  C319     1.0000 0.72291  0.06748  0.16269  Biso   1.000  C
  C320     1.0000 0.67273  0.16718  0.23720  Biso   1.000  C
  N186     1.0000 0.72970  0.89180  0.10290  Biso   1.000  N
  O91      1.0000 0.62303  0.80832  0.11325  Biso   1.000  O
  C321     1.0000 0.79982  0.05711  0.06310  Biso   1.000  C
  H329     1.0000 0.84279  0.90581  0.07102  Biso   1.000  H
  N187     1.0000 0.68721  0.99240  0.17056  Biso   1.000  N
  O92      1.0000 0.56479  0.94148  0.19895  Biso   1.000  O
  C322     1.0000 0.79891  0.07928  0.20041  Biso   1.000  C
  H330     1.0000 0.62921  0.20251  0.24569  Biso   1.000  H
  H331     1.0000 0.67709  0.13241  0.27032  Biso   1.000  H
  C323     1.0000 0.75188  0.21067  0.23061  Biso   1.000  C
  C324     1.0000 0.72897  0.92129  0.16282  Biso   1.000  C
  C325     1.0000 0.72903  0.92129  0.16282  Biso   1.000  C
  H332     1.0000 0.84739  0.04661  0.08689  Biso   1.000  H
  H333     1.0000 0.81448  0.09510  0.03401  Biso   1.000  H
  H334     1.0000 0.78952  0.06011  0.23998  Biso   1.000  H
  H335     1.0000 0.84382  0.05132  0.18338  Biso   1.000  H
  C326     1.0000 0.82042  0.16281  0.20341  Biso   1.000  C
  H336     1.0000 0.76897  0.22871  0.26921  Biso   1.000  H
  H337     1.0000 0.74261  0.25479  0.20580  Biso   1.000  H
  H338     1.0000 0.76903  0.22871  0.26921  Biso   1.000  H
  H339     1.0000 0.70400  0.88380  0.18829  Biso   1.000  H
  H340     1.0000 0.78473  0.92758  0.17569  Biso   1.000  H
  H341     1.0000 0.83188  0.18113  0.16379  Biso   1.000  H
  H342     1.0000 0.86921  0.16888  0.22689  Biso   1.000  H
  C327     1.0000 0.27103  0.07871  0.83718  Biso   1.000  C
  N188     1.0000 0.31279  0.00760  0.82944  Biso   1.000  N
  H343     1.0000 0.29600  0.11620  0.81171  Biso   1.000  H
  H344     1.0000 0.21527  0.07242  0.82431  Biso   1.000  H
  N189     1.0000 0.27030  0.10820  0.89710  Biso   1.000  N
  C328     1.0000 0.39158  0.00391  0.81282  Biso   1.000  C
  C329     1.0000 0.27709  0.93252  0.83731  Biso   1.000  C
  C330     1.0000 0.21321  0.08648  0.94220  Biso   1.000  C
  C331     1.0000 0.32497  0.16179  0.91651  Biso   1.000  C
  C332     1.0000 0.32503  0.16179  0.91651  Biso   1.000  C
  O93      1.0000 0.43521  0.05852  0.80105  Biso   1.000  O
  N190     1.0000 0.41497  0.92940  0.80990  Biso   1.000  N
  N191     1.0000 0.41503  0.92940  0.80990  Biso   1.000  N
  C333     1.0000 0.34739  0.87740  0.81892  Biso   1.000  C
  C334     1.0000 0.20109  0.92072  0.79959  Biso   1.000  C
  N192     1.0000 0.26309  0.91239  0.89913  Biso   1.000  N
  H345     1.0000 0.15721  0.09419  0.92898  Biso   1.000  H
  C335     1.0000 0.23448  0.14013  0.99469  Biso   1.000  C
  N193     1.0000 0.22400  0.01180  0.96741  Biso   1.000  N
  N194     1.0000 0.30818  0.17631  0.97471  Biso   1.000  N
  O94      1.0000 0.37703  0.19168  0.88675  Biso   1.000  O
  C336     1.0000 0.49388  0.90842  0.78752  Biso   1.000  C
  C337     1.0000 0.32727  0.83282  0.76280  Biso   1.000  C
  N195     1.0000 0.35642  0.82891  0.87030  Biso   1.000  N
  H346     1.0000 0.21048  0.93989  0.76002  Biso   1.000  H
  H347     1.0000 0.15618  0.94868  0.81662  Biso   1.000  H
  C338     1.0000 0.17958  0.83719  0.79659  Biso   1.000  C
  C339     1.0000 0.30873  0.85159  0.91691  Biso   1.000  C
  C340     1.0000 0.20018  0.94289  0.93690  Biso   1.000  C
  N196     1.0000 0.24418  0.08813  0.04378  Biso   1.000  N
  H348     1.0000 0.19139  0.17710  0.00221  Biso   1.000  H
  C341     1.0000 0.23339  0.01429  0.02720  Biso   1.000  C
  C342     1.0000 0.34630  0.23857  0.00570  Biso   1.000  C
  H349     1.0000 0.51812  0.95231  0.76859  Biso   1.000  H
  H350     1.0000 0.48709  0.86951  0.75750  Biso   1.000  H
  N197     1.0000 0.54891  0.88051  0.83218  Biso   1.000  N
  H351     1.0000 0.37079  0.79749  0.75431  Biso   1.000  H
  H352     1.0000 0.32291  0.86759  0.72968  Biso   1.000  H
  C343     1.0000 0.24812  0.78933  0.76939  Biso   1.000  C
  C344     1.0000 0.40782  0.76262  0.87490  Biso   1.000  C
  H353     1.0000 0.16812  0.81887  0.83621  Biso   1.000  H
  H354     1.0000 0.13079  0.83112  0.77311  Biso   1.000  H
  O95      1.0000 0.30558  0.82029  0.96515  Biso   1.000  O
  H355     1.0000 0.15261  0.95339  0.91311  Biso   1.000  H
  H356     1.0000 0.18552  0.90490  0.96599  Biso   1.000  H
  C345     1.0000 0.24988  0.11121  0.10511  Biso   1.000  C
  O96      1.0000 0.23139  0.95951  0.06111  Biso   1.000  O
  H357     1.0000 0.37752  0.26829  0.97771  Biso   1.000  H
  H358     1.0000 0.30448  0.27112  0.02211  Biso   1.000  H
  N198     1.0000 0.39958  0.21351  0.05333  Biso   1.000  N
  C346     1.0000 0.55182  0.80141  0.85000  Biso   1.000  C
  C347     1.0000 0.61927  0.91760  0.84572  Biso   1.000  C
  H359     1.0000 0.23097  0.77129  0.73079  Biso   1.000  H
  H360     1.0000 0.25739  0.74521  0.79420  Biso   1.000  H
  H361     1.0000 0.23103  0.77129  0.73079  Biso   1.000  H
  N199     1.0000 0.49042  0.77799  0.89100  Biso   1.000  N
  H362     1.0000 0.40752  0.73642  0.83718  Biso   1.000  H
  H363     1.0000 0.38473  0.72859  0.90409  Biso   1.000  H
  H364     1.0000 0.21479  0.15470  0.11121  Biso   1.000  H
  H365     1.0000 0.23000  0.07038  0.12979  Biso   1.000  H
  N200     1.0000 0.33103  0.13088  0.12408  Biso   1.000  N
  C348     1.0000 0.36909  0.20268  0.11338  Biso   1.000  C
  C349     1.0000 0.48042  0.23222  0.05280  Biso   1.000  C
  C350     1.0000 0.63091  0.79732  0.88662  Biso   1.000  C
  H366     1.0000 0.55400  0.76772  0.81560  Biso   1.000  H
  N201     1.0000 0.66903  0.86912  0.87592  Biso   1.000  N
  O97      1.0000 0.63612  0.98287  0.83095  Biso   1.000  O
  C351     1.0000 0.51958  0.76778  0.94720  Biso   1.000  C
  C352     1.0000 0.38073  0.08240  0.15428  Biso   1.000  C
  H367     1.0000 0.33479  0.24509  0.12590  Biso   1.000  H
  C353     1.0000 0.44818  0.19859  0.15000  Biso   1.000  C
  N202     1.0000 0.50958  0.22201  0.10900  Biso   1.000  N
  O98      1.0000 0.51873  0.25559  0.01044  Biso   1.000  O
  H368     1.0000 0.66521  0.75491  0.87410  Biso   1.000  H
  N203     1.0000 0.60042  0.78649  0.94667  Biso   1.000  N
  C354     1.0000 0.75012  0.88879  0.89489  Biso   1.000  C
  O99      1.0000 0.48127  0.74441  0.98956  Biso   1.000  O
  N204     1.0000 0.45109  0.11949  0.16782  Biso   1.000  N
  O100     1.0000 0.36388  0.01713  0.16905  Biso   1.000  O
  H369     1.0000 0.44600  0.23228  0.18440  Biso   1.000  H
  C355     1.0000 0.59218  0.23738  0.12510  Biso   1.000  C
  C356     1.0000 0.65370  0.76143  0.99430  Biso   1.000  C
  H370     1.0000 0.78521  0.84530  0.88879  Biso   1.000  H
  H371     1.0000 0.77000  0.92962  0.87021  Biso   1.000  H
  N205     1.0000 0.75582  0.91187  0.95622  Biso   1.000  N
  C357     1.0000 0.50612  0.09158  0.21248  Biso   1.000  C
  H372     1.0000 0.59248  0.26358  0.16282  Biso   1.000  H
  H373     1.0000 0.61527  0.27141  0.09591  Biso   1.000  H
  N206     1.0000 0.64358  0.17109  0.12970  Biso   1.000  N
  H374     1.0000 0.69552  0.72888  0.97789  Biso   1.000  H
  N207     1.0000 0.69182  0.82369  0.02529  Biso   1.000  N
  H375     1.0000 0.62248  0.73171  0.02229  Biso   1.000  H
  C358     1.0000 0.76661  0.98571  0.97280  Biso   1.000  C
  C359     1.0000 0.76552  0.85987  0.00531  Biso   1.000  C
  H376     1.0000 0.48188  0.04769  0.23141  Biso   1.000  H
  H377     1.0000 0.51291  0.13049  0.24250  Biso   1.000  H
  N208     1.0000 0.58503  0.07060  0.19010  Biso   1.000  N
  C360     1.0000 0.69127  0.14841  0.08309  Biso   1.000  C
  C361     1.0000 0.65261  0.12260  0.18108  Biso   1.000  C
  C362     1.0000 0.67503  0.83821  0.08349  Biso   1.000  C
  O101     1.0000 0.76861  0.04049  0.93889  Biso   1.000  O
  N209     1.0000 0.77600  0.98820  0.03259  Biso   1.000  N
  H378     1.0000 0.80861  0.82290  0.99779  Biso   1.000  H
  C363     1.0000 0.78679  0.91352  0.05780  Biso   1.000  C
  C364     1.0000 0.60842  0.99609  0.18718  Biso   1.000  C
  N210     1.0000 0.73691  0.08761  0.10087  Biso   1.000  N
  O102     1.0000 0.69442  0.17971  0.03485  Biso   1.000  O
  C365     1.0000 0.72291  0.06748  0.16269  Biso   1.000  C
  C366     1.0000 0.67273  0.16718  0.23720  Biso   1.000  C
  N211     1.0000 0.72970  0.89180  0.10290  Biso   1.000  N
  O103     1.0000 0.62303  0.80832  0.11325  Biso   1.000  O
  C367     1.0000 0.79982  0.05711  0.06310  Biso   1.000  C
  H379     1.0000 0.84279  0.90581  0.07102  Biso   1.000  H
  N212     1.0000 0.68721  0.99240  0.17056  Biso   1.000  N
  O104     1.0000 0.56479  0.94148  0.19895  Biso   1.000  O
  C368     1.0000 0.79891  0.07928  0.20041  Biso   1.000  C
  H380     1.0000 0.62921  0.20251  0.24569  Biso   1.000  H
  H381     1.0000 0.67709  0.13241  0.27032  Biso   1.000  H
  C369     1.0000 0.75188  0.21067  0.23061  Biso   1.000  C
  C370     1.0000 0.72897  0.92129  0.16282  Biso   1.000  C
  C371     1.0000 0.72903  0.92129  0.16282  Biso   1.000  C
  H382     1.0000 0.84739  0.04661  0.08689  Biso   1.000  H
  H383     1.0000 0.81448  0.09510  0.03401  Biso   1.000  H
  H384     1.0000 0.78952  0.06011  0.23998  Biso   1.000  H
  H385     1.0000 0.84382  0.05132  0.18338  Biso   1.000  H
  C372     1.0000 0.82042  0.16281  0.20341  Biso   1.000  C
  H386     1.0000 0.76897  0.22871  0.26921  Biso   1.000  H
  H387     1.0000 0.74261  0.25479  0.20580  Biso   1.000  H
  H388     1.0000 0.76903  0.22871  0.26921  Biso   1.000  H
  H389     1.0000 0.70400  0.88380  0.18829  Biso   1.000  H
  H390     1.0000 0.78473  0.92758  0.17569  Biso   1.000  H
  H391     1.0000 0.83188  0.18113  0.16379  Biso   1.000  H
  H392     1.0000 0.86921  0.16888  0.22689  Biso   1.000  H
  N213     1.0000 0.33103  0.36912  0.62408  Biso   1.000  N
  C373     1.0000 0.24988  0.38879  0.60511  Biso   1.000  C
  C374     1.0000 0.36909  0.29732  0.61338  Biso   1.000  C
  C375     1.0000 0.38073  0.41760  0.65428  Biso   1.000  C
  N214     1.0000 0.24418  0.41187  0.54378  Biso   1.000  N
  H393     1.0000 0.21479  0.34530  0.61121  Biso   1.000  H
  H394     1.0000 0.23000  0.42962  0.62979  Biso   1.000  H
  N215     1.0000 0.39958  0.28649  0.55333  Biso   1.000  N
  H395     1.0000 0.33479  0.25491  0.62590  Biso   1.000  H
  C376     1.0000 0.44818  0.30141  0.65000  Biso   1.000  C
  N216     1.0000 0.45109  0.38051  0.66782  Biso   1.000  N
  O105     1.0000 0.36388  0.48287  0.66905  Biso   1.000  O
  C377     1.0000 0.23448  0.35987  0.49469  Biso   1.000  C
  C378     1.0000 0.23339  0.48571  0.52720  Biso   1.000  C
  C379     1.0000 0.34630  0.26143  0.50570  Biso   1.000  C
  C380     1.0000 0.48042  0.26778  0.55280  Biso   1.000  C
  N217     1.0000 0.50958  0.27799  0.60900  Biso   1.000  N
  H396     1.0000 0.44600  0.26772  0.68440  Biso   1.000  H
  C381     1.0000 0.50612  0.40842  0.71248  Biso   1.000  C
  C382     1.0000 0.21321  0.41352  0.44220  Biso   1.000  C
  N218     1.0000 0.30818  0.32369  0.47471  Biso   1.000  N
  H397     1.0000 0.19139  0.32290  0.50221  Biso   1.000  H
  N219     1.0000 0.22400  0.48820  0.46741  Biso   1.000  N
  O106     1.0000 0.23139  0.54049  0.56111  Biso   1.000  O
  H398     1.0000 0.30448  0.22888  0.52211  Biso   1.000  H
  H399     1.0000 0.37752  0.23171  0.47771  Biso   1.000  H
  O107     1.0000 0.51873  0.24441  0.51044  Biso   1.000  O
  C383     1.0000 0.59218  0.26262  0.62510  Biso   1.000  C
  H400     1.0000 0.48188  0.45231  0.73141  Biso   1.000  H
  H401     1.0000 0.51291  0.36951  0.74250  Biso   1.000  H
  N220     1.0000 0.58503  0.42940  0.69010  Biso   1.000  N
  N221     1.0000 0.27030  0.39180  0.39710  Biso   1.000  N
  H402     1.0000 0.15721  0.40581  0.42898  Biso   1.000  H
  C384     1.0000 0.32497  0.33821  0.41651  Biso   1.000  C
  C385     1.0000 0.20018  0.55711  0.43690  Biso   1.000  C
  H403     1.0000 0.59248  0.23642  0.66282  Biso   1.000  H
  H404     1.0000 0.61527  0.22859  0.59591  Biso   1.000  H
  N222     1.0000 0.64358  0.32891  0.62970  Biso   1.000  N
  C386     1.0000 0.65261  0.37740  0.68108  Biso   1.000  C
  C387     1.0000 0.60842  0.50391  0.68718  Biso   1.000  C
  C388     1.0000 0.27103  0.42129  0.33718  Biso   1.000  C
  O108     1.0000 0.37703  0.30832  0.38675  Biso   1.000  O
  N223     1.0000 0.26309  0.58761  0.39913  Biso   1.000  N
  H405     1.0000 0.15261  0.54661  0.41311  Biso   1.000  H
  H406     1.0000 0.18552  0.59510  0.46599  Biso   1.000  H
  C389     1.0000 0.69127  0.35159  0.58309  Biso   1.000  C
  C390     1.0000 0.72291  0.43252  0.66269  Biso   1.000  C
  C391     1.0000 0.67273  0.33282  0.73720  Biso   1.000  C
  N224     1.0000 0.68721  0.50760  0.67056  Biso   1.000  N
  O109     1.0000 0.56479  0.55852  0.69895  Biso   1.000  O
  H407     1.0000 0.29600  0.38380  0.31171  Biso   1.000  H
  H408     1.0000 0.21527  0.42758  0.32431  Biso   1.000  H
  N225     1.0000 0.31279  0.49240  0.32944  Biso   1.000  N
  C392     1.0000 0.27709  0.56748  0.33731  Biso   1.000  C
  C393     1.0000 0.30873  0.64841  0.41691  Biso   1.000  C
  N226     1.0000 0.73691  0.41239  0.60087  Biso   1.000  N
  O110     1.0000 0.69442  0.32029  0.53485  Biso   1.000  O
  C394     1.0000 0.79891  0.42072  0.70041  Biso   1.000  C
  H409     1.0000 0.62921  0.29749  0.74569  Biso   1.000  H
  H410     1.0000 0.67709  0.36759  0.77032  Biso   1.000  H
  C395     1.0000 0.75188  0.28933  0.73061  Biso   1.000  C
  C396     1.0000 0.72903  0.57871  0.66282  Biso   1.000  C
  C397     1.0000 0.39158  0.49609  0.31282  Biso   1.000  C
  C398     1.0000 0.34739  0.62260  0.31892  Biso   1.000  C
  C399     1.0000 0.20109  0.57928  0.29959  Biso   1.000  C
  N227     1.0000 0.35642  0.67109  0.37030  Biso   1.000  N
  O111     1.0000 0.30558  0.67971  0.46515  Biso   1.000  O
  C400     1.0000 0.79982  0.44289  0.56310  Biso   1.000  C
  H411     1.0000 0.78952  0.43989  0.73998  Biso   1.000  H
  H412     1.0000 0.84382  0.44868  0.68338  Biso   1.000  H
  C401     1.0000 0.82042  0.33719  0.70341  Biso   1.000  C
  H413     1.0000 0.76903  0.27129  0.76921  Biso   1.000  H
  H414     1.0000 0.74261  0.24521  0.70580  Biso   1.000  H
  N228     1.0000 0.72970  0.60820  0.60290  Biso   1.000  N
  H415     1.0000 0.70400  0.61620  0.68829  Biso   1.000  H
  H416     1.0000 0.78473  0.57242  0.67569  Biso   1.000  H
  N229     1.0000 0.41497  0.57060  0.30990  Biso   1.000  N
  O112     1.0000 0.43521  0.44148  0.30105  Biso   1.000  O
  C402     1.0000 0.32727  0.66718  0.26280  Biso   1.000  C
  H417     1.0000 0.21048  0.56011  0.26002  Biso   1.000  H
  H418     1.0000 0.15618  0.55132  0.31662  Biso   1.000  H
  C403     1.0000 0.17958  0.66281  0.29659  Biso   1.000  C
  C404     1.0000 0.40782  0.73738  0.37490  Biso   1.000  C
  N230     1.0000 0.77600  0.51180  0.53259  Biso   1.000  N
  H419     1.0000 0.84739  0.45339  0.58689  Biso   1.000  H
  H420     1.0000 0.81448  0.40490  0.53401  Biso   1.000  H
  H421     1.0000 0.83188  0.31887  0.66379  Biso   1.000  H
  H422     1.0000 0.86921  0.33112  0.72689  Biso   1.000  H
  C405     1.0000 0.67503  0.66179  0.58349  Biso   1.000  C
  C406     1.0000 0.78679  0.58648  0.55780  Biso   1.000  C
  C407     1.0000 0.49388  0.59158  0.28752  Biso   1.000  C
  H423     1.0000 0.37079  0.70251  0.25431  Biso   1.000  H
  H424     1.0000 0.32291  0.63241  0.22968  Biso   1.000  H
  C408     1.0000 0.24812  0.71067  0.26939  Biso   1.000  C
  H425     1.0000 0.16812  0.68113  0.33621  Biso   1.000  H
  H426     1.0000 0.13079  0.66888  0.27311  Biso   1.000  H
  H427     1.0000 0.40752  0.76358  0.33718  Biso   1.000  H
  H428     1.0000 0.38473  0.77141  0.40409  Biso   1.000  H
  N231     1.0000 0.49042  0.72201  0.39100  Biso   1.000  N
  C409     1.0000 0.76661  0.51429  0.47280  Biso   1.000  C
  N232     1.0000 0.69182  0.67631  0.52529  Biso   1.000  N
  O113     1.0000 0.62303  0.69168  0.61325  Biso   1.000  O
  C410     1.0000 0.76552  0.64013  0.50531  Biso   1.000  C
  H429     1.0000 0.84279  0.59419  0.57102  Biso   1.000  H
  H430     1.0000 0.51812  0.54769  0.26859  Biso   1.000  H
  H431     1.0000 0.48709  0.63049  0.25750  Biso   1.000  H
  N233     1.0000 0.54891  0.61949  0.33218  Biso   1.000  N
  H432     1.0000 0.23103  0.72871  0.23079  Biso   1.000  H
  H433     1.0000 0.25739  0.75479  0.29420  Biso   1.000  H
  C411     1.0000 0.55182  0.69859  0.35000  Biso   1.000  C
  C412     1.0000 0.51958  0.73222  0.44720  Biso   1.000  C
  N234     1.0000 0.75582  0.58813  0.45622  Biso   1.000  N
  O114     1.0000 0.76861  0.45951  0.43889  Biso   1.000  O
  C413     1.0000 0.65370  0.73857  0.49430  Biso   1.000  C
  H434     1.0000 0.80861  0.67710  0.49779  Biso   1.000  H
  C414     1.0000 0.61927  0.58240  0.34572  Biso   1.000  C
  C415     1.0000 0.63091  0.70268  0.38662  Biso   1.000  C
  H435     1.0000 0.55400  0.73228  0.31560  Biso   1.000  H
  N235     1.0000 0.60042  0.71351  0.44667  Biso   1.000  N
  O115     1.0000 0.48127  0.75559  0.48956  Biso   1.000  O
  C416     1.0000 0.75012  0.61121  0.39489  Biso   1.000  C
  H436     1.0000 0.69552  0.77112  0.47789  Biso   1.000  H
  H437     1.0000 0.62248  0.76829  0.52229  Biso   1.000  H
  N236     1.0000 0.66903  0.63088  0.37592  Biso   1.000  N
  O116     1.0000 0.63612  0.51713  0.33095  Biso   1.000  O
  H438     1.0000 0.66521  0.74509  0.37410  Biso   1.000  H
  H439     1.0000 0.78521  0.65470  0.38879  Biso   1.000  H
  H440     1.0000 0.77000  0.57038  0.37021  Biso   1.000  H
  O117     1.0000 0.13612  0.98287  0.66905  Biso   1.000  O
  C417     1.0000 0.11927  0.91760  0.65428  Biso   1.000  C
  N237     1.0000 0.16903  0.86912  0.62408  Biso   1.000  N
  N238     1.0000 0.16897  0.86912  0.62408  Biso   1.000  N
  N239     1.0000 0.04891  0.88051  0.66782  Biso   1.000  N
  C418     1.0000 0.25012  0.88879  0.60511  Biso   1.000  C
  C419     1.0000 0.13091  0.79732  0.61338  Biso   1.000  C
  C420     1.0000 0.05182  0.80141  0.65000  Biso   1.000  C
  C421     1.0000 0.99388  0.90842  0.71248  Biso   1.000  C
  N240     1.0000 0.25582  0.91187  0.54378  Biso   1.000  N
  H441     1.0000 0.28521  0.84530  0.61121  Biso   1.000  H
  H442     1.0000 0.27000  0.92962  0.62979  Biso   1.000  H
  N241     1.0000 0.10042  0.78649  0.55333  Biso   1.000  N
  H443     1.0000 0.16521  0.75491  0.62590  Biso   1.000  H
  N242     1.0000 0.99042  0.77799  0.60900  Biso   1.000  N
  H444     1.0000 0.05400  0.76772  0.68440  Biso   1.000  H
  H445     1.0000 0.98709  0.86951  0.74250  Biso   1.000  H
  N243     1.0000 0.91497  0.92940  0.69010  Biso   1.000  N
  N244     1.0000 0.91503  0.92940  0.69010  Biso   1.000  N
  H446     1.0000 0.01812  0.95231  0.73141  Biso   1.000  H
  C422     1.0000 0.26661  0.98571  0.52720  Biso   1.000  C
  C423     1.0000 0.26552  0.85987  0.49469  Biso   1.000  C
  C424     1.0000 0.15370  0.76143  0.50570  Biso   1.000  C
  C425     1.0000 0.01958  0.76778  0.55280  Biso   1.000  C
  C426     1.0000 0.90782  0.76262  0.62510  Biso   1.000  C
  C427     1.0000 0.89158  0.00391  0.68718  Biso   1.000  C
  C428     1.0000 0.84739  0.87740  0.68108  Biso   1.000  C
  N245     1.0000 0.27600  0.98820  0.46741  Biso   1.000  N
  O118     1.0000 0.26861  0.04049  0.56111  Biso   1.000  O
  C429     1.0000 0.28679  0.91352  0.44220  Biso   1.000  C
  N246     1.0000 0.19182  0.82369  0.47471  Biso   1.000  N
  H447     1.0000 0.30861  0.82290  0.50221  Biso   1.000  H
  H448     1.0000 0.19552  0.72888  0.52211  Biso   1.000  H
  H449     1.0000 0.12248  0.73171  0.47771  Biso   1.000  H
  O119     1.0000 0.98127  0.74441  0.51044  Biso   1.000  O
  H450     1.0000 0.90752  0.73642  0.66282  Biso   1.000  H
  H451     1.0000 0.88473  0.72859  0.59591  Biso   1.000  H
  N247     1.0000 0.85642  0.82891  0.62970  Biso   1.000  N
  N248     1.0000 0.81279  0.00760  0.67056  Biso   1.000  N
  O120     1.0000 0.93521  0.05852  0.69895  Biso   1.000  O
  C430     1.0000 0.77709  0.93252  0.66269  Biso   1.000  C
  C431     1.0000 0.82727  0.83282  0.73720  Biso   1.000  C
  C432     1.0000 0.29982  0.05711  0.43690  Biso   1.000  C
  N249     1.0000 0.22970  0.89180  0.39710  Biso   1.000  N
  H452     1.0000 0.34279  0.90581  0.42898  Biso   1.000  H
  C433     1.0000 0.17503  0.83821  0.41651  Biso   1.000  C
  C434     1.0000 0.17497  0.83821  0.41651  Biso   1.000  C
  C435     1.0000 0.80873  0.85159  0.58309  Biso   1.000  C
  C436     1.0000 0.77103  0.07871  0.66282  Biso   1.000  C
  N250     1.0000 0.76309  0.91239  0.60087  Biso   1.000  N
  C437     1.0000 0.70109  0.92072  0.70041  Biso   1.000  C
  H453     1.0000 0.87079  0.79749  0.74569  Biso   1.000  H
  H454     1.0000 0.82291  0.86759  0.77032  Biso   1.000  H
  C438     1.0000 0.74812  0.78933  0.73061  Biso   1.000  C
  N251     1.0000 0.23691  0.08761  0.39913  Biso   1.000  N
  H455     1.0000 0.34739  0.04661  0.41311  Biso   1.000  H
  H456     1.0000 0.31448  0.09510  0.46599  Biso   1.000  H
  C439     1.0000 0.22903  0.92129  0.33718  Biso   1.000  C
  O121     1.0000 0.12303  0.80832  0.38675  Biso   1.000  O
  O122     1.0000 0.12297  0.80832  0.38675  Biso   1.000  O
  O123     1.0000 0.80558  0.82029  0.53485  Biso   1.000  O
  N252     1.0000 0.77030  0.10820  0.60290  Biso   1.000  N
  H457     1.0000 0.79600  0.11620  0.68829  Biso   1.000  H
  H458     1.0000 0.71527  0.07242  0.67569  Biso   1.000  H
  C440     1.0000 0.70018  0.94289  0.56310  Biso   1.000  C
  H459     1.0000 0.71048  0.93989  0.73998  Biso   1.000  H
  H460     1.0000 0.65618  0.94868  0.68338  Biso   1.000  H
  C441     1.0000 0.67958  0.83719  0.70341  Biso   1.000  C
  H461     1.0000 0.73103  0.77129  0.76921  Biso   1.000  H
  H462     1.0000 0.75739  0.74521  0.70580  Biso   1.000  H
  C442     1.0000 0.22291  0.06748  0.33731  Biso   1.000  C
  C443     1.0000 0.19127  0.14841  0.41691  Biso   1.000  C
  N253     1.0000 0.18721  0.99240  0.32944  Biso   1.000  N
  H463     1.0000 0.20400  0.88380  0.31171  Biso   1.000  H
  H464     1.0000 0.28473  0.92758  0.32431  Biso   1.000  H
  C444     1.0000 0.82503  0.16179  0.58349  Biso   1.000  C
  C445     1.0000 0.82497  0.16179  0.58349  Biso   1.000  C
  C446     1.0000 0.71321  0.08648  0.55780  Biso   1.000  C
  N254     1.0000 0.72400  0.01180  0.53259  Biso   1.000  N
  H465     1.0000 0.65261  0.95339  0.58689  Biso   1.000  H
  H466     1.0000 0.68552  0.90490  0.53401  Biso   1.000  H
  H467     1.0000 0.66812  0.81887  0.66379  Biso   1.000  H
  H468     1.0000 0.63079  0.83112  0.72689  Biso   1.000  H
  C447     1.0000 0.15261  0.12260  0.31892  Biso   1.000  C
  C448     1.0000 0.29891  0.07928  0.29959  Biso   1.000  C
  N255     1.0000 0.14358  0.17109  0.37030  Biso   1.000  N
  O124     1.0000 0.19442  0.17971  0.46515  Biso   1.000  O
  C449     1.0000 0.10842  0.99609  0.31282  Biso   1.000  C
  N256     1.0000 0.80818  0.17631  0.52529  Biso   1.000  N
  O125     1.0000 0.87703  0.19168  0.61325  Biso   1.000  O
  O126     1.0000 0.87697  0.19168  0.61325  Biso   1.000  O
  C450     1.0000 0.73448  0.14013  0.50531  Biso   1.000  C
  H469     1.0000 0.65721  0.09419  0.57102  Biso   1.000  H
  C451     1.0000 0.73339  0.01429  0.47280  Biso   1.000  C
  C452     1.0000 0.17273  0.16718  0.26280  Biso   1.000  C
  N257     1.0000 0.08503  0.07060  0.30990  Biso   1.000  N
  N258     1.0000 0.08497  0.07060  0.30990  Biso   1.000  N
  C453     1.0000 0.32042  0.16281  0.29659  Biso   1.000  C
  H470     1.0000 0.28952  0.06011  0.26002  Biso   1.000  H
  H471     1.0000 0.34382  0.05132  0.31662  Biso   1.000  H
  C454     1.0000 0.09218  0.23738  0.37490  Biso   1.000  C
  O127     1.0000 0.06479  0.94148  0.30105  Biso   1.000  O
  C455     1.0000 0.84630  0.23857  0.49430  Biso   1.000  C
  N259     1.0000 0.74418  0.08813  0.45622  Biso   1.000  N
  H472     1.0000 0.69139  0.17710  0.49779  Biso   1.000  H
  O128     1.0000 0.73139  0.95951  0.43889  Biso   1.000  O
  C456     1.0000 0.25188  0.21067  0.26939  Biso   1.000  C
  H473     1.0000 0.12921  0.20251  0.25431  Biso   1.000  H
  H474     1.0000 0.17709  0.13241  0.22968  Biso   1.000  H
  C457     1.0000 0.00612  0.09158  0.28752  Biso   1.000  C
  H475     1.0000 0.33188  0.18113  0.33621  Biso   1.000  H
  H476     1.0000 0.36921  0.16888  0.27311  Biso   1.000  H
  H477     1.0000 0.09248  0.26358  0.33718  Biso   1.000  H
  H478     1.0000 0.11527  0.27141  0.40409  Biso   1.000  H
  N260     1.0000 0.00958  0.22201  0.39100  Biso   1.000  N
  N261     1.0000 0.89958  0.21351  0.44667  Biso   1.000  N
  H479     1.0000 0.80448  0.27112  0.47789  Biso   1.000  H
  H480     1.0000 0.87752  0.26829  0.52229  Biso   1.000  H
  C458     1.0000 0.74988  0.11121  0.39489  Biso   1.000  C
  H481     1.0000 0.26903  0.22871  0.23079  Biso   1.000  H
  H482     1.0000 0.24261  0.25479  0.29420  Biso   1.000  H
  H483     1.0000 0.01291  0.13049  0.25750  Biso   1.000  H
  H484     1.0000 0.98188  0.04769  0.26859  Biso   1.000  H
  N262     1.0000 0.95109  0.11949  0.33218  Biso   1.000  N
  C459     1.0000 0.98042  0.23222  0.44720  Biso   1.000  C
  C460     1.0000 0.94818  0.19859  0.35000  Biso   1.000  C
  C461     1.0000 0.86909  0.20268  0.38662  Biso   1.000  C
  N263     1.0000 0.83097  0.13088  0.37592  Biso   1.000  N
  N264     1.0000 0.83103  0.13088  0.37592  Biso   1.000  N
  H485     1.0000 0.71479  0.15470  0.38879  Biso   1.000  H
  H486     1.0000 0.73000  0.07038  0.37021  Biso   1.000  H
  C462     1.0000 0.88073  0.08240  0.34572  Biso   1.000  C
  O129     1.0000 0.01873  0.25559  0.48956  Biso   1.000  O
  H487     1.0000 0.94600  0.23228  0.31560  Biso   1.000  H
  H488     1.0000 0.83479  0.24509  0.37410  Biso   1.000  H
  O130     1.0000 0.86388  0.01713  0.33095  Biso   1.000  O
  O131     1.0000 0.13612  0.98287  0.66905  Biso   1.000  O
  C463     1.0000 0.11927  0.91760  0.65428  Biso   1.000  C
  N265     1.0000 0.16903  0.86912  0.62408  Biso   1.000  N
  N266     1.0000 0.16897  0.86912  0.62408  Biso   1.000  N
  N267     1.0000 0.04891  0.88051  0.66782  Biso   1.000  N
  C464     1.0000 0.25012  0.88879  0.60511  Biso   1.000  C
  C465     1.0000 0.13091  0.79732  0.61338  Biso   1.000  C
  C466     1.0000 0.05182  0.80141  0.65000  Biso   1.000  C
  C467     1.0000 0.99388  0.90842  0.71248  Biso   1.000  C
  N268     1.0000 0.25582  0.91187  0.54378  Biso   1.000  N
  H489     1.0000 0.28521  0.84530  0.61121  Biso   1.000  H
  H490     1.0000 0.27000  0.92962  0.62979  Biso   1.000  H
  N269     1.0000 0.10042  0.78649  0.55333  Biso   1.000  N
  H491     1.0000 0.16521  0.75491  0.62590  Biso   1.000  H
  N270     1.0000 0.99042  0.77799  0.60900  Biso   1.000  N
  H492     1.0000 0.05400  0.76772  0.68440  Biso   1.000  H
  H493     1.0000 0.98709  0.86951  0.74250  Biso   1.000  H
  N271     1.0000 0.91497  0.92940  0.69010  Biso   1.000  N
  N272     1.0000 0.91503  0.92940  0.69010  Biso   1.000  N
  H494     1.0000 0.01812  0.95231  0.73141  Biso   1.000  H
  C468     1.0000 0.26661  0.98571  0.52720  Biso   1.000  C
  C469     1.0000 0.26552  0.85987  0.49469  Biso   1.000  C
  C470     1.0000 0.15370  0.76143  0.50570  Biso   1.000  C
  C471     1.0000 0.01958  0.76778  0.55280  Biso   1.000  C
  C472     1.0000 0.90782  0.76262  0.62510  Biso   1.000  C
  C473     1.0000 0.89158  0.00391  0.68718  Biso   1.000  C
  C474     1.0000 0.84739  0.87740  0.68108  Biso   1.000  C
  N273     1.0000 0.27600  0.98820  0.46741  Biso   1.000  N
  O132     1.0000 0.26861  0.04049  0.56111  Biso   1.000  O
  C475     1.0000 0.28679  0.91352  0.44220  Biso   1.000  C
  N274     1.0000 0.19182  0.82369  0.47471  Biso   1.000  N
  H495     1.0000 0.30861  0.82290  0.50221  Biso   1.000  H
  H496     1.0000 0.19552  0.72888  0.52211  Biso   1.000  H
  H497     1.0000 0.12248  0.73171  0.47771  Biso   1.000  H
  O133     1.0000 0.98127  0.74441  0.51044  Biso   1.000  O
  H498     1.0000 0.90752  0.73642  0.66282  Biso   1.000  H
  H499     1.0000 0.88473  0.72859  0.59591  Biso   1.000  H
  N275     1.0000 0.85642  0.82891  0.62970  Biso   1.000  N
  N276     1.0000 0.81279  0.00760  0.67056  Biso   1.000  N
  O134     1.0000 0.93521  0.05852  0.69895  Biso   1.000  O
  C476     1.0000 0.77709  0.93252  0.66269  Biso   1.000  C
  C477     1.0000 0.82727  0.83282  0.73720  Biso   1.000  C
  C478     1.0000 0.29982  0.05711  0.43690  Biso   1.000  C
  N277     1.0000 0.22970  0.89180  0.39710  Biso   1.000  N
  H500     1.0000 0.34279  0.90581  0.42898  Biso   1.000  H
  C479     1.0000 0.17503  0.83821  0.41651  Biso   1.000  C
  C480     1.0000 0.17497  0.83821  0.41651  Biso   1.000  C
  C481     1.0000 0.80873  0.85159  0.58309  Biso   1.000  C
  C482     1.0000 0.77103  0.07871  0.66282  Biso   1.000  C
  N278     1.0000 0.76309  0.91239  0.60087  Biso   1.000  N
  C483     1.0000 0.70109  0.92072  0.70041  Biso   1.000  C
  H501     1.0000 0.87079  0.79749  0.74569  Biso   1.000  H
  H502     1.0000 0.82291  0.86759  0.77032  Biso   1.000  H
  C484     1.0000 0.74812  0.78933  0.73061  Biso   1.000  C
  N279     1.0000 0.23691  0.08761  0.39913  Biso   1.000  N
  H503     1.0000 0.34739  0.04661  0.41311  Biso   1.000  H
  H504     1.0000 0.31448  0.09510  0.46599  Biso   1.000  H
  C485     1.0000 0.22903  0.92129  0.33718  Biso   1.000  C
  O135     1.0000 0.12303  0.80832  0.38675  Biso   1.000  O
  O136     1.0000 0.12297  0.80832  0.38675  Biso   1.000  O
  O137     1.0000 0.80558  0.82029  0.53485  Biso   1.000  O
  N280     1.0000 0.77030  0.10820  0.60290  Biso   1.000  N
  H505     1.0000 0.79600  0.11620  0.68829  Biso   1.000  H
  H506     1.0000 0.71527  0.07242  0.67569  Biso   1.000  H
  C486     1.0000 0.70018  0.94289  0.56310  Biso   1.000  C
  H507     1.0000 0.71048  0.93989  0.73998  Biso   1.000  H
  H508     1.0000 0.65618  0.94868  0.68338  Biso   1.000  H
  C487     1.0000 0.67958  0.83719  0.70341  Biso   1.000  C
  H509     1.0000 0.73103  0.77129  0.76921  Biso   1.000  H
  H510     1.0000 0.75739  0.74521  0.70580  Biso   1.000  H
  C488     1.0000 0.22291  0.06748  0.33731  Biso   1.000  C
  C489     1.0000 0.19127  0.14841  0.41691  Biso   1.000  C
  N281     1.0000 0.18721  0.99240  0.32944  Biso   1.000  N
  H511     1.0000 0.20400  0.88380  0.31171  Biso   1.000  H
  H512     1.0000 0.28473  0.92758  0.32431  Biso   1.000  H
  C490     1.0000 0.82503  0.16179  0.58349  Biso   1.000  C
  C491     1.0000 0.82497  0.16179  0.58349  Biso   1.000  C
  C492     1.0000 0.71321  0.08648  0.55780  Biso   1.000  C
  N282     1.0000 0.72400  0.01180  0.53259  Biso   1.000  N
  H513     1.0000 0.65261  0.95339  0.58689  Biso   1.000  H
  H514     1.0000 0.68552  0.90490  0.53401  Biso   1.000  H
  H515     1.0000 0.66812  0.81887  0.66379  Biso   1.000  H
  H516     1.0000 0.63079  0.83112  0.72689  Biso   1.000  H
  C493     1.0000 0.15261  0.12260  0.31892  Biso   1.000  C
  C494     1.0000 0.29891  0.07928  0.29959  Biso   1.000  C
  N283     1.0000 0.14358  0.17109  0.37030  Biso   1.000  N
  O138     1.0000 0.19442  0.17971  0.46515  Biso   1.000  O
  C495     1.0000 0.10842  0.99609  0.31282  Biso   1.000  C
  N284     1.0000 0.80818  0.17631  0.52529  Biso   1.000  N
  O139     1.0000 0.87703  0.19168  0.61325  Biso   1.000  O
  O140     1.0000 0.87697  0.19168  0.61325  Biso   1.000  O
  C496     1.0000 0.73448  0.14013  0.50531  Biso   1.000  C
  H517     1.0000 0.65721  0.09419  0.57102  Biso   1.000  H
  C497     1.0000 0.73339  0.01429  0.47280  Biso   1.000  C
  C498     1.0000 0.17273  0.16718  0.26280  Biso   1.000  C
  N285     1.0000 0.08503  0.07060  0.30990  Biso   1.000  N
  N286     1.0000 0.08497  0.07060  0.30990  Biso   1.000  N
  C499     1.0000 0.32042  0.16281  0.29659  Biso   1.000  C
  H518     1.0000 0.28952  0.06011  0.26002  Biso   1.000  H
  H519     1.0000 0.34382  0.05132  0.31662  Biso   1.000  H
  C500     1.0000 0.09218  0.23738  0.37490  Biso   1.000  C
  O141     1.0000 0.06479  0.94148  0.30105  Biso   1.000  O
  C501     1.0000 0.84630  0.23857  0.49430  Biso   1.000  C
  N287     1.0000 0.74418  0.08813  0.45622  Biso   1.000  N
  H520     1.0000 0.69139  0.17710  0.49779  Biso   1.000  H
  O142     1.0000 0.73139  0.95951  0.43889  Biso   1.000  O
  C502     1.0000 0.25188  0.21067  0.26939  Biso   1.000  C
  H521     1.0000 0.12921  0.20251  0.25431  Biso   1.000  H
  H522     1.0000 0.17709  0.13241  0.22968  Biso   1.000  H
  C503     1.0000 0.00612  0.09158  0.28752  Biso   1.000  C
  H523     1.0000 0.33188  0.18113  0.33621  Biso   1.000  H
  H524     1.0000 0.36921  0.16888  0.27311  Biso   1.000  H
  H525     1.0000 0.09248  0.26358  0.33718  Biso   1.000  H
  H526     1.0000 0.11527  0.27141  0.40409  Biso   1.000  H
  N288     1.0000 0.00958  0.22201  0.39100  Biso   1.000  N
  N289     1.0000 0.89958  0.21351  0.44667  Biso   1.000  N
  H527     1.0000 0.80448  0.27112  0.47789  Biso   1.000  H
  H528     1.0000 0.87752  0.26829  0.52229  Biso   1.000  H
  C504     1.0000 0.74988  0.11121  0.39489  Biso   1.000  C
  H529     1.0000 0.26903  0.22871  0.23079  Biso   1.000  H
  H530     1.0000 0.24261  0.25479  0.29420  Biso   1.000  H
  H531     1.0000 0.01291  0.13049  0.25750  Biso   1.000  H
  H532     1.0000 0.98188  0.04769  0.26859  Biso   1.000  H
  N290     1.0000 0.95109  0.11949  0.33218  Biso   1.000  N
  C505     1.0000 0.98042  0.23222  0.44720  Biso   1.000  C
  C506     1.0000 0.94818  0.19859  0.35000  Biso   1.000  C
  C507     1.0000 0.86909  0.20268  0.38662  Biso   1.000  C
  N291     1.0000 0.83097  0.13088  0.37592  Biso   1.000  N
  N292     1.0000 0.83103  0.13088  0.37592  Biso   1.000  N
  H533     1.0000 0.71479  0.15470  0.38879  Biso   1.000  H
  H534     1.0000 0.73000  0.07038  0.37021  Biso   1.000  H
  C508     1.0000 0.88073  0.08240  0.34572  Biso   1.000  C
  O143     1.0000 0.01873  0.25559  0.48956  Biso   1.000  O
  H535     1.0000 0.94600  0.23228  0.31560  Biso   1.000  H
  H536     1.0000 0.83479  0.24509  0.37410  Biso   1.000  H
  O144     1.0000 0.86388  0.01713  0.33095  Biso   1.000  O
  O145     1.0000 0.13612  0.98287  0.66905  Biso   1.000  O
  C509     1.0000 0.11927  0.91760  0.65428  Biso   1.000  C
  N293     1.0000 0.16903  0.86912  0.62408  Biso   1.000  N
  N294     1.0000 0.16897  0.86912  0.62408  Biso   1.000  N
  N295     1.0000 0.04891  0.88051  0.66782  Biso   1.000  N
  C510     1.0000 0.25012  0.88879  0.60511  Biso   1.000  C
  C511     1.0000 0.13091  0.79732  0.61338  Biso   1.000  C
  C512     1.0000 0.05182  0.80141  0.65000  Biso   1.000  C
  C513     1.0000 0.99388  0.90842  0.71248  Biso   1.000  C
  N296     1.0000 0.25582  0.91187  0.54378  Biso   1.000  N
  H537     1.0000 0.28521  0.84530  0.61121  Biso   1.000  H
  H538     1.0000 0.27000  0.92962  0.62979  Biso   1.000  H
  N297     1.0000 0.10042  0.78649  0.55333  Biso   1.000  N
  H539     1.0000 0.16521  0.75491  0.62590  Biso   1.000  H
  N298     1.0000 0.99042  0.77799  0.60900  Biso   1.000  N
  H540     1.0000 0.05400  0.76772  0.68440  Biso   1.000  H
  H541     1.0000 0.98709  0.86951  0.74250  Biso   1.000  H
  N299     1.0000 0.91497  0.92940  0.69010  Biso   1.000  N
  N300     1.0000 0.91503  0.92940  0.69010  Biso   1.000  N
  H542     1.0000 0.01812  0.95231  0.73141  Biso   1.000  H
  C514     1.0000 0.26661  0.98571  0.52720  Biso   1.000  C
  C515     1.0000 0.26552  0.85987  0.49469  Biso   1.000  C
  C516     1.0000 0.15370  0.76143  0.50570  Biso   1.000  C
  C517     1.0000 0.01958  0.76778  0.55280  Biso   1.000  C
  C518     1.0000 0.90782  0.76262  0.62510  Biso   1.000  C
  C519     1.0000 0.89158  0.00391  0.68718  Biso   1.000  C
  C520     1.0000 0.84739  0.87740  0.68108  Biso   1.000  C
  N301     1.0000 0.27600  0.98820  0.46741  Biso   1.000  N
  O146     1.0000 0.26861  0.04049  0.56111  Biso   1.000  O
  C521     1.0000 0.28679  0.91352  0.44220  Biso   1.000  C
  N302     1.0000 0.19182  0.82369  0.47471  Biso   1.000  N
  H543     1.0000 0.30861  0.82290  0.50221  Biso   1.000  H
  H544     1.0000 0.19552  0.72888  0.52211  Biso   1.000  H
  H545     1.0000 0.12248  0.73171  0.47771  Biso   1.000  H
  O147     1.0000 0.98127  0.74441  0.51044  Biso   1.000  O
  H546     1.0000 0.90752  0.73642  0.66282  Biso   1.000  H
  H547     1.0000 0.88473  0.72859  0.59591  Biso   1.000  H
  N303     1.0000 0.85642  0.82891  0.62970  Biso   1.000  N
  N304     1.0000 0.81279  0.00760  0.67056  Biso   1.000  N
  O148     1.0000 0.93521  0.05852  0.69895  Biso   1.000  O
  C522     1.0000 0.77709  0.93252  0.66269  Biso   1.000  C
  C523     1.0000 0.82727  0.83282  0.73720  Biso   1.000  C
  C524     1.0000 0.29982  0.05711  0.43690  Biso   1.000  C
  N305     1.0000 0.22970  0.89180  0.39710  Biso   1.000  N
  H548     1.0000 0.34279  0.90581  0.42898  Biso   1.000  H
  C525     1.0000 0.17503  0.83821  0.41651  Biso   1.000  C
  C526     1.0000 0.17497  0.83821  0.41651  Biso   1.000  C
  C527     1.0000 0.80873  0.85159  0.58309  Biso   1.000  C
  C528     1.0000 0.77103  0.07871  0.66282  Biso   1.000  C
  N306     1.0000 0.76309  0.91239  0.60087  Biso   1.000  N
  C529     1.0000 0.70109  0.92072  0.70041  Biso   1.000  C
  H549     1.0000 0.87079  0.79749  0.74569  Biso   1.000  H
  H550     1.0000 0.82291  0.86759  0.77032  Biso   1.000  H
  C530     1.0000 0.74812  0.78933  0.73061  Biso   1.000  C
  N307     1.0000 0.23691  0.08761  0.39913  Biso   1.000  N
  H551     1.0000 0.34739  0.04661  0.41311  Biso   1.000  H
  H552     1.0000 0.31448  0.09510  0.46599  Biso   1.000  H
  C531     1.0000 0.22903  0.92129  0.33718  Biso   1.000  C
  O149     1.0000 0.12303  0.80832  0.38675  Biso   1.000  O
  O150     1.0000 0.12297  0.80832  0.38675  Biso   1.000  O
  O151     1.0000 0.80558  0.82029  0.53485  Biso   1.000  O
  N308     1.0000 0.77030  0.10820  0.60290  Biso   1.000  N
  H553     1.0000 0.79600  0.11620  0.68829  Biso   1.000  H
  H554     1.0000 0.71527  0.07242  0.67569  Biso   1.000  H
  C532     1.0000 0.70018  0.94289  0.56310  Biso   1.000  C
  H555     1.0000 0.71048  0.93989  0.73998  Biso   1.000  H
  H556     1.0000 0.65618  0.94868  0.68338  Biso   1.000  H
  C533     1.0000 0.67958  0.83719  0.70341  Biso   1.000  C
  H557     1.0000 0.73103  0.77129  0.76921  Biso   1.000  H
  H558     1.0000 0.75739  0.74521  0.70580  Biso   1.000  H
  C534     1.0000 0.22291  0.06748  0.33731  Biso   1.000  C
  C535     1.0000 0.19127  0.14841  0.41691  Biso   1.000  C
  N309     1.0000 0.18721  0.99240  0.32944  Biso   1.000  N
  H559     1.0000 0.20400  0.88380  0.31171  Biso   1.000  H
  H560     1.0000 0.28473  0.92758  0.32431  Biso   1.000  H
  C536     1.0000 0.82503  0.16179  0.58349  Biso   1.000  C
  C537     1.0000 0.82497  0.16179  0.58349  Biso   1.000  C
  C538     1.0000 0.71321  0.08648  0.55780  Biso   1.000  C
  N310     1.0000 0.72400  0.01180  0.53259  Biso   1.000  N
  H561     1.0000 0.65261  0.95339  0.58689  Biso   1.000  H
  H562     1.0000 0.68552  0.90490  0.53401  Biso   1.000  H
  H563     1.0000 0.66812  0.81887  0.66379  Biso   1.000  H
  H564     1.0000 0.63079  0.83112  0.72689  Biso   1.000  H
  C539     1.0000 0.15261  0.12260  0.31892  Biso   1.000  C
  C540     1.0000 0.29891  0.07928  0.29959  Biso   1.000  C
  N311     1.0000 0.14358  0.17109  0.37030  Biso   1.000  N
  O152     1.0000 0.19442  0.17971  0.46515  Biso   1.000  O
  C541     1.0000 0.10842  0.99609  0.31282  Biso   1.000  C
  N312     1.0000 0.80818  0.17631  0.52529  Biso   1.000  N
  O153     1.0000 0.87703  0.19168  0.61325  Biso   1.000  O
  O154     1.0000 0.87697  0.19168  0.61325  Biso   1.000  O
  C542     1.0000 0.73448  0.14013  0.50531  Biso   1.000  C
  H565     1.0000 0.65721  0.09419  0.57102  Biso   1.000  H
  C543     1.0000 0.73339  0.01429  0.47280  Biso   1.000  C
  C544     1.0000 0.17273  0.16718  0.26280  Biso   1.000  C
  N313     1.0000 0.08503  0.07060  0.30990  Biso   1.000  N
  N314     1.0000 0.08497  0.07060  0.30990  Biso   1.000  N
  C545     1.0000 0.32042  0.16281  0.29659  Biso   1.000  C
  H566     1.0000 0.28952  0.06011  0.26002  Biso   1.000  H
  H567     1.0000 0.34382  0.05132  0.31662  Biso   1.000  H
  C546     1.0000 0.09218  0.23738  0.37490  Biso   1.000  C
  O155     1.0000 0.06479  0.94148  0.30105  Biso   1.000  O
  C547     1.0000 0.84630  0.23857  0.49430  Biso   1.000  C
  N315     1.0000 0.74418  0.08813  0.45622  Biso   1.000  N
  H568     1.0000 0.69139  0.17710  0.49779  Biso   1.000  H
  O156     1.0000 0.73139  0.95951  0.43889  Biso   1.000  O
  C548     1.0000 0.25188  0.21067  0.26939  Biso   1.000  C
  H569     1.0000 0.12921  0.20251  0.25431  Biso   1.000  H
  H570     1.0000 0.17709  0.13241  0.22968  Biso   1.000  H
  C549     1.0000 0.00612  0.09158  0.28752  Biso   1.000  C
  H571     1.0000 0.33188  0.18113  0.33621  Biso   1.000  H
  H572     1.0000 0.36921  0.16888  0.27311  Biso   1.000  H
  H573     1.0000 0.09248  0.26358  0.33718  Biso   1.000  H
  H574     1.0000 0.11527  0.27141  0.40409  Biso   1.000  H
  N316     1.0000 0.00958  0.22201  0.39100  Biso   1.000  N
  N317     1.0000 0.89958  0.21351  0.44667  Biso   1.000  N
  H575     1.0000 0.80448  0.27112  0.47789  Biso   1.000  H
  H576     1.0000 0.87752  0.26829  0.52229  Biso   1.000  H
  C550     1.0000 0.74988  0.11121  0.39489  Biso   1.000  C
  H577     1.0000 0.26903  0.22871  0.23079  Biso   1.000  H
  H578     1.0000 0.24261  0.25479  0.29420  Biso   1.000  H
  H579     1.0000 0.01291  0.13049  0.25750  Biso   1.000  H
  H580     1.0000 0.98188  0.04769  0.26859  Biso   1.000  H
  N318     1.0000 0.95109  0.11949  0.33218  Biso   1.000  N
  C551     1.0000 0.98042  0.23222  0.44720  Biso   1.000  C
  C552     1.0000 0.94818  0.19859  0.35000  Biso   1.000  C
  C553     1.0000 0.86909  0.20268  0.38662  Biso   1.000  C
  N319     1.0000 0.83097  0.13088  0.37592  Biso   1.000  N
  N320     1.0000 0.83103  0.13088  0.37592  Biso   1.000  N
  H581     1.0000 0.71479  0.15470  0.38879  Biso   1.000  H
  H582     1.0000 0.73000  0.07038  0.37021  Biso   1.000  H
  C554     1.0000 0.88073  0.08240  0.34572  Biso   1.000  C
  O157     1.0000 0.01873  0.25559  0.48956  Biso   1.000  O
  H583     1.0000 0.94600  0.23228  0.31560  Biso   1.000  H
  H584     1.0000 0.83479  0.24509  0.37410  Biso   1.000  H
  O158     1.0000 0.86388  0.01713  0.33095  Biso   1.000  O
  O159     1.0000 0.13612  0.98287  0.66905  Biso   1.000  O
  C555     1.0000 0.11927  0.91760  0.65428  Biso   1.000  C
  N321     1.0000 0.16903  0.86912  0.62408  Biso   1.000  N
  N322     1.0000 0.16897  0.86912  0.62408  Biso   1.000  N
  N323     1.0000 0.04891  0.88051  0.66782  Biso   1.000  N
  C556     1.0000 0.25012  0.88879  0.60511  Biso   1.000  C
  C557     1.0000 0.13091  0.79732  0.61338  Biso   1.000  C
  C558     1.0000 0.05182  0.80141  0.65000  Biso   1.000  C
  C559     1.0000 0.99388  0.90842  0.71248  Biso   1.000  C
  N324     1.0000 0.25582  0.91187  0.54378  Biso   1.000  N
  H585     1.0000 0.28521  0.84530  0.61121  Biso   1.000  H
  H586     1.0000 0.27000  0.92962  0.62979  Biso   1.000  H
  N325     1.0000 0.10042  0.78649  0.55333  Biso   1.000  N
  H587     1.0000 0.16521  0.75491  0.62590  Biso   1.000  H
  N326     1.0000 0.99042  0.77799  0.60900  Biso   1.000  N
  H588     1.0000 0.05400  0.76772  0.68440  Biso   1.000  H
  H589     1.0000 0.98709  0.86951  0.74250  Biso   1.000  H
  N327     1.0000 0.91497  0.92940  0.69010  Biso   1.000  N
  N328     1.0000 0.91503  0.92940  0.69010  Biso   1.000  N
  H590     1.0000 0.01812  0.95231  0.73141  Biso   1.000  H
  C560     1.0000 0.26661  0.98571  0.52720  Biso   1.000  C
  C561     1.0000 0.26552  0.85987  0.49469  Biso   1.000  C
  C562     1.0000 0.15370  0.76143  0.50570  Biso   1.000  C
  C563     1.0000 0.01958  0.76778  0.55280  Biso   1.000  C
  C564     1.0000 0.90782  0.76262  0.62510  Biso   1.000  C
  C565     1.0000 0.89158  0.00391  0.68718  Biso   1.000  C
  C566     1.0000 0.84739  0.87740  0.68108  Biso   1.000  C
  N329     1.0000 0.27600  0.98820  0.46741  Biso   1.000  N
  O160     1.0000 0.26861  0.04049  0.56111  Biso   1.000  O
  C567     1.0000 0.28679  0.91352  0.44220  Biso   1.000  C
  N330     1.0000 0.19182  0.82369  0.47471  Biso   1.000  N
  H591     1.0000 0.30861  0.82290  0.50221  Biso   1.000  H
  H592     1.0000 0.19552  0.72888  0.52211  Biso   1.000  H
  H593     1.0000 0.12248  0.73171  0.47771  Biso   1.000  H
  O161     1.0000 0.98127  0.74441  0.51044  Biso   1.000  O
  H594     1.0000 0.90752  0.73642  0.66282  Biso   1.000  H
  H595     1.0000 0.88473  0.72859  0.59591  Biso   1.000  H
  N331     1.0000 0.85642  0.82891  0.62970  Biso   1.000  N
  N332     1.0000 0.81279  0.00760  0.67056  Biso   1.000  N
  O162     1.0000 0.93521  0.05852  0.69895  Biso   1.000  O
  C568     1.0000 0.77709  0.93252  0.66269  Biso   1.000  C
  C569     1.0000 0.82727  0.83282  0.73720  Biso   1.000  C
  C570     1.0000 0.29982  0.05711  0.43690  Biso   1.000  C
  N333     1.0000 0.22970  0.89180  0.39710  Biso   1.000  N
  H596     1.0000 0.34279  0.90581  0.42898  Biso   1.000  H
  C571     1.0000 0.17503  0.83821  0.41651  Biso   1.000  C
  C572     1.0000 0.17497  0.83821  0.41651  Biso   1.000  C
  C573     1.0000 0.80873  0.85159  0.58309  Biso   1.000  C
  C574     1.0000 0.77103  0.07871  0.66282  Biso   1.000  C
  N334     1.0000 0.76309  0.91239  0.60087  Biso   1.000  N
  C575     1.0000 0.70109  0.92072  0.70041  Biso   1.000  C
  H597     1.0000 0.87079  0.79749  0.74569  Biso   1.000  H
  H598     1.0000 0.82291  0.86759  0.77032  Biso   1.000  H
  C576     1.0000 0.74812  0.78933  0.73061  Biso   1.000  C
  N335     1.0000 0.23691  0.08761  0.39913  Biso   1.000  N
  H599     1.0000 0.34739  0.04661  0.41311  Biso   1.000  H
  H600     1.0000 0.31448  0.09510  0.46599  Biso   1.000  H
  C577     1.0000 0.22903  0.92129  0.33718  Biso   1.000  C
  O163     1.0000 0.12303  0.80832  0.38675  Biso   1.000  O
  O164     1.0000 0.12297  0.80832  0.38675  Biso   1.000  O
  O165     1.0000 0.80558  0.82029  0.53485  Biso   1.000  O
  N336     1.0000 0.77030  0.10820  0.60290  Biso   1.000  N
  H601     1.0000 0.79600  0.11620  0.68829  Biso   1.000  H
  H602     1.0000 0.71527  0.07242  0.67569  Biso   1.000  H
  C578     1.0000 0.70018  0.94289  0.56310  Biso   1.000  C
  H603     1.0000 0.71048  0.93989  0.73998  Biso   1.000  H
  H604     1.0000 0.65618  0.94868  0.68338  Biso   1.000  H
  C579     1.0000 0.67958  0.83719  0.70341  Biso   1.000  C
  H605     1.0000 0.73103  0.77129  0.76921  Biso   1.000  H
  H606     1.0000 0.75739  0.74521  0.70580  Biso   1.000  H
  C580     1.0000 0.22291  0.06748  0.33731  Biso   1.000  C
  C581     1.0000 0.19127  0.14841  0.41691  Biso   1.000  C
  N337     1.0000 0.18721  0.99240  0.32944  Biso   1.000  N
  H607     1.0000 0.20400  0.88380  0.31171  Biso   1.000  H
  H608     1.0000 0.28473  0.92758  0.32431  Biso   1.000  H
  C582     1.0000 0.82503  0.16179  0.58349  Biso   1.000  C
  C583     1.0000 0.82497  0.16179  0.58349  Biso   1.000  C
  C584     1.0000 0.71321  0.08648  0.55780  Biso   1.000  C
  N338     1.0000 0.72400  0.01180  0.53259  Biso   1.000  N
  H609     1.0000 0.65261  0.95339  0.58689  Biso   1.000  H
  H610     1.0000 0.68552  0.90490  0.53401  Biso   1.000  H
  H611     1.0000 0.66812  0.81887  0.66379  Biso   1.000  H
  H612     1.0000 0.63079  0.83112  0.72689  Biso   1.000  H
  C585     1.0000 0.15261  0.12260  0.31892  Biso   1.000  C
  C586     1.0000 0.29891  0.07928  0.29959  Biso   1.000  C
  N339     1.0000 0.14358  0.17109  0.37030  Biso   1.000  N
  O166     1.0000 0.19442  0.17971  0.46515  Biso   1.000  O
  C587     1.0000 0.10842  0.99609  0.31282  Biso   1.000  C
  N340     1.0000 0.80818  0.17631  0.52529  Biso   1.000  N
  O167     1.0000 0.87703  0.19168  0.61325  Biso   1.000  O
  O168     1.0000 0.87697  0.19168  0.61325  Biso   1.000  O
  C588     1.0000 0.73448  0.14013  0.50531  Biso   1.000  C
  H613     1.0000 0.65721  0.09419  0.57102  Biso   1.000  H
  C589     1.0000 0.73339  0.01429  0.47280  Biso   1.000  C
  C590     1.0000 0.17273  0.16718  0.26280  Biso   1.000  C
  N341     1.0000 0.08503  0.07060  0.30990  Biso   1.000  N
  N342     1.0000 0.08497  0.07060  0.30990  Biso   1.000  N
  C591     1.0000 0.32042  0.16281  0.29659  Biso   1.000  C
  H614     1.0000 0.28952  0.06011  0.26002  Biso   1.000  H
  H615     1.0000 0.34382  0.05132  0.31662  Biso   1.000  H
  C592     1.0000 0.09218  0.23738  0.37490  Biso   1.000  C
  O169     1.0000 0.06479  0.94148  0.30105  Biso   1.000  O
  C593     1.0000 0.84630  0.23857  0.49430  Biso   1.000  C
  N343     1.0000 0.74418  0.08813  0.45622  Biso   1.000  N
  H616     1.0000 0.69139  0.17710  0.49779  Biso   1.000  H
  O170     1.0000 0.73139  0.95951  0.43889  Biso   1.000  O
  C594     1.0000 0.25188  0.21067  0.26939  Biso   1.000  C
  H617     1.0000 0.12921  0.20251  0.25431  Biso   1.000  H
  H618     1.0000 0.17709  0.13241  0.22968  Biso   1.000  H
  C595     1.0000 0.00612  0.09158  0.28752  Biso   1.000  C
  H619     1.0000 0.33188  0.18113  0.33621  Biso   1.000  H
  H620     1.0000 0.36921  0.16888  0.27311  Biso   1.000  H
  H621     1.0000 0.09248  0.26358  0.33718  Biso   1.000  H
  H622     1.0000 0.11527  0.27141  0.40409  Biso   1.000  H
  N344     1.0000 0.00958  0.22201  0.39100  Biso   1.000  N
  N345     1.0000 0.89958  0.21351  0.44667  Biso   1.000  N
  H623     1.0000 0.80448  0.27112  0.47789  Biso   1.000  H
  H624     1.0000 0.87752  0.26829  0.52229  Biso   1.000  H
  C596     1.0000 0.74988  0.11121  0.39489  Biso   1.000  C
  H625     1.0000 0.26903  0.22871  0.23079  Biso   1.000  H
  H626     1.0000 0.24261  0.25479  0.29420  Biso   1.000  H
  H627     1.0000 0.01291  0.13049  0.25750  Biso   1.000  H
  H628     1.0000 0.98188  0.04769  0.26859  Biso   1.000  H
  N346     1.0000 0.95109  0.11949  0.33218  Biso   1.000  N
  C597     1.0000 0.98042  0.23222  0.44720  Biso   1.000  C
  C598     1.0000 0.94818  0.19859  0.35000  Biso   1.000  C
  C599     1.0000 0.86909  0.20268  0.38662  Biso   1.000  C
  N347     1.0000 0.83097  0.13088  0.37592  Biso   1.000  N
  N348     1.0000 0.83103  0.13088  0.37592  Biso   1.000  N
  H629     1.0000 0.71479  0.15470  0.38879  Biso   1.000  H
  H630     1.0000 0.73000  0.07038  0.37021  Biso   1.000  H
  C600     1.0000 0.88073  0.08240  0.34572  Biso   1.000  C
  O171     1.0000 0.01873  0.25559  0.48956  Biso   1.000  O
  H631     1.0000 0.94600  0.23228  0.31560  Biso   1.000  H
  H632     1.0000 0.83479  0.24509  0.37410  Biso   1.000  H
  O172     1.0000 0.86388  0.01713  0.33095  Biso   1.000  O
