data_image0
_cell_length_a       38.789
_cell_length_b       38.789
_cell_length_c       13.748
_cell_angle_alpha    90
_cell_angle_beta     90
_cell_angle_gamma    120

_symmetry_space_group_name_H-M    "P 1"
_symmetry_int_tables_number       1

loop_
  _symmetry_equiv_pos_as_xyz
  'x, y, z'

loop_
  _atom_site_label
  _atom_site_occupancy
  _atom_site_fract_x
  _atom_site_fract_y
  _atom_site_fract_z
  _atom_site_thermal_displace_type
  _atom_site_B_iso_or_equiv
  _atom_site_type_symbol
  C1       1.0000 0.40715  0.58412  0.55288  Biso   1.000  C
  N1       1.0000 0.37359  0.55150  0.58634  Biso   1.000  N
  N2       1.0000 0.40156  0.58805  0.45578  Biso   1.000  N
  O1       1.0000 0.43660  0.60633  0.60016  Biso   1.000  O
  C2       1.0000 0.36660  0.54283  0.68854  Biso   1.000  C
  C3       1.0000 0.34311  0.53304  0.51353  Biso   1.000  C
  C4       1.0000 0.36246  0.55921  0.42224  Biso   1.000  C
  C5       1.0000 0.42778  0.62425  0.40282  Biso   1.000  C
  N3       1.0000 0.36779  0.50788  0.71821  Biso   1.000  N
  H1       1.0000 0.34014  0.53926  0.70534  Biso   1.000  H
  H2       1.0000 0.38683  0.56596  0.72578  Biso   1.000  H
  N4       1.0000 0.33516  0.49404  0.48320  Biso   1.000  N
  H3       1.0000 0.31812  0.53286  0.53295  Biso   1.000  H
  N5       1.0000 0.36168  0.53113  0.35183  Biso   1.000  N
  H4       1.0000 0.34724  0.57219  0.39926  Biso   1.000  H
  N6       1.0000 0.45196  0.61925  0.33096  Biso   1.000  N
  H5       1.0000 0.41145  0.63399  0.37024  Biso   1.000  H
  H6       1.0000 0.44544  0.64488  0.44988  Biso   1.000  H
  C6       1.0000 0.33413  0.46758  0.71014  Biso   1.000  C
  C7       1.0000 0.39626  0.50976  0.77975  Biso   1.000  C
  C8       1.0000 0.30930  0.45820  0.53644  Biso   1.000  C
  C9       1.0000 0.34361  0.49309  0.38689  Biso   1.000  C
  C10      1.0000 0.37089  0.54039  0.25015  Biso   1.000  C
  C11      1.0000 0.43775  0.60398  0.23458  Biso   1.000  C
  C12      1.0000 0.49295  0.63925  0.33605  Biso   1.000  C
  N7       1.0000 0.32923  0.45016  0.61478  Biso   1.000  N
  C13      1.0000 0.34676  0.44278  0.77415  Biso   1.000  C
  H7       1.0000 0.30893  0.46576  0.73407  Biso   1.000  H
  N8       1.0000 0.38582  0.47201  0.80855  Biso   1.000  N
  O2       1.0000 0.42620  0.54030  0.80594  Biso   1.000  O
  H8       1.0000 0.29808  0.43534  0.49069  Biso   1.000  H
  H9       1.0000 0.28696  0.46043  0.56365  Biso   1.000  H
  O3       1.0000 0.33605  0.46338  0.33990  Biso   1.000  O
  N9       1.0000 0.41282  0.56129  0.22854  Biso   1.000  N
  H10      1.0000 0.35798  0.51524  0.21254  Biso   1.000  H
  H11      1.0000 0.35937  0.55674  0.22803  Biso   1.000  H
  C14      1.0000 0.47574  0.61190  0.17974  Biso   1.000  C
  H12      1.0000 0.42495  0.61797  0.20308  Biso   1.000  H
  O4       1.0000 0.51260  0.65902  0.40457  Biso   1.000  O
  N10      1.0000 0.50713  0.63396  0.25007  Biso   1.000  N
  C15      1.0000 0.33577  0.41864  0.61478  Biso   1.000  C
  N11      1.0000 0.34759  0.41468  0.70541  Biso   1.000  N
  H13      1.0000 0.32773  0.42906  0.82878  Biso   1.000  H
  C16      1.0000 0.40318  0.46502  0.89337  Biso   1.000  C
  C17      1.0000 0.43030  0.54361  0.17712  Biso   1.000  C
  N12      1.0000 0.46850  0.57222  0.15690  Biso   1.000  N
  H14      1.0000 0.47974  0.62788  0.11936  Biso   1.000  H
  C18      1.0000 0.54922  0.65533  0.22658  Biso   1.000  C
  O5       1.0000 0.33157  0.39723  0.54524  Biso   1.000  O
  C19      1.0000 0.34740  0.37905  0.73720  Biso   1.000  C
  N13      1.0000 0.42322  0.44302  0.87235  Biso   1.000  N
  H15      1.0000 0.42245  0.49098  0.92261  Biso   1.000  H
  H16      1.0000 0.38193  0.45016  0.94181  Biso   1.000  H
  O6       1.0000 0.41379  0.50872  0.15340  Biso   1.000  O
  C20      1.0000 0.49122  0.56644  0.08096  Biso   1.000  C
  N14      1.0000 0.56600  0.62964  0.21654  Biso   1.000  N
  H17      1.0000 0.55314  0.67007  0.16497  Biso   1.000  H
  H18      1.0000 0.56373  0.67507  0.27837  Biso   1.000  H
  N15      1.0000 0.38638  0.38589  0.76760  Biso   1.000  N
  H19      1.0000 0.32858  0.36723  0.79233  Biso   1.000  H
  H20      1.0000 0.33746  0.35943  0.68344  Biso   1.000  H
  C21      1.0000 0.40209  0.40030  0.86413  Biso   1.000  C
  C22      1.0000 0.46305  0.45871  0.88493  Biso   1.000  C
  N16      1.0000 0.52883  0.57129  0.11500  Biso   1.000  N
  H21      1.0000 0.47507  0.53935  0.05354  Biso   1.000  H
  H22      1.0000 0.49656  0.58573  0.02800  Biso   1.000  H
  C23      1.0000 0.56428  0.61017  0.12576  Biso   1.000  C
  C24      1.0000 0.59647  0.63387  0.27444  Biso   1.000  C
  C25      1.0000 0.40353  0.36616  0.72549  Biso   1.000  C
  H23      1.0000 0.38128  0.38735  0.91562  Biso   1.000  H
  C26      1.0000 0.43573  0.38982  0.87424  Biso   1.000  C
  N17      1.0000 0.47116  0.42873  0.88493  Biso   1.000  N
  O7       1.0000 0.48747  0.49428  0.89642  Biso   1.000  O
  C27      1.0000 0.53694  0.54132  0.11500  Biso   1.000  C
  C28      1.0000 0.59793  0.59972  0.13587  Biso   1.000  C
  H24      1.0000 0.56854  0.62776  0.06845  Biso   1.000  H
  O8       1.0000 0.60702  0.65253  0.35118  Biso   1.000  O
  N18      1.0000 0.61363  0.61410  0.23232  Biso   1.000  N
  O9       1.0000 0.39301  0.34749  0.64882  Biso   1.000  O
  N19      1.0000 0.43400  0.37038  0.78339  Biso   1.000  N
  H25      1.0000 0.43147  0.37223  0.93148  Biso   1.000  H
  C29      1.0000 0.50878  0.43358  0.91904  Biso   1.000  C
  O10      1.0000 0.51256  0.50574  0.10351  Biso   1.000  O
  N20      1.0000 0.57681  0.55700  0.12765  Biso   1.000  N
  H26      1.0000 0.61874  0.61267  0.08438  Biso   1.000  H
  C30      1.0000 0.65261  0.62095  0.26273  Biso   1.000  C
  C31      1.0000 0.45078  0.34469  0.77342  Biso   1.000  C
  N21      1.0000 0.53149  0.42781  0.84303  Biso   1.000  N
  H27      1.0000 0.52493  0.46067  0.94646  Biso   1.000  H
  H28      1.0000 0.50343  0.41426  0.97192  Biso   1.000  H
  C32      1.0000 0.59681  0.53497  0.10663  Biso   1.000  C
  N22      1.0000 0.65240  0.58531  0.29459  Biso   1.000  N
  H29      1.0000 0.67143  0.63276  0.20767  Biso   1.000  H
  H30      1.0000 0.66254  0.64056  0.31656  Biso   1.000  H
  N23      1.0000 0.49289  0.36607  0.74993  Biso   1.000  N
  H31      1.0000 0.44687  0.32993  0.83503  Biso   1.000  H
  H32      1.0000 0.43628  0.32493  0.72163  Biso   1.000  H
  C33      1.0000 0.52424  0.38810  0.82019  Biso   1.000  C
  C34      1.0000 0.56970  0.45641  0.82281  Biso   1.000  C
  N24      1.0000 0.61418  0.52801  0.19145  Biso   1.000  N
  H33      1.0000 0.57758  0.50905  0.07732  Biso   1.000  H
  H34      1.0000 0.61808  0.54983  0.05812  Biso   1.000  H
  C35      1.0000 0.65324  0.55724  0.22585  Biso   1.000  C
  C36      1.0000 0.66421  0.58135  0.38515  Biso   1.000  C
  C37      1.0000 0.50706  0.36074  0.66388  Biso   1.000  C
  H35      1.0000 0.52026  0.37214  0.88064  Biso   1.000  H
  C38      1.0000 0.56226  0.39601  0.76542  Biso   1.000  C
  N25      1.0000 0.58718  0.43873  0.77146  Biso   1.000  N
  O11      1.0000 0.58622  0.49127  0.84652  Biso   1.000  O
  C39      1.0000 0.60376  0.49026  0.22025  Biso   1.000  C
  C40      1.0000 0.66586  0.53241  0.28986  Biso   1.000  C
  H36      1.0000 0.67228  0.57094  0.17122  Biso   1.000  H
  N26      1.0000 0.67077  0.54983  0.38515  Biso   1.000  N
  O12      1.0000 0.66842  0.60276  0.45476  Biso   1.000  O
  O13      1.0000 0.48741  0.34097  0.59543  Biso   1.000  O
  N27      1.0000 0.54802  0.38074  0.66904  Biso   1.000  N
  H37      1.0000 0.57506  0.38202  0.79692  Biso   1.000  H
  C41      1.0000 0.62913  0.45963  0.74985  Biso   1.000  C
  N28      1.0000 0.63223  0.49214  0.28171  Biso   1.000  N
  O14      1.0000 0.57382  0.45972  0.19399  Biso   1.000  O
  H38      1.0000 0.69108  0.53423  0.26593  Biso   1.000  H
  C42      1.0000 0.69069  0.54182  0.46356  Biso   1.000  C
  C43      1.0000 0.57222  0.37577  0.59711  Biso   1.000  C
  N29      1.0000 0.63833  0.46886  0.64817  Biso   1.000  N
  H39      1.0000 0.64204  0.48478  0.78746  Biso   1.000  H
  H40      1.0000 0.64064  0.44326  0.77197  Biso   1.000  H
  C44      1.0000 0.63343  0.45719  0.31139  Biso   1.000  C
  N30      1.0000 0.66484  0.50595  0.51673  Biso   1.000  N
  H41      1.0000 0.70195  0.56468  0.50924  Biso   1.000  H
  H42      1.0000 0.71302  0.53956  0.43635  Biso   1.000  H
  N31      1.0000 0.59843  0.41194  0.54422  Biso   1.000  N
  H43      1.0000 0.58857  0.36604  0.62969  Biso   1.000  H
  H44      1.0000 0.55458  0.35514  0.55012  Biso   1.000  H
  C45      1.0000 0.63752  0.44079  0.57768  Biso   1.000  C
  C46      1.0000 0.65640  0.50690  0.61303  Biso   1.000  C
  N32      1.0000 0.62644  0.44853  0.41359  Biso   1.000  N
  H45      1.0000 0.65987  0.46073  0.29466  Biso   1.000  H
  H46      1.0000 0.61316  0.43403  0.27422  Biso   1.000  H
  C47      1.0000 0.65688  0.46698  0.48640  Biso   1.000  C
  C48      1.0000 0.59288  0.41590  0.44712  Biso   1.000  C
  H47      1.0000 0.65278  0.42784  0.60074  Biso   1.000  H
  O15      1.0000 0.66393  0.53661  0.66002  Biso   1.000  O
  H48      1.0000 0.68186  0.46713  0.46705  Biso   1.000  H
  O16      1.0000 0.56342  0.39369  0.39984  Biso   1.000  O
  C49      1.0000 0.53323  0.66748  0.62315  Biso   1.000  C
  N33      1.0000 0.54572  0.66256  0.71850  Biso   1.000  N
  N34      1.0000 0.52656  0.70111  0.61507  Biso   1.000  N
  H49      1.0000 0.50984  0.64226  0.59921  Biso   1.000  H
  C50      1.0000 0.57066  0.68010  0.55914  Biso   1.000  C
  C51      1.0000 0.51780  0.64265  0.79684  Biso   1.000  C
  C52      1.0000 0.58380  0.66911  0.71850  Biso   1.000  C
  C53      1.0000 0.49044  0.69992  0.64475  Biso   1.000  C
  C54      1.0000 0.55318  0.72960  0.55354  Biso   1.000  C
  N35      1.0000 0.59959  0.68093  0.62787  Biso   1.000  N
  N36      1.0000 0.58049  0.71915  0.52473  Biso   1.000  N
  H50      1.0000 0.56535  0.66107  0.50458  Biso   1.000  H
  N37      1.0000 0.50779  0.66852  0.85009  Biso   1.000  N
  H51      1.0000 0.52939  0.63140  0.84260  Biso   1.000  H
  H52      1.0000 0.49319  0.62029  0.76971  Biso   1.000  H
  O17      1.0000 0.60101  0.66492  0.78804  Biso   1.000  O
  N38      1.0000 0.48876  0.70692  0.74695  Biso   1.000  N
  H53      1.0000 0.46754  0.67346  0.62795  Biso   1.000  H
  H54      1.0000 0.48754  0.72017  0.60758  Biso   1.000  H
  O18      1.0000 0.55257  0.75952  0.52735  Biso   1.000  O
  C55      1.0000 0.63502  0.68075  0.59609  Biso   1.000  C
  C56      1.0000 0.60484  0.73651  0.43992  Biso   1.000  C
  C57      1.0000 0.51718  0.67694  0.94639  Biso   1.000  C
  C58      1.0000 0.47675  0.67647  0.81976  Biso   1.000  C
  C59      1.0000 0.48970  0.74047  0.78048  Biso   1.000  C
  N39      1.0000 0.66716  0.71972  0.56568  Biso   1.000  N
  H55      1.0000 0.62800  0.66191  0.54095  Biso   1.000  H
  H56      1.0000 0.64472  0.67081  0.64991  Biso   1.000  H
  N40      1.0000 0.64688  0.75654  0.46094  Biso   1.000  N
  H57      1.0000 0.59813  0.75577  0.41068  Biso   1.000  H
  H58      1.0000 0.59843  0.71528  0.39148  Biso   1.000  H
  O19      1.0000 0.53934  0.66938  0.99338  Biso   1.000  O
  N41      1.0000 0.49721  0.69501  0.98145  Biso   1.000  N
  C60      1.0000 0.46993  0.69582  0.91104  Biso   1.000  C
  H59      1.0000 0.45193  0.65146  0.80033  Biso   1.000  H
  O20      1.0000 0.49696  0.76994  0.73312  Biso   1.000  O
  N42      1.0000 0.48019  0.73490  0.87751  Biso   1.000  N
  C61      1.0000 0.70404  0.73687  0.60780  Biso   1.000  C
  C62      1.0000 0.66847  0.73544  0.46916  Biso   1.000  C
  C63      1.0000 0.67104  0.79640  0.44836  Biso   1.000  C
  C64      1.0000 0.49717  0.70421  0.08314  Biso   1.000  C
  H60      1.0000 0.44173  0.68057  0.93403  Biso   1.000  H
  C65      1.0000 0.47019  0.76110  0.93046  Biso   1.000  C
  O21      1.0000 0.71218  0.72633  0.68446  Biso   1.000  O
  N43      1.0000 0.73029  0.76735  0.54990  Biso   1.000  N
  H61      1.0000 0.66061  0.71460  0.41766  Biso   1.000  H
  C66      1.0000 0.71257  0.76908  0.45912  Biso   1.000  C
  O22      1.0000 0.65984  0.82078  0.43686  Biso   1.000  O
  N44      1.0000 0.70912  0.80450  0.44836  Biso   1.000  N
  N45      1.0000 0.51822  0.74615  0.10474  Biso   1.000  N
  H62      1.0000 0.50942  0.69132  0.12074  Biso   1.000  H
  H63      1.0000 0.46931  0.69272  0.10525  Biso   1.000  H
  H64      1.0000 0.44414  0.74478  0.96305  Biso   1.000  H
  H65      1.0000 0.46725  0.77878  0.88347  Biso   1.000  H
  N46      1.0000 0.49938  0.78530  0.00233  Biso   1.000  N
  C67      1.0000 0.77276  0.78411  0.55986  Biso   1.000  C
  H66      1.0000 0.72591  0.76482  0.40180  Biso   1.000  H
  C68      1.0000 0.74188  0.84213  0.41424  Biso   1.000  C
  C69      1.0000 0.55337  0.76366  0.15617  Biso   1.000  C
  C70      1.0000 0.50045  0.77110  0.09871  Biso   1.000  C
  C71      1.0000 0.52037  0.82629  0.99724  Biso   1.000  C
  N47      1.0000 0.79349  0.82620  0.58336  Biso   1.000  N
  H67      1.0000 0.78362  0.78021  0.49825  Biso   1.000  H
  H68      1.0000 0.77801  0.76961  0.61165  Biso   1.000  H
  N48      1.0000 0.77038  0.86484  0.49025  Biso   1.000  N
  H69      1.0000 0.73094  0.85826  0.38682  Biso   1.000  H
  H70      1.0000 0.75583  0.83677  0.36136  Biso   1.000  H
  O23      1.0000 0.57173  0.74711  0.17988  Biso   1.000  O
  N49      1.0000 0.56298  0.80185  0.17639  Biso   1.000  N
  C72      1.0000 0.53051  0.80909  0.15355  Biso   1.000  C
  H71      1.0000 0.47365  0.75827  0.13020  Biso   1.000  H
  O24      1.0000 0.52024  0.84594  0.92872  Biso   1.000  O
  N50      1.0000 0.53985  0.84046  0.08321  Biso   1.000  N
  C73      1.0000 0.81299  0.84040  0.66941  Biso   1.000  C
  C74      1.0000 0.80281  0.85758  0.51309  Biso   1.000  C
  C75      1.0000 0.77996  0.90304  0.51047  Biso   1.000  C
  C76      1.0000 0.59146  0.82456  0.25233  Biso   1.000  C
  H72      1.0000 0.51853  0.81307  0.21392  Biso   1.000  H
  C77      1.0000 0.56056  0.88255  0.10671  Biso   1.000  C
  O25      1.0000 0.81308  0.82072  0.73785  Biso   1.000  O
  N51      1.0000 0.83394  0.88136  0.66431  Biso   1.000  N
  H73      1.0000 0.81481  0.85362  0.45272  Biso   1.000  H
  C78      1.0000 0.83291  0.89559  0.56786  Biso   1.000  C
  O26      1.0000 0.76162  0.91956  0.48676  Biso   1.000  O
  N52      1.0000 0.81512  0.92051  0.56183  Biso   1.000  N
  N53      1.0000 0.62423  0.86216  0.21829  Biso   1.000  N
  H74      1.0000 0.60240  0.80840  0.27975  Biso   1.000  H
  H75      1.0000 0.57749  0.82989  0.30528  Biso   1.000  H
  N54      1.0000 0.60304  0.89934  0.11674  Biso   1.000  N
  H76      1.0000 0.54974  0.88648  0.16832  Biso   1.000  H
  H77      1.0000 0.55535  0.89708  0.05492  Biso   1.000  H
  C79      1.0000 0.86313  0.90557  0.73618  Biso   1.000  C
  H78      1.0000 0.85970  0.90839  0.53637  Biso   1.000  H
  C80      1.0000 0.83617  0.96245  0.58343  Biso   1.000  C
  C81      1.0000 0.66232  0.87029  0.21829  Biso   1.000  C
  C82      1.0000 0.62079  0.89762  0.20752  Biso   1.000  C
  C83      1.0000 0.62929  0.92983  0.05884  Biso   1.000  C
  N55      1.0000 0.85317  0.93179  0.78906  Biso   1.000  N
  H79      1.0000 0.88922  0.92191  0.70359  Biso   1.000  H
  H80      1.0000 0.86611  0.88791  0.78317  Biso   1.000  H
  N56      1.0000 0.83615  0.97168  0.68512  Biso   1.000  N
  H81      1.0000 0.82394  0.97537  0.54582  Biso   1.000  H
  H82      1.0000 0.86405  0.97397  0.56132  Biso   1.000  H
  O27      1.0000 0.67347  0.84588  0.22978  Biso   1.000  O
  N57      1.0000 0.68648  0.91015  0.20563  Biso   1.000  N
  C84      1.0000 0.66489  0.93126  0.19741  Biso   1.000  C
  H83      1.0000 0.60745  0.90187  0.26484  Biso   1.000  H
  O28      1.0000 0.62116  0.94034  0.98211  Biso   1.000  O
  N58      1.0000 0.66620  0.94697  0.10096  Biso   1.000  N
  C85      1.0000 0.84364  0.92620  0.88617  Biso   1.000  C
  C86      1.0000 0.86343  0.97088  0.75560  Biso   1.000  C
  C87      1.0000 0.81618  0.98975  0.72025  Biso   1.000  C
  C88      1.0000 0.72850  0.93015  0.22665  Biso   1.000  C
  H84      1.0000 0.67274  0.95206  0.24891  Biso   1.000  H
  C89      1.0000 0.69831  0.98594  0.07056  Biso   1.000  C
  O29      1.0000 0.83640  0.89675  0.93344  Biso   1.000  O
  N59      1.0000 0.84456  0.95974  0.91970  Biso   1.000  N
  H85      1.0000 0.89160  0.98612  0.73254  Biso   1.000  H
  C90      1.0000 0.85658  0.99023  0.84689  Biso   1.000  C
  O30      1.0000 0.79401  0.99728  0.67326  Biso   1.000  O
  N60      1.0000 0.82555  0.99818  0.81656  Biso   1.000  N
  N61      1.0000 0.75285  0.94751  0.14184  Biso   1.000  N
  H86      1.0000 0.73519  0.91089  0.25596  Biso   1.000  H
  H87      1.0000 0.73490  0.95141  0.27517  Biso   1.000  H
  N62      1.0000 0.73376  0.98573  0.03877  Biso   1.000  N
  H88      1.0000 0.68864  0.99588  0.01673  Biso   1.000  H
  H89      1.0000 0.70532  0.00476  0.12562  Biso   1.000  H
  C91      1.0000 0.84292  0.96677  0.02189  Biso   1.000  C
  H90      1.0000 0.88138  0.01517  0.86631  Biso   1.000  H
  C92      1.0000 0.81555  0.02402  0.86973  Biso   1.000  C
  C93      1.0000 0.78018  0.93709  0.11303  Biso   1.000  C
  C94      1.0000 0.76266  0.98657  0.10743  Biso   1.000  C
  C95      1.0000 0.74952  0.99755  0.94814  Biso   1.000  C
  N63      1.0000 0.80676  0.96555  0.05157  Biso   1.000  N
  H91      1.0000 0.86581  0.99321  0.03870  Biso   1.000  H
  H92      1.0000 0.84580  0.94650  0.05906  Biso   1.000  H
  N64      1.0000 0.78763  0.00407  0.94814  Biso   1.000  N
  H93      1.0000 0.80391  0.03524  0.82405  Biso   1.000  H
  H94      1.0000 0.84012  0.04634  0.89693  Biso   1.000  H
  O31      1.0000 0.78078  0.90714  0.13929  Biso   1.000  O
  C96      1.0000 0.80013  0.99922  0.04350  Biso   1.000  C
  H95      1.0000 0.76800  0.00559  0.16206  Biso   1.000  H
  O32      1.0000 0.73236  0.00175  0.87853  Biso   1.000  O
  H96      1.0000 0.82349  0.02437  0.06736  Biso   1.000  H
  O33      1.0000 0.27298  0.50306  0.73312  Biso   1.000  O
  C97      1.0000 0.25077  0.51030  0.78048  Biso   1.000  C
  N65      1.0000 0.21817  0.51125  0.74695  Biso   1.000  N
  N66      1.0000 0.25473  0.51982  0.87751  Biso   1.000  N
  C98      1.0000 0.20949  0.50958  0.64475  Biso   1.000  C
  C99      1.0000 0.19970  0.52325  0.81976  Biso   1.000  C
  C100     1.0000 0.22589  0.53009  0.91104  Biso   1.000  C
  C101     1.0000 0.29091  0.52979  0.93046  Biso   1.000  C
  N67      1.0000 0.17454  0.47344  0.61507  Biso   1.000  N
  H97      1.0000 0.20594  0.53247  0.62795  Biso   1.000  H
  H98      1.0000 0.23265  0.51247  0.60758  Biso   1.000  H
  N68      1.0000 0.16073  0.49223  0.85009  Biso   1.000  N
  H99      1.0000 0.19953  0.54807  0.80033  Biso   1.000  H
  N69      1.0000 0.19780  0.50279  0.98145  Biso   1.000  N
  H100     1.0000 0.23885  0.55828  0.93403  Biso   1.000  H
  H101     1.0000 0.30065  0.55587  0.96305  Biso   1.000  H
  H102     1.0000 0.31153  0.53277  0.88347  Biso   1.000  H
  N70      1.0000 0.28591  0.50062  0.00233  Biso   1.000  N
  C102     1.0000 0.17642  0.44683  0.55354  Biso   1.000  C
  C103     1.0000 0.13424  0.46677  0.62315  Biso   1.000  C
  C104     1.0000 0.12487  0.48222  0.79684  Biso   1.000  C
  C105     1.0000 0.15976  0.48282  0.94639  Biso   1.000  C
  C106     1.0000 0.20704  0.50282  0.08314  Biso   1.000  C
  C107     1.0000 0.30593  0.47966  0.99724  Biso   1.000  C
  C108     1.0000 0.27067  0.49958  0.09871  Biso   1.000  C
  N71      1.0000 0.13869  0.41953  0.52473  Biso   1.000  N
  O34      1.0000 0.20697  0.44745  0.52735  Biso   1.000  O
  C109     1.0000 0.10944  0.42935  0.55914  Biso   1.000  C
  N72      1.0000 0.11685  0.45427  0.71850  Biso   1.000  N
  H103     1.0000 0.13243  0.49017  0.59921  Biso   1.000  H
  H104     1.0000 0.10200  0.47061  0.84260  Biso   1.000  H
  H105     1.0000 0.12711  0.50681  0.76971  Biso   1.000  H
  O35      1.0000 0.13005  0.46067  0.99338  Biso   1.000  O
  N73      1.0000 0.22794  0.48181  0.10474  Biso   1.000  N
  H106     1.0000 0.18190  0.49059  0.12074  Biso   1.000  H
  H107     1.0000 0.22341  0.53072  0.10525  Biso   1.000  H
  N74      1.0000 0.30062  0.46017  0.08321  Biso   1.000  N
  O36      1.0000 0.32570  0.47975  0.92872  Biso   1.000  O
  C110     1.0000 0.27857  0.46948  0.15355  Biso   1.000  C
  H108     1.0000 0.28464  0.52637  0.13020  Biso   1.000  H
  C111     1.0000 0.13170  0.39518  0.43992  Biso   1.000  C
  N75      1.0000 0.08136  0.40042  0.62787  Biso   1.000  N
  H109     1.0000 0.09574  0.43468  0.50458  Biso   1.000  H
  C112     1.0000 0.08531  0.41620  0.71850  Biso   1.000  C
  C113     1.0000 0.21027  0.44662  0.15617  Biso   1.000  C
  C114     1.0000 0.32198  0.43942  0.10671  Biso   1.000  C
  N76      1.0000 0.23888  0.43704  0.17639  Biso   1.000  N
  H110     1.0000 0.29454  0.48148  0.21392  Biso   1.000  H
  N77      1.0000 0.10967  0.35315  0.46094  Biso   1.000  N
  H111     1.0000 0.15763  0.40188  0.41068  Biso   1.000  H
  H112     1.0000 0.11685  0.40158  0.39148  Biso   1.000  H
  C115     1.0000 0.04573  0.36499  0.59609  Biso   1.000  C
  O37      1.0000 0.06392  0.39899  0.78804  Biso   1.000  O
  O38      1.0000 0.17539  0.42828  0.17988  Biso   1.000  O
  N78      1.0000 0.29629  0.39697  0.11674  Biso   1.000  N
  H113     1.0000 0.33674  0.45028  0.16832  Biso   1.000  H
  H114     1.0000 0.34172  0.44466  0.05492  Biso   1.000  H
  C116     1.0000 0.23310  0.40855  0.25233  Biso   1.000  C
  C117     1.0000 0.12535  0.32897  0.44836  Biso   1.000  C
  C118     1.0000 0.06695  0.33153  0.46916  Biso   1.000  C
  N79      1.0000 0.05255  0.33284  0.56568  Biso   1.000  N
  H115     1.0000 0.03389  0.37199  0.54095  Biso   1.000  H
  H116     1.0000 0.02608  0.35529  0.64991  Biso   1.000  H
  C119     1.0000 0.30052  0.37071  0.05884  Biso   1.000  C
  C120     1.0000 0.27683  0.37922  0.20752  Biso   1.000  C
  N80      1.0000 0.23793  0.37577  0.21829  Biso   1.000  N
  H117     1.0000 0.20599  0.39759  0.27975  Biso   1.000  H
  H118     1.0000 0.25240  0.42251  0.30528  Biso   1.000  H
  N81      1.0000 0.09541  0.29090  0.44836  Biso   1.000  N
  O39      1.0000 0.16092  0.34014  0.43686  Biso   1.000  O
  C121     1.0000 0.05651  0.28745  0.45912  Biso   1.000  C
  H119     1.0000 0.05399  0.33939  0.41766  Biso   1.000  H
  C122     1.0000 0.03282  0.29596  0.60780  Biso   1.000  C
  N82      1.0000 0.28079  0.33383  0.10096  Biso   1.000  N
  O40      1.0000 0.31917  0.37884  0.98211  Biso   1.000  O
  C123     1.0000 0.26639  0.33514  0.19741  Biso   1.000  C
  H120     1.0000 0.29443  0.39256  0.26484  Biso   1.000  H
  C124     1.0000 0.20798  0.33770  0.21829  Biso   1.000  C
  C125     1.0000 0.10024  0.25812  0.41424  Biso   1.000  C
  N83      1.0000 0.03704  0.26970  0.54990  Biso   1.000  N
  H121     1.0000 0.03891  0.27411  0.40180  Biso   1.000  H
  O41      1.0000 0.01416  0.28783  0.68446  Biso   1.000  O
  C126     1.0000 0.28760  0.30168  0.07056  Biso   1.000  C
  N84      1.0000 0.22366  0.31352  0.20563  Biso   1.000  N
  H122     1.0000 0.27934  0.32728  0.24891  Biso   1.000  H
  O42      1.0000 0.17242  0.32653  0.22978  Biso   1.000  O
  N85      1.0000 0.09445  0.22964  0.49025  Biso   1.000  N
  H123     1.0000 0.12735  0.26908  0.38682  Biso   1.000  H
  H124     1.0000 0.08094  0.24416  0.36136  Biso   1.000  H
  C127     1.0000 0.01136  0.22725  0.55986  Biso   1.000  C
  N86      1.0000 0.25197  0.26625  0.03877  Biso   1.000  N
  H125     1.0000 0.29945  0.29468  0.12562  Biso   1.000  H
  H126     1.0000 0.30725  0.31138  0.01673  Biso   1.000  H
  C128     1.0000 0.20164  0.27149  0.22665  Biso   1.000  C
  C129     1.0000 0.12307  0.22005  0.51047  Biso   1.000  C
  C130     1.0000 0.05477  0.19719  0.51309  Biso   1.000  C
  N87      1.0000 0.03272  0.20651  0.58336  Biso   1.000  N
  H127     1.0000 0.99659  0.21639  0.49825  Biso   1.000  H
  H128     1.0000 0.99162  0.22202  0.61165  Biso   1.000  H
  C131     1.0000 0.24803  0.25047  0.94814  Biso   1.000  C
  C132     1.0000 0.22391  0.23735  0.10743  Biso   1.000  C
  N88      1.0000 0.19465  0.24714  0.14184  Biso   1.000  N
  H129     1.0000 0.17571  0.26479  0.25596  Biso   1.000  H
  H130     1.0000 0.21649  0.26509  0.27517  Biso   1.000  H
  O43      1.0000 0.15794  0.23839  0.48676  Biso   1.000  O
  N89      1.0000 0.10540  0.18486  0.56183  Biso   1.000  N
  C133     1.0000 0.06266  0.16709  0.56786  Biso   1.000  C
  H131     1.0000 0.03879  0.18519  0.45272  Biso   1.000  H
  C134     1.0000 0.02740  0.18701  0.66941  Biso   1.000  C
  N90      1.0000 0.21649  0.21240  0.94814  Biso   1.000  N
  O44      1.0000 0.26942  0.26768  0.87853  Biso   1.000  O
  C135     1.0000 0.19910  0.19990  0.04350  Biso   1.000  C
  H132     1.0000 0.23760  0.23199  0.16206  Biso   1.000  H
  C136     1.0000 0.15692  0.21984  0.11303  Biso   1.000  C
  C137     1.0000 0.12629  0.16385  0.58343  Biso   1.000  C
  N91      1.0000 0.04742  0.16605  0.66431  Biso   1.000  N
  H133     1.0000 0.04870  0.14030  0.53637  Biso   1.000  H
  O45      1.0000 0.00764  0.18692  0.73785  Biso   1.000  O
  C138     1.0000 0.20847  0.18445  0.86973  Biso   1.000  C
  N92      1.0000 0.15880  0.19323  0.05157  Biso   1.000  N
  H134     1.0000 0.20091  0.17650  0.06736  Biso   1.000  H
  O46      1.0000 0.12637  0.21922  0.13929  Biso   1.000  O
  N93      1.0000 0.13554  0.16388  0.68512  Biso   1.000  N
  H135     1.0000 0.15144  0.17608  0.54582  Biso   1.000  H
  H136     1.0000 0.10992  0.13595  0.56132  Biso   1.000  H
  C139     1.0000 0.04243  0.13688  0.73618  Biso   1.000  C
  N94      1.0000 0.17261  0.17444  0.81656  Biso   1.000  N
  H137     1.0000 0.23134  0.19606  0.82405  Biso   1.000  H
  H138     1.0000 0.20623  0.15986  0.89693  Biso   1.000  H
  C140     1.0000 0.12384  0.15709  0.02189  Biso   1.000  C
  C141     1.0000 0.10745  0.13658  0.75560  Biso   1.000  C
  C142     1.0000 0.17357  0.18385  0.72025  Biso   1.000  C
  N95      1.0000 0.07861  0.14685  0.78906  Biso   1.000  N
  H139     1.0000 0.03269  0.11080  0.70359  Biso   1.000  H
  H140     1.0000 0.02181  0.13390  0.78317  Biso   1.000  H
  C143     1.0000 0.13364  0.14343  0.84689  Biso   1.000  C
  N96      1.0000 0.11517  0.15542  0.91970  Biso   1.000  N
  H141     1.0000 0.12740  0.13420  0.03870  Biso   1.000  H
  H142     1.0000 0.10069  0.15420  0.05906  Biso   1.000  H
  H143     1.0000 0.09449  0.10839  0.73254  Biso   1.000  H
  O47      1.0000 0.20329  0.20600  0.67326  Biso   1.000  O
  C144     1.0000 0.08257  0.15638  0.88617  Biso   1.000  C
  H144     1.0000 0.13381  0.11860  0.86631  Biso   1.000  H
  O48      1.0000 0.06036  0.16361  0.93344  Biso   1.000  O
  C145     1.0000 0.46697  0.81010  0.51353  Biso   1.000  C
  N97      1.0000 0.44852  0.82212  0.58634  Biso   1.000  N
  C146     1.0000 0.44077  0.80328  0.42224  Biso   1.000  C
  H145     1.0000 0.46713  0.78530  0.53295  Biso   1.000  H
  N98      1.0000 0.50596  0.84115  0.48320  Biso   1.000  N
  N99      1.0000 0.44851  0.82209  0.58634  Biso   1.000  N
  C147     1.0000 0.44079  0.80325  0.42224  Biso   1.000  C
  H146     1.0000 0.46714  0.78527  0.53295  Biso   1.000  H
  N100     1.0000 0.50594  0.84112  0.48320  Biso   1.000  N
  C148     1.0000 0.41588  0.82305  0.55288  Biso   1.000  C
  C149     1.0000 0.41591  0.82305  0.55288  Biso   1.000  C
  C150     1.0000 0.45718  0.82376  0.68854  Biso   1.000  C
  N101     1.0000 0.41194  0.81352  0.45578  Biso   1.000  N
  N102     1.0000 0.46887  0.83055  0.35183  Biso   1.000  N
  H147     1.0000 0.42782  0.77506  0.39926  Biso   1.000  H
  C151     1.0000 0.50691  0.85052  0.38689  Biso   1.000  C
  C152     1.0000 0.54180  0.85112  0.53644  Biso   1.000  C
  O49      1.0000 0.39368  0.83031  0.60016  Biso   1.000  O
  O50      1.0000 0.39369  0.83028  0.60016  Biso   1.000  O
  H148     1.0000 0.43403  0.82087  0.72578  Biso   1.000  H
  N103     1.0000 0.49212  0.85993  0.71821  Biso   1.000  N
  H149     1.0000 0.46075  0.80090  0.70534  Biso   1.000  H
  N104     1.0000 0.49213  0.85990  0.71821  Biso   1.000  N
  H150     1.0000 0.46074  0.80087  0.70534  Biso   1.000  H
  C153     1.0000 0.37576  0.80355  0.40282  Biso   1.000  C
  C154     1.0000 0.45963  0.83052  0.25015  Biso   1.000  C
  O51      1.0000 0.53661  0.87270  0.33990  Biso   1.000  O
  O52      1.0000 0.53662  0.87267  0.33990  Biso   1.000  O
  N105     1.0000 0.54982  0.87907  0.61478  Biso   1.000  N
  H151     1.0000 0.56466  0.86276  0.49069  Biso   1.000  H
  H152     1.0000 0.56468  0.86273  0.49069  Biso   1.000  H
  H153     1.0000 0.53956  0.82653  0.56365  Biso   1.000  H
  C155     1.0000 0.49025  0.88651  0.77975  Biso   1.000  C
  C156     1.0000 0.53244  0.86657  0.71014  Biso   1.000  C
  N106     1.0000 0.38077  0.83275  0.33096  Biso   1.000  N
  H154     1.0000 0.35513  0.80060  0.44988  Biso   1.000  H
  N107     1.0000 0.38076  0.83272  0.33096  Biso   1.000  N
  H155     1.0000 0.36602  0.77747  0.37024  Biso   1.000  H
  H156     1.0000 0.35514  0.80057  0.44988  Biso   1.000  H
  H157     1.0000 0.48477  0.84275  0.21254  Biso   1.000  H
  N108     1.0000 0.43872  0.85157  0.22854  Biso   1.000  N
  H158     1.0000 0.44327  0.80266  0.22803  Biso   1.000  H
  N109     1.0000 0.43874  0.85154  0.22854  Biso   1.000  N
  H159     1.0000 0.44326  0.80263  0.22803  Biso   1.000  H
  C157     1.0000 0.58135  0.91718  0.61478  Biso   1.000  C
  C158     1.0000 0.58137  0.91715  0.61478  Biso   1.000  C
  O53      1.0000 0.45972  0.88592  0.80594  Biso   1.000  O
  N110     1.0000 0.52800  0.91384  0.80855  Biso   1.000  N
  N111     1.0000 0.52798  0.91381  0.80855  Biso   1.000  N
  C159     1.0000 0.55724  0.90402  0.77415  Biso   1.000  C
  H160     1.0000 0.53424  0.84320  0.73407  Biso   1.000  H
  H161     1.0000 0.53425  0.84317  0.73407  Biso   1.000  H
  C160     1.0000 0.36075  0.85371  0.33605  Biso   1.000  C
  C161     1.0000 0.39601  0.83379  0.23458  Biso   1.000  C
  C162     1.0000 0.36074  0.85368  0.33605  Biso   1.000  C
  C163     1.0000 0.39600  0.83376  0.23458  Biso   1.000  C
  C164     1.0000 0.45641  0.88672  0.17712  Biso   1.000  C
  O54      1.0000 0.60276  0.93435  0.54524  Biso   1.000  O
  N112     1.0000 0.58531  0.93292  0.70541  Biso   1.000  N
  C165     1.0000 0.53498  0.93816  0.89337  Biso   1.000  C
  H162     1.0000 0.57093  0.89869  0.82878  Biso   1.000  H
  H163     1.0000 0.57094  0.89866  0.82878  Biso   1.000  H
  O55      1.0000 0.34097  0.85359  0.40457  Biso   1.000  O
  N113     1.0000 0.36605  0.87318  0.25007  Biso   1.000  N
  C166     1.0000 0.38810  0.86386  0.17974  Biso   1.000  C
  H164     1.0000 0.38205  0.80700  0.20308  Biso   1.000  H
  H165     1.0000 0.38204  0.80697  0.20308  Biso   1.000  H
  O56      1.0000 0.49129  0.90509  0.15340  Biso   1.000  O
  O57      1.0000 0.49128  0.90506  0.15340  Biso   1.000  O
  N114     1.0000 0.42779  0.89631  0.15690  Biso   1.000  N
  C167     1.0000 0.62094  0.96835  0.73720  Biso   1.000  C
  N115     1.0000 0.55699  0.98023  0.87235  Biso   1.000  N
  H166     1.0000 0.50903  0.93149  0.92261  Biso   1.000  H
  N116     1.0000 0.55700  0.98020  0.87235  Biso   1.000  N
  H167     1.0000 0.50904  0.93146  0.92261  Biso   1.000  H
  H168     1.0000 0.54982  0.93176  0.94181  Biso   1.000  H
  C168     1.0000 0.34469  0.89393  0.22658  Biso   1.000  C
  H169     1.0000 0.37214  0.85189  0.11936  Biso   1.000  H
  H170     1.0000 0.37213  0.85186  0.11936  Biso   1.000  H
  C169     1.0000 0.43359  0.92483  0.08096  Biso   1.000  C
  C170     1.0000 0.43358  0.92480  0.08096  Biso   1.000  C
  H171     1.0000 0.63278  0.96135  0.79233  Biso   1.000  H
  H172     1.0000 0.64059  0.97805  0.68344  Biso   1.000  H
  N117     1.0000 0.61411  0.00047  0.76760  Biso   1.000  N
  N118     1.0000 0.61413  0.00047  0.76760  Biso   1.000  N
  C171     1.0000 0.54130  0.00434  0.88493  Biso   1.000  C
  C172     1.0000 0.59971  0.00178  0.86413  Biso   1.000  C
  N119     1.0000 0.37037  0.93641  0.21654  Biso   1.000  N
  N120     1.0000 0.37038  0.93638  0.21654  Biso   1.000  N
  H173     1.0000 0.32993  0.88306  0.16497  Biso   1.000  H
  H174     1.0000 0.32495  0.88869  0.27837  Biso   1.000  H
  H175     1.0000 0.46066  0.93575  0.05354  Biso   1.000  H
  H176     1.0000 0.41426  0.91086  0.02800  Biso   1.000  H
  N121     1.0000 0.42875  0.95757  0.11500  Biso   1.000  N
  H177     1.0000 0.46068  0.93575  0.05354  Biso   1.000  H
  H178     1.0000 0.41427  0.91083  0.02800  Biso   1.000  H
  C173     1.0000 0.63386  0.03735  0.72549  Biso   1.000  C
  O58      1.0000 0.50573  0.99321  0.89642  Biso   1.000  O
  O59      1.0000 0.50575  0.99321  0.89642  Biso   1.000  O
  N122     1.0000 0.57127  0.04241  0.88493  Biso   1.000  N
  H179     1.0000 0.61268  0.99395  0.91562  Biso   1.000  H
  C174     1.0000 0.61017  0.04587  0.87424  Biso   1.000  C
  C175     1.0000 0.36613  0.96263  0.27444  Biso   1.000  C
  C176     1.0000 0.36615  0.96263  0.27444  Biso   1.000  C
  C177     1.0000 0.38984  0.95412  0.12576  Biso   1.000  C
  C178     1.0000 0.45870  0.99568  0.11500  Biso   1.000  C
  C179     1.0000 0.45869  0.99565  0.11500  Biso   1.000  C
  O60      1.0000 0.65253  0.04551  0.64882  Biso   1.000  O
  N123     1.0000 0.62964  0.06361  0.78339  Biso   1.000  N
  O61      1.0000 0.65252  0.04548  0.64882  Biso   1.000  O
  C180     1.0000 0.56644  0.07519  0.91904  Biso   1.000  C
  H180     1.0000 0.62777  0.05920  0.93148  Biso   1.000  H
  O62      1.0000 0.34750  0.95451  0.35118  Biso   1.000  O
  N124     1.0000 0.38589  0.99952  0.23232  Biso   1.000  N
  C181     1.0000 0.40030  0.99824  0.13587  Biso   1.000  C
  C182     1.0000 0.40029  0.99821  0.13587  Biso   1.000  C
  H181     1.0000 0.37224  0.94078  0.06845  Biso   1.000  H
  N125     1.0000 0.44299  0.01979  0.12765  Biso   1.000  N
  O63      1.0000 0.49426  0.00678  0.10351  Biso   1.000  O
  C183     1.0000 0.65530  0.10606  0.77342  Biso   1.000  C
  N126     1.0000 0.57218  0.10368  0.84303  Biso   1.000  N
  H182     1.0000 0.58575  0.08915  0.97192  Biso   1.000  H
  N127     1.0000 0.57221  0.10368  0.84303  Biso   1.000  N
  H183     1.0000 0.53934  0.06423  0.94646  Biso   1.000  H
  C184     1.0000 0.37903  0.03164  0.26273  Biso   1.000  C
  C185     1.0000 0.37908  0.03164  0.26273  Biso   1.000  C
  H184     1.0000 0.38734  0.00604  0.08438  Biso   1.000  H
  C186     1.0000 0.46499  0.06182  0.10663  Biso   1.000  C
  C187     1.0000 0.46504  0.06182  0.10663  Biso   1.000  C
  N128     1.0000 0.63394  0.12681  0.74993  Biso   1.000  N
  H185     1.0000 0.67009  0.11692  0.83503  Biso   1.000  H
  H186     1.0000 0.67504  0.11130  0.72163  Biso   1.000  H
  C188     1.0000 0.54363  0.11329  0.82281  Biso   1.000  C
  C189     1.0000 0.54361  0.11326  0.82281  Biso   1.000  C
  C190     1.0000 0.61189  0.13612  0.82019  Biso   1.000  C
  N129     1.0000 0.41467  0.06709  0.29459  Biso   1.000  N
  N130     1.0000 0.41471  0.06706  0.29459  Biso   1.000  N
  H187     1.0000 0.36724  0.03863  0.20767  Biso   1.000  H
  H188     1.0000 0.35943  0.02193  0.31656  Biso   1.000  H
  H189     1.0000 0.45017  0.06822  0.05812  Biso   1.000  H
  N131     1.0000 0.47201  0.08617  0.19145  Biso   1.000  N
  H190     1.0000 0.49097  0.06852  0.07732  Biso   1.000  H
  N132     1.0000 0.47204  0.08617  0.19145  Biso   1.000  N
  C191     1.0000 0.63925  0.14631  0.66388  Biso   1.000  C
  O64      1.0000 0.50874  0.09492  0.84652  Biso   1.000  O
  N133     1.0000 0.56128  0.14845  0.77146  Biso   1.000  N
  H191     1.0000 0.62786  0.14812  0.88064  Biso   1.000  H
  C192     1.0000 0.60397  0.16622  0.76542  Biso   1.000  C
  C193     1.0000 0.60399  0.16622  0.76542  Biso   1.000  C
  C194     1.0000 0.41863  0.08284  0.38515  Biso   1.000  C
  C195     1.0000 0.44276  0.09600  0.22585  Biso   1.000  C
  C196     1.0000 0.50974  0.11347  0.22025  Biso   1.000  C
  O65      1.0000 0.65904  0.14642  0.59543  Biso   1.000  O
  N134     1.0000 0.61923  0.16726  0.66904  Biso   1.000  N
  O66      1.0000 0.65902  0.14640  0.59543  Biso   1.000  O
  C197     1.0000 0.54035  0.16950  0.74985  Biso   1.000  C
  C198     1.0000 0.54039  0.16947  0.74985  Biso   1.000  C
  H192     1.0000 0.61798  0.19301  0.79692  Biso   1.000  H
  O67      1.0000 0.39723  0.06566  0.45476  Biso   1.000  O
  N135     1.0000 0.45016  0.12094  0.38515  Biso   1.000  N
  O68      1.0000 0.39726  0.06563  0.45476  Biso   1.000  O
  N136     1.0000 0.45019  0.12091  0.38515  Biso   1.000  N
  C199     1.0000 0.46760  0.13345  0.28986  Biso   1.000  C
  H193     1.0000 0.42908  0.10133  0.17122  Biso   1.000  H
  C200     1.0000 0.46758  0.13342  0.28986  Biso   1.000  C
  O69      1.0000 0.54032  0.11410  0.19399  Biso   1.000  O
  N137     1.0000 0.50786  0.14008  0.28171  Biso   1.000  N
  C201     1.0000 0.62422  0.19647  0.59711  Biso   1.000  C
  C202     1.0000 0.62426  0.19644  0.59711  Biso   1.000  C
  H194     1.0000 0.55673  0.19736  0.77197  Biso   1.000  H
  N138     1.0000 0.53112  0.16944  0.64817  Biso   1.000  N
  H195     1.0000 0.51526  0.15726  0.78746  Biso   1.000  H
  C203     1.0000 0.45816  0.14887  0.46356  Biso   1.000  C
  C204     1.0000 0.45821  0.14887  0.46356  Biso   1.000  C
  H196     1.0000 0.46575  0.15681  0.26593  Biso   1.000  H
  C205     1.0000 0.54284  0.17622  0.31139  Biso   1.000  C
  N139     1.0000 0.58804  0.18649  0.54422  Biso   1.000  N
  H197     1.0000 0.63394  0.22251  0.62969  Biso   1.000  H
  H198     1.0000 0.64487  0.19941  0.55012  Biso   1.000  H
  N140     1.0000 0.58805  0.18646  0.54422  Biso   1.000  N
  H199     1.0000 0.63397  0.22251  0.62969  Biso   1.000  H
  C206     1.0000 0.55923  0.19673  0.57768  Biso   1.000  C
  C207     1.0000 0.49308  0.14946  0.61303  Biso   1.000  C
  N141     1.0000 0.49405  0.15887  0.51673  Biso   1.000  N
  H200     1.0000 0.43534  0.13726  0.50924  Biso   1.000  H
  H201     1.0000 0.46043  0.17345  0.43635  Biso   1.000  H
  N142     1.0000 0.55146  0.17789  0.41359  Biso   1.000  N
  H202     1.0000 0.53928  0.19912  0.29466  Biso   1.000  H
  H203     1.0000 0.56598  0.17914  0.27422  Biso   1.000  H
  N143     1.0000 0.55151  0.17789  0.41359  Biso   1.000  N
  H204     1.0000 0.56599  0.17911  0.27422  Biso   1.000  H
  C208     1.0000 0.58409  0.17694  0.44712  Biso   1.000  C
  O70      1.0000 0.46340  0.12731  0.66002  Biso   1.000  O
  C209     1.0000 0.53303  0.18992  0.48640  Biso   1.000  C
  H205     1.0000 0.57219  0.22493  0.60074  Biso   1.000  H
  C210     1.0000 0.53304  0.18989  0.48640  Biso   1.000  C
  O71      1.0000 0.60633  0.16970  0.39984  Biso   1.000  O
  H206     1.0000 0.53288  0.21471  0.46705  Biso   1.000  H
  C211     1.0000 0.19648  0.57224  0.40282  Biso   1.000  C
  N144     1.0000 0.16729  0.54804  0.33096  Biso   1.000  N
  H207     1.0000 0.22253  0.58856  0.37024  Biso   1.000  H
  N145     1.0000 0.18648  0.59844  0.45578  Biso   1.000  N
  N146     1.0000 0.18651  0.59844  0.45578  Biso   1.000  N
  H208     1.0000 0.19945  0.55456  0.44988  Biso   1.000  H
  C212     1.0000 0.14633  0.50705  0.33605  Biso   1.000  C
  C213     1.0000 0.16624  0.56224  0.23458  Biso   1.000  C
  C214     1.0000 0.19674  0.63753  0.42224  Biso   1.000  C
  C215     1.0000 0.17697  0.59287  0.55288  Biso   1.000  C
  C216     1.0000 0.17700  0.59287  0.55288  Biso   1.000  C
  N147     1.0000 0.12684  0.49288  0.25007  Biso   1.000  N
  O72      1.0000 0.14643  0.48740  0.40457  Biso   1.000  O
  C217     1.0000 0.13617  0.52426  0.17974  Biso   1.000  C
  N148     1.0000 0.14845  0.58719  0.22854  Biso   1.000  N
  H209     1.0000 0.19305  0.57507  0.20308  Biso   1.000  H
  N149     1.0000 0.14848  0.58719  0.22854  Biso   1.000  N
  N150     1.0000 0.16946  0.63833  0.35183  Biso   1.000  N
  N151     1.0000 0.16948  0.63833  0.35183  Biso   1.000  N
  H210     1.0000 0.22494  0.65277  0.39926  Biso   1.000  H
  C218     1.0000 0.18992  0.65688  0.51353  Biso   1.000  C
  N152     1.0000 0.17792  0.62642  0.58634  Biso   1.000  N
  O73      1.0000 0.16971  0.56340  0.60016  Biso   1.000  O
  O74      1.0000 0.16974  0.56340  0.60016  Biso   1.000  O
  C219     1.0000 0.10611  0.45079  0.22658  Biso   1.000  C
  H211     1.0000 0.14814  0.52027  0.11936  Biso   1.000  H
  N153     1.0000 0.10369  0.53149  0.15690  Biso   1.000  N
  C220     1.0000 0.11330  0.56968  0.17712  Biso   1.000  C
  C221     1.0000 0.16950  0.62913  0.25015  Biso   1.000  C
  C222     1.0000 0.14949  0.65640  0.38689  Biso   1.000  C
  N154     1.0000 0.15888  0.66483  0.48320  Biso   1.000  N
  H212     1.0000 0.21475  0.68188  0.53295  Biso   1.000  H
  C223     1.0000 0.17626  0.63342  0.68854  Biso   1.000  C
  N155     1.0000 0.06363  0.43400  0.21654  Biso   1.000  N
  H213     1.0000 0.11693  0.44686  0.16497  Biso   1.000  H
  H214     1.0000 0.11135  0.43626  0.27837  Biso   1.000  H
  C224     1.0000 0.07521  0.50878  0.08096  Biso   1.000  C
  O75      1.0000 0.09494  0.58624  0.15340  Biso   1.000  O
  O76      1.0000 0.09497  0.58624  0.15340  Biso   1.000  O
  H215     1.0000 0.19736  0.64062  0.22803  Biso   1.000  H
  H216     1.0000 0.15727  0.64205  0.21254  Biso   1.000  H
  H217     1.0000 0.15729  0.64205  0.21254  Biso   1.000  H
  O77      1.0000 0.12734  0.66396  0.33990  Biso   1.000  O
  C225     1.0000 0.14887  0.69069  0.53644  Biso   1.000  C
  C226     1.0000 0.14890  0.69069  0.53644  Biso   1.000  C
  N156     1.0000 0.14011  0.63223  0.71821  Biso   1.000  N
  H218     1.0000 0.17913  0.61318  0.72578  Biso   1.000  H
  H219     1.0000 0.19916  0.65988  0.70534  Biso   1.000  H
  H220     1.0000 0.17916  0.61318  0.72578  Biso   1.000  H
  C227     1.0000 0.03738  0.40352  0.27444  Biso   1.000  C
  C228     1.0000 0.04588  0.43573  0.12576  Biso   1.000  C
  C229     1.0000 0.04591  0.43573  0.12576  Biso   1.000  C
  N157     1.0000 0.04244  0.47118  0.11500  Biso   1.000  N
  N158     1.0000 0.04247  0.47118  0.11500  Biso   1.000  N
  H221     1.0000 0.06427  0.52494  0.05354  Biso   1.000  H
  H222     1.0000 0.08918  0.50345  0.02800  Biso   1.000  H
  N159     1.0000 0.12095  0.67078  0.61478  Biso   1.000  N
  H223     1.0000 0.13728  0.70195  0.49069  Biso   1.000  H
  H224     1.0000 0.17348  0.71305  0.56365  Biso   1.000  H
  C230     1.0000 0.11349  0.60374  0.77975  Biso   1.000  C
  C231     1.0000 0.13344  0.66587  0.71014  Biso   1.000  C
  N160     1.0000 0.00048  0.38637  0.23232  Biso   1.000  N
  O78      1.0000 0.04551  0.39301  0.35118  Biso   1.000  O
  O79      1.0000 0.04553  0.39301  0.35118  Biso   1.000  O
  C232     1.0000 0.00179  0.40209  0.13587  Biso   1.000  C
  C233     1.0000 0.00181  0.40209  0.13587  Biso   1.000  C
  H225     1.0000 0.05925  0.43147  0.06845  Biso   1.000  H
  C234     1.0000 0.00437  0.46305  0.11500  Biso   1.000  C
  C235     1.0000 0.08287  0.66423  0.61478  Biso   1.000  C
  O80      1.0000 0.11410  0.57382  0.80594  Biso   1.000  O
  N161     1.0000 0.08618  0.61419  0.80855  Biso   1.000  N
  O81      1.0000 0.11413  0.57382  0.80594  Biso   1.000  O
  N162     1.0000 0.08621  0.61419  0.80855  Biso   1.000  N
  C236     1.0000 0.09602  0.65325  0.77415  Biso   1.000  C
  H226     1.0000 0.15683  0.69108  0.73407  Biso   1.000  H
  H227     1.0000 0.15685  0.69108  0.73407  Biso   1.000  H
  C237     1.0000 0.96836  0.34740  0.26273  Biso   1.000  C
  H228     1.0000 0.99393  0.38128  0.08438  Biso   1.000  H
  N163     1.0000 0.98019  0.42319  0.12765  Biso   1.000  N
  O82      1.0000 0.99320  0.48746  0.10351  Biso   1.000  O
  N164     1.0000 0.06709  0.65241  0.70541  Biso   1.000  N
  O83      1.0000 0.06568  0.66843  0.54524  Biso   1.000  O
  C238     1.0000 0.06186  0.59683  0.89337  Biso   1.000  C
  H229     1.0000 0.10133  0.67227  0.82878  Biso   1.000  H
  H230     1.0000 0.10135  0.67227  0.82878  Biso   1.000  H
  H231     1.0000 0.96133  0.32856  0.20767  Biso   1.000  H
  H232     1.0000 0.97803  0.33746  0.31656  Biso   1.000  H
  N165     1.0000 0.93294  0.34761  0.29459  Biso   1.000  N
  C239     1.0000 0.93817  0.40319  0.10663  Biso   1.000  C
  C240     1.0000 0.03165  0.65259  0.73720  Biso   1.000  C
  H233     1.0000 0.06854  0.57757  0.92261  Biso   1.000  H
  H234     1.0000 0.06824  0.61806  0.94181  Biso   1.000  H
  N166     1.0000 0.01979  0.57680  0.87235  Biso   1.000  N
  N167     1.0000 0.01982  0.57680  0.87235  Biso   1.000  N
  C241     1.0000 0.91715  0.33579  0.38515  Biso   1.000  C
  C242     1.0000 0.90401  0.34678  0.22585  Biso   1.000  C
  N168     1.0000 0.91382  0.38583  0.19145  Biso   1.000  N
  H235     1.0000 0.93148  0.42245  0.07732  Biso   1.000  H
  H236     1.0000 0.93177  0.38193  0.05812  Biso   1.000  H
  H237     1.0000 0.03867  0.67143  0.79233  Biso   1.000  H
  N169     1.0000 0.99953  0.61362  0.76760  Biso   1.000  N
  H238     1.0000 0.02198  0.66253  0.68344  Biso   1.000  H
  C243     1.0000 0.99563  0.53694  0.88493  Biso   1.000  C
  C244     1.0000 0.99820  0.59791  0.86413  Biso   1.000  C
  O84      1.0000 0.93432  0.33156  0.45476  Biso   1.000  O
  N170     1.0000 0.87908  0.32924  0.38515  Biso   1.000  N
  H239     1.0000 0.89866  0.32772  0.17122  Biso   1.000  H
  C245     1.0000 0.86656  0.33412  0.28986  Biso   1.000  C
  C246     1.0000 0.88652  0.39625  0.22025  Biso   1.000  C
  C247     1.0000 0.96263  0.59648  0.72549  Biso   1.000  C
  O85      1.0000 0.00683  0.51256  0.89642  Biso   1.000  O
  N171     1.0000 0.95756  0.52884  0.88493  Biso   1.000  N
  C248     1.0000 0.95410  0.56427  0.87424  Biso   1.000  C
  H240     1.0000 0.00606  0.61874  0.91562  Biso   1.000  H
  H241     1.0000 0.00609  0.61874  0.91562  Biso   1.000  H
  C249     1.0000 0.85111  0.30930  0.46356  Biso   1.000  C
  N172     1.0000 0.85991  0.36779  0.28171  Biso   1.000  N
  H242     1.0000 0.84317  0.30894  0.26593  Biso   1.000  H
  O86      1.0000 0.88589  0.42620  0.19399  Biso   1.000  O
  O87      1.0000 0.95449  0.60701  0.64882  Biso   1.000  O
  N173     1.0000 0.93638  0.56599  0.78339  Biso   1.000  N
  C250     1.0000 0.92479  0.49121  0.91904  Biso   1.000  C
  H243     1.0000 0.94076  0.56852  0.93148  Biso   1.000  H
  N174     1.0000 0.84112  0.33517  0.51673  Biso   1.000  N
  H244     1.0000 0.86274  0.29807  0.50924  Biso   1.000  H
  H245     1.0000 0.82654  0.28697  0.43635  Biso   1.000  H
  C251     1.0000 0.82375  0.36657  0.31139  Biso   1.000  C
  C252     1.0000 0.89392  0.54923  0.77342  Biso   1.000  C
  N175     1.0000 0.89629  0.46850  0.84303  Biso   1.000  N
  H246     1.0000 0.93573  0.47508  0.94646  Biso   1.000  H
  H247     1.0000 0.91085  0.49657  0.97192  Biso   1.000  H
  H248     1.0000 0.93575  0.47508  0.94646  Biso   1.000  H
  C253     1.0000 0.85049  0.34359  0.61303  Biso   1.000  C
  C254     1.0000 0.81009  0.34311  0.48640  Biso   1.000  C
  N176     1.0000 0.82211  0.37360  0.41359  Biso   1.000  N
  H249     1.0000 0.80087  0.34014  0.29466  Biso   1.000  H
  H250     1.0000 0.82087  0.38685  0.27422  Biso   1.000  H
  N177     1.0000 0.87318  0.50714  0.74993  Biso   1.000  N
  H251     1.0000 0.88866  0.56373  0.72163  Biso   1.000  H
  H252     1.0000 0.88308  0.55313  0.83503  Biso   1.000  H
  C255     1.0000 0.88671  0.43031  0.82281  Biso   1.000  C
  C256     1.0000 0.86386  0.47576  0.82019  Biso   1.000  C
  O88      1.0000 0.87266  0.33606  0.66002  Biso   1.000  O
  N178     1.0000 0.83052  0.36166  0.64817  Biso   1.000  N
  O89      1.0000 0.87269  0.33606  0.66002  Biso   1.000  O
  C257     1.0000 0.80324  0.36246  0.57768  Biso   1.000  C
  H253     1.0000 0.78528  0.31814  0.46705  Biso   1.000  H
  C258     1.0000 0.80326  0.36246  0.57768  Biso   1.000  C
  C259     1.0000 0.82303  0.40715  0.44712  Biso   1.000  C
  C260     1.0000 0.85368  0.49294  0.66388  Biso   1.000  C
  N179     1.0000 0.85155  0.41283  0.77146  Biso   1.000  N
  O90      1.0000 0.90505  0.41379  0.84652  Biso   1.000  O
  C261     1.0000 0.83377  0.43775  0.76542  Biso   1.000  C
  H254     1.0000 0.85187  0.47972  0.88064  Biso   1.000  H
  C262     1.0000 0.83050  0.37089  0.74985  Biso   1.000  C
  C263     1.0000 0.83052  0.37089  0.74985  Biso   1.000  C
  N180     1.0000 0.81352  0.40158  0.54422  Biso   1.000  N
  H255     1.0000 0.77507  0.34722  0.60074  Biso   1.000  H
  O91      1.0000 0.83027  0.43659  0.39984  Biso   1.000  O
  N181     1.0000 0.83273  0.45198  0.66904  Biso   1.000  N
  O92      1.0000 0.85359  0.51262  0.59543  Biso   1.000  O
  H256     1.0000 0.80697  0.42495  0.79692  Biso   1.000  H
  H257     1.0000 0.84273  0.35797  0.78746  Biso   1.000  H
  H258     1.0000 0.80264  0.35937  0.77197  Biso   1.000  H
  C264     1.0000 0.80354  0.42778  0.59711  Biso   1.000  C
  H259     1.0000 0.80056  0.44543  0.55012  Biso   1.000  H
  H260     1.0000 0.77748  0.41143  0.62969  Biso   1.000  H
  C265     1.0000 0.36498  0.31927  0.40391  Biso   1.000  C
  N182     1.0000 0.33286  0.28030  0.43432  Biso   1.000  N
  N183     1.0000 0.40042  0.31906  0.37205  Biso   1.000  N
  H261     1.0000 0.37200  0.33811  0.45898  Biso   1.000  H
  H262     1.0000 0.35530  0.32921  0.35009  Biso   1.000  H
  C266     1.0000 0.29595  0.26316  0.39220  Biso   1.000  C
  C267     1.0000 0.33155  0.26458  0.53077  Biso   1.000  C
  C268     1.0000 0.42933  0.31990  0.44079  Biso   1.000  C
  C269     1.0000 0.41618  0.33088  0.28150  Biso   1.000  C
  O93      1.0000 0.28783  0.27366  0.31546  Biso   1.000  O
  N184     1.0000 0.26970  0.23267  0.45010  Biso   1.000  N
  C270     1.0000 0.28745  0.23095  0.54088  Biso   1.000  C
  N185     1.0000 0.35315  0.24348  0.53899  Biso   1.000  N
  H263     1.0000 0.33940  0.28539  0.58227  Biso   1.000  H
  N186     1.0000 0.41952  0.28084  0.47520  Biso   1.000  N
  C271     1.0000 0.46680  0.33255  0.37685  Biso   1.000  C
  H264     1.0000 0.43468  0.33895  0.49542  Biso   1.000  H
  O94      1.0000 0.39901  0.33511  0.21189  Biso   1.000  O
  N187     1.0000 0.45429  0.33743  0.28150  Biso   1.000  N
  C272     1.0000 0.22723  0.21588  0.44006  Biso   1.000  C
  N188     1.0000 0.29089  0.19549  0.55164  Biso   1.000  N
  H265     1.0000 0.27411  0.23520  0.59820  Biso   1.000  H
  C273     1.0000 0.32899  0.20362  0.55164  Biso   1.000  C
  C274     1.0000 0.39517  0.26348  0.56001  Biso   1.000  C
  C275     1.0000 0.44684  0.27042  0.44639  Biso   1.000  C
  N189     1.0000 0.47342  0.29888  0.38493  Biso   1.000  N
  H266     1.0000 0.49017  0.35773  0.40071  Biso   1.000  H
  C276     1.0000 0.48223  0.35737  0.20308  Biso   1.000  C
  N190     1.0000 0.20652  0.17379  0.41657  Biso   1.000  N
  H267     1.0000 0.21641  0.21981  0.50167  Biso   1.000  H
  H268     1.0000 0.22201  0.23041  0.38827  Biso   1.000  H
  C277     1.0000 0.25812  0.15789  0.58569  Biso   1.000  C
  O95      1.0000 0.34014  0.17921  0.56314  Biso   1.000  O
  H269     1.0000 0.40186  0.24422  0.58932  Biso   1.000  H
  H270     1.0000 0.40157  0.28474  0.60852  Biso   1.000  H
  O96      1.0000 0.44744  0.24047  0.47265  Biso   1.000  O
  C278     1.0000 0.50958  0.30010  0.35525  Biso   1.000  C
  N191     1.0000 0.49221  0.33150  0.14991  Biso   1.000  N
  H271     1.0000 0.47059  0.36860  0.15740  Biso   1.000  H
  H272     1.0000 0.50680  0.37970  0.23029  Biso   1.000  H
  C279     1.0000 0.18703  0.15962  0.33059  Biso   1.000  C
  C280     1.0000 0.19717  0.14241  0.48691  Biso   1.000  C
  N192     1.0000 0.22965  0.13518  0.50975  Biso   1.000  N
  H273     1.0000 0.26907  0.14173  0.61311  Biso   1.000  H
  H274     1.0000 0.24416  0.16322  0.63864  Biso   1.000  H
  N193     1.0000 0.51123  0.29307  0.25305  Biso   1.000  N
  H275     1.0000 0.53247  0.32653  0.37205  Biso   1.000  H
  H276     1.0000 0.51247  0.27983  0.39242  Biso   1.000  H
  C281     1.0000 0.52325  0.32356  0.18024  Biso   1.000  C
  C282     1.0000 0.48284  0.32308  0.05361  Biso   1.000  C
  O97      1.0000 0.18690  0.17927  0.26207  Biso   1.000  O
  N194     1.0000 0.16605  0.11863  0.33569  Biso   1.000  N
  H277     1.0000 0.18519  0.14640  0.54728  Biso   1.000  H
  C283     1.0000 0.16712  0.10443  0.43206  Biso   1.000  C
  C284     1.0000 0.22004  0.09699  0.48953  Biso   1.000  C
  C285     1.0000 0.51031  0.25952  0.21952  Biso   1.000  C
  C286     1.0000 0.53010  0.30421  0.08896  Biso   1.000  C
  H278     1.0000 0.54806  0.34853  0.19959  Biso   1.000  H
  O98      1.0000 0.46067  0.33061  0.00662  Biso   1.000  O
  N195     1.0000 0.50281  0.30501  0.01848  Biso   1.000  N
  C287     1.0000 0.13685  0.09443  0.26382  Biso   1.000  C
  N196     1.0000 0.18489  0.07948  0.43810  Biso   1.000  N
  H279     1.0000 0.14031  0.09160  0.46356  Biso   1.000  H
  O99      1.0000 0.23839  0.08044  0.51324  Biso   1.000  O
  O100     1.0000 0.50306  0.23008  0.26680  Biso   1.000  O
  N197     1.0000 0.51982  0.26509  0.12242  Biso   1.000  N
  H280     1.0000 0.55827  0.31945  0.06590  Biso   1.000  H
  C288     1.0000 0.50284  0.29578  0.91679  Biso   1.000  C
  N198     1.0000 0.14685  0.06823  0.21087  Biso   1.000  N
  H281     1.0000 0.11080  0.07811  0.29641  Biso   1.000  H
  H282     1.0000 0.13391  0.11211  0.21676  Biso   1.000  H
  C289     1.0000 0.16384  0.03754  0.41650  Biso   1.000  C
  C290     1.0000 0.52980  0.23889  0.06954  Biso   1.000  C
  N199     1.0000 0.48179  0.25384  0.89518  Biso   1.000  N
  H283     1.0000 0.49061  0.30870  0.87918  Biso   1.000  H
  H284     1.0000 0.53072  0.30730  0.89468  Biso   1.000  H
  C291     1.0000 0.15637  0.07380  0.11376  Biso   1.000  C
  C292     1.0000 0.13659  0.02914  0.24440  Biso   1.000  C
  N200     1.0000 0.16388  0.02834  0.31481  Biso   1.000  N
  H285     1.0000 0.17607  0.02462  0.45410  Biso   1.000  H
  H286     1.0000 0.13597  0.02605  0.43861  Biso   1.000  H
  H287     1.0000 0.55588  0.25524  0.03695  Biso   1.000  H
  H288     1.0000 0.53278  0.22124  0.11653  Biso   1.000  H
  N201     1.0000 0.50060  0.21469  0.99760  Biso   1.000  N
  C293     1.0000 0.49957  0.22892  0.90122  Biso   1.000  C
  C294     1.0000 0.44663  0.23636  0.84383  Biso   1.000  C
  O101     1.0000 0.16362  0.10327  0.06648  Biso   1.000  O
  N202     1.0000 0.15542  0.04025  0.08030  Biso   1.000  N
  H289     1.0000 0.10840  0.01390  0.26738  Biso   1.000  H
  C295     1.0000 0.14342  0.00979  0.15311  Biso   1.000  C
  C296     1.0000 0.18385  0.01027  0.27975  Biso   1.000  C
  C297     1.0000 0.47966  0.17373  0.00276  Biso   1.000  C
  C298     1.0000 0.46948  0.19091  0.84645  Biso   1.000  C
  H290     1.0000 0.52636  0.24172  0.86973  Biso   1.000  H
  O102     1.0000 0.42828  0.25289  0.82012  Biso   1.000  O
  N203     1.0000 0.43704  0.19817  0.82361  Biso   1.000  N
  C299     1.0000 0.15710  0.03325  0.97811  Biso   1.000  C
  N204     1.0000 0.17445  0.00185  0.18344  Biso   1.000  N
  H291     1.0000 0.11858  0.98482  0.13369  Biso   1.000  H
  O103     1.0000 0.20600  0.00271  0.32674  Biso   1.000  O
  O104     1.0000 0.47974  0.15405  0.07121  Biso   1.000  O
  N205     1.0000 0.46016  0.15953  0.91672  Biso   1.000  N
  H292     1.0000 0.48147  0.18695  0.78601  Biso   1.000  H
  C300     1.0000 0.40854  0.17546  0.74760  Biso   1.000  C
  N206     1.0000 0.19322  0.03444  0.94843  Biso   1.000  N
  H293     1.0000 0.13420  0.00679  0.96130  Biso   1.000  H
  H294     1.0000 0.15421  0.05349  0.94094  Biso   1.000  H
  C301     1.0000 0.18445  0.97601  0.13020  Biso   1.000  C
  C302     1.0000 0.43942  0.11744  0.89322  Biso   1.000  C
  N207     1.0000 0.37578  0.13783  0.78171  Biso   1.000  N
  H295     1.0000 0.39761  0.19159  0.72018  Biso   1.000  H
  H296     1.0000 0.42249  0.17010  0.69472  Biso   1.000  H
  C303     1.0000 0.21984  0.06293  0.88689  Biso   1.000  C
  C304     1.0000 0.19989  0.00080  0.95650  Biso   1.000  C
  N208     1.0000 0.21240  0.99592  0.05186  Biso   1.000  N
  H297     1.0000 0.19607  0.96475  0.17595  Biso   1.000  H
  H298     1.0000 0.15984  0.95365  0.10300  Biso   1.000  H
  N209     1.0000 0.39696  0.10068  0.88326  Biso   1.000  N
  H299     1.0000 0.45028  0.11354  0.83161  Biso   1.000  H
  H300     1.0000 0.44467  0.10294  0.94501  Biso   1.000  H
  C305     1.0000 0.37923  0.10240  0.79241  Biso   1.000  C
  C306     1.0000 0.33770  0.12973  0.78171  Biso   1.000  C
  O105     1.0000 0.21923  0.09285  0.86071  Biso   1.000  O
  N210     1.0000 0.24715  0.05248  0.85809  Biso   1.000  N
  H301     1.0000 0.17650  0.97562  0.93257  Biso   1.000  H
  C307     1.0000 0.23732  0.01343  0.89249  Biso   1.000  C
  C308     1.0000 0.25047  0.00244  0.05186  Biso   1.000  C
  C309     1.0000 0.37071  0.07019  0.94116  Biso   1.000  C
  C310     1.0000 0.33514  0.06877  0.80252  Biso   1.000  C
  H302     1.0000 0.39257  0.09815  0.73516  Biso   1.000  H
  N211     1.0000 0.31354  0.08987  0.79430  Biso   1.000  N
  O106     1.0000 0.32651  0.15411  0.77022  Biso   1.000  O
  C311     1.0000 0.27151  0.06984  0.77328  Biso   1.000  C
  H303     1.0000 0.23200  0.99443  0.83794  Biso   1.000  H
  N212     1.0000 0.26625  0.01426  0.96123  Biso   1.000  N
  O107     1.0000 0.26767  0.99827  0.12140  Biso   1.000  O
  N213     1.0000 0.33383  0.05305  0.89904  Biso   1.000  N
  O108     1.0000 0.37884  0.05966  0.01782  Biso   1.000  O
  H304     1.0000 0.32727  0.04793  0.75102  Biso   1.000  H
  H305     1.0000 0.26479  0.08910  0.74404  Biso   1.000  H
  H306     1.0000 0.26510  0.04861  0.72483  Biso   1.000  H
  C312     1.0000 0.30169  0.01408  0.92944  Biso   1.000  C
  H307     1.0000 0.29465  0.99527  0.87431  Biso   1.000  H
  H308     1.0000 0.31138  0.00414  0.98320  Biso   1.000  H
  O109     1.0000 0.68081  0.62116  0.01782  Biso   1.000  O
  C313     1.0000 0.69947  0.62928  0.94116  Biso   1.000  C
  N214     1.0000 0.70370  0.60306  0.88326  Biso   1.000  N
  N215     1.0000 0.71924  0.66620  0.89904  Biso   1.000  N
  C314     1.0000 0.67803  0.56058  0.89322  Biso   1.000  C
  C315     1.0000 0.72316  0.62077  0.79241  Biso   1.000  C
  C316     1.0000 0.73364  0.66489  0.80252  Biso   1.000  C
  C317     1.0000 0.71238  0.69832  0.92944  Biso   1.000  C
  N216     1.0000 0.69941  0.53986  0.91672  Biso   1.000  N
  H309     1.0000 0.66328  0.54974  0.83161  Biso   1.000  H
  H310     1.0000 0.65827  0.55534  0.94501  Biso   1.000  H
  H311     1.0000 0.70556  0.60743  0.73516  Biso   1.000  H
  N217     1.0000 0.76206  0.62422  0.78171  Biso   1.000  N
  H312     1.0000 0.72068  0.67274  0.75102  Biso   1.000  H
  N218     1.0000 0.77635  0.68647  0.79430  Biso   1.000  N
  N219     1.0000 0.74802  0.73377  0.96123  Biso   1.000  N
  H313     1.0000 0.70058  0.70534  0.87431  Biso   1.000  H
  H314     1.0000 0.69277  0.68864  0.98320  Biso   1.000  H
  C318     1.0000 0.69409  0.52036  0.00276  Biso   1.000  C
  C319     1.0000 0.72144  0.53051  0.84645  Biso   1.000  C
  C320     1.0000 0.76693  0.59148  0.74760  Biso   1.000  C
  C321     1.0000 0.79204  0.66233  0.78171  Biso   1.000  C
  C322     1.0000 0.79834  0.72850  0.77328  Biso   1.000  C
  C323     1.0000 0.75198  0.74952  0.05186  Biso   1.000  C
  C324     1.0000 0.77611  0.76268  0.89249  Biso   1.000  C
  O110     1.0000 0.67431  0.52024  0.07121  Biso   1.000  O
  N220     1.0000 0.71411  0.49940  0.99760  Biso   1.000  N
  C325     1.0000 0.72935  0.50044  0.90122  Biso   1.000  C
  H315     1.0000 0.70548  0.51854  0.78601  Biso   1.000  H
  N221     1.0000 0.76114  0.56299  0.82361  Biso   1.000  N
  H316     1.0000 0.79399  0.60240  0.72018  Biso   1.000  H
  H317     1.0000 0.74760  0.57751  0.69472  Biso   1.000  H
  O111     1.0000 0.82761  0.67349  0.77022  Biso   1.000  O
  N222     1.0000 0.80534  0.75285  0.85809  Biso   1.000  N
  H318     1.0000 0.82430  0.73520  0.74404  Biso   1.000  H
  H319     1.0000 0.78350  0.73490  0.72483  Biso   1.000  H
  O112     1.0000 0.73058  0.73234  0.12140  Biso   1.000  O
  N223     1.0000 0.78351  0.78762  0.05186  Biso   1.000  N
  C326     1.0000 0.80092  0.80012  0.95650  Biso   1.000  C
  H320     1.0000 0.76241  0.76800  0.83794  Biso   1.000  H
  C327     1.0000 0.70910  0.47020  0.06954  Biso   1.000  C
  H321     1.0000 0.71539  0.47365  0.86973  Biso   1.000  H
  N224     1.0000 0.77206  0.51821  0.89518  Biso   1.000  N
  C328     1.0000 0.78974  0.55337  0.84383  Biso   1.000  C
  C329     1.0000 0.84310  0.78018  0.88689  Biso   1.000  C
  C330     1.0000 0.79152  0.81555  0.13020  Biso   1.000  C
  N225     1.0000 0.84121  0.80676  0.94843  Biso   1.000  N
  H322     1.0000 0.79910  0.82349  0.93257  Biso   1.000  H
  N226     1.0000 0.74528  0.48017  0.12242  Biso   1.000  N
  H323     1.0000 0.69938  0.44415  0.03695  Biso   1.000  H
  H324     1.0000 0.68847  0.46725  0.11653  Biso   1.000  H
  C331     1.0000 0.79297  0.49717  0.91679  Biso   1.000  C
  O113     1.0000 0.82463  0.57174  0.82012  Biso   1.000  O
  O114     1.0000 0.87364  0.78078  0.86071  Biso   1.000  O
  N227     1.0000 0.82738  0.82555  0.18344  Biso   1.000  N
  H325     1.0000 0.76867  0.80394  0.17595  Biso   1.000  H
  H326     1.0000 0.79378  0.84013  0.10300  Biso   1.000  H
  C332     1.0000 0.87617  0.84290  0.97811  Biso   1.000  C
  C333     1.0000 0.74922  0.48970  0.21952  Biso   1.000  C
  C334     1.0000 0.77411  0.46993  0.08896  Biso   1.000  C
  N228     1.0000 0.80221  0.49720  0.01848  Biso   1.000  N
  H327     1.0000 0.81811  0.50940  0.87918  Biso   1.000  H
  H328     1.0000 0.77661  0.46930  0.89468  Biso   1.000  H
  C335     1.0000 0.82643  0.81617  0.27975  Biso   1.000  C
  C336     1.0000 0.86636  0.85660  0.15311  Biso   1.000  C
  N229     1.0000 0.88481  0.84457  0.08030  Biso   1.000  N
  H329     1.0000 0.87261  0.86579  0.96130  Biso   1.000  H
  H330     1.0000 0.89931  0.84582  0.94094  Biso   1.000  H
  O115     1.0000 0.72702  0.49696  0.26680  Biso   1.000  O
  N230     1.0000 0.78186  0.48877  0.25305  Biso   1.000  N
  H331     1.0000 0.76118  0.44174  0.06590  Biso   1.000  H
  C337     1.0000 0.80031  0.47675  0.18024  Biso   1.000  C
  C338     1.0000 0.84025  0.51717  0.05361  Biso   1.000  C
  O116     1.0000 0.79672  0.79399  0.32674  Biso   1.000  O
  N231     1.0000 0.86449  0.83615  0.31481  Biso   1.000  N
  C339     1.0000 0.89256  0.86341  0.24440  Biso   1.000  C
  H332     1.0000 0.86620  0.88139  0.13369  Biso   1.000  H
  C340     1.0000 0.91745  0.84365  0.11376  Biso   1.000  C
  C341     1.0000 0.79053  0.49044  0.35525  Biso   1.000  C
  H333     1.0000 0.80047  0.45195  0.19959  Biso   1.000  H
  N232     1.0000 0.83930  0.50780  0.14991  Biso   1.000  N
  O117     1.0000 0.86995  0.53935  0.00662  Biso   1.000  O
  C342     1.0000 0.87371  0.83617  0.41650  Biso   1.000  C
  N233     1.0000 0.92139  0.85317  0.21087  Biso   1.000  N
  H334     1.0000 0.90549  0.89160  0.26738  Biso   1.000  H
  O118     1.0000 0.93965  0.83638  0.06648  Biso   1.000  O
  N234     1.0000 0.82546  0.52658  0.38493  Biso   1.000  N
  H335     1.0000 0.79409  0.46755  0.37205  Biso   1.000  H
  H336     1.0000 0.76736  0.48752  0.39242  Biso   1.000  H
  C343     1.0000 0.87516  0.51780  0.20308  Biso   1.000  C
  N235     1.0000 0.89461  0.81513  0.43810  Biso   1.000  N
  H337     1.0000 0.84856  0.82394  0.45410  Biso   1.000  H
  H338     1.0000 0.89006  0.86404  0.43861  Biso   1.000  H
  C344     1.0000 0.95757  0.86315  0.26382  Biso   1.000  C
  C345     1.0000 0.82359  0.55316  0.44639  Biso   1.000  C
  C346     1.0000 0.86575  0.53322  0.37685  Biso   1.000  C
  N236     1.0000 0.88316  0.54572  0.28150  Biso   1.000  N
  H339     1.0000 0.89800  0.52941  0.15740  Biso   1.000  H
  H340     1.0000 0.87292  0.49321  0.23029  Biso   1.000  H
  C347     1.0000 0.87695  0.77997  0.48953  Biso   1.000  C
  C348     1.0000 0.93732  0.83290  0.43206  Biso   1.000  C
  N237     1.0000 0.95259  0.83394  0.33569  Biso   1.000  N
  H341     1.0000 0.96730  0.88919  0.29641  Biso   1.000  H
  H342     1.0000 0.97820  0.86609  0.21676  Biso   1.000  H
  O119     1.0000 0.79305  0.55257  0.47265  Biso   1.000  O
  N238     1.0000 0.86134  0.58049  0.47520  Biso   1.000  N
  H343     1.0000 0.86757  0.50985  0.40071  Biso   1.000  H
  C349     1.0000 0.89058  0.57067  0.44079  Biso   1.000  C
  C350     1.0000 0.91469  0.58382  0.28150  Biso   1.000  C
  N239     1.0000 0.90553  0.77036  0.50975  Biso   1.000  N
  O120     1.0000 0.84208  0.76163  0.51324  Biso   1.000  O
  C351     1.0000 0.94526  0.80283  0.48691  Biso   1.000  C
  H344     1.0000 0.95131  0.85969  0.46356  Biso   1.000  H
  C352     1.0000 0.97261  0.81298  0.33059  Biso   1.000  C
  C353     1.0000 0.86833  0.60484  0.56001  Biso   1.000  C
  H345     1.0000 0.90426  0.56534  0.49542  Biso   1.000  H
  N240     1.0000 0.91865  0.59957  0.37205  Biso   1.000  N
  O121     1.0000 0.93609  0.60100  0.21189  Biso   1.000  O
  C354     1.0000 0.89977  0.74187  0.58569  Biso   1.000  C
  N241     1.0000 0.96729  0.79349  0.41657  Biso   1.000  N
  H346     1.0000 0.96122  0.81480  0.54728  Biso   1.000  H
  O122     1.0000 0.99236  0.81310  0.26207  Biso   1.000  O
  N242     1.0000 0.89033  0.64688  0.53899  Biso   1.000  N
  H347     1.0000 0.84237  0.59814  0.58932  Biso   1.000  H
  H348     1.0000 0.88317  0.59844  0.60852  Biso   1.000  H
  C355     1.0000 0.95429  0.63503  0.40391  Biso   1.000  C
  N243     1.0000 0.90461  0.70912  0.55164  Biso   1.000  N
  H349     1.0000 0.87268  0.73094  0.61311  Biso   1.000  H
  H350     1.0000 0.91907  0.75583  0.63864  Biso   1.000  H
  C356     1.0000 0.98867  0.77277  0.44006  Biso   1.000  C
  C357     1.0000 0.87463  0.67102  0.55164  Biso   1.000  C
  C358     1.0000 0.93303  0.66846  0.53077  Biso   1.000  C
  N244     1.0000 0.94743  0.66715  0.43432  Biso   1.000  N
  H351     1.0000 0.96612  0.62800  0.45898  Biso   1.000  H
  H352     1.0000 0.97390  0.64470  0.35009  Biso   1.000  H
  C359     1.0000 0.94352  0.71257  0.54088  Biso   1.000  C
  N245     1.0000 0.96297  0.73029  0.45010  Biso   1.000  N
  H353     1.0000 0.00342  0.78360  0.50167  Biso   1.000  H
  H354     1.0000 0.00841  0.77801  0.38827  Biso   1.000  H
  O123     1.0000 0.83907  0.65985  0.56314  Biso   1.000  O
  H355     1.0000 0.94602  0.66060  0.58227  Biso   1.000  H
  C360     1.0000 0.96720  0.70406  0.39220  Biso   1.000  C
  H356     1.0000 0.96111  0.72591  0.59820  Biso   1.000  H
  O124     1.0000 0.98586  0.71219  0.31546  Biso   1.000  O
  C361     1.0000 0.30007  0.79051  0.64475  Biso   1.000  C
  N246     1.0000 0.29309  0.78185  0.74695  Biso   1.000  N
  N247     1.0000 0.29888  0.82546  0.61507  Biso   1.000  N
  H357     1.0000 0.32653  0.79408  0.62795  Biso   1.000  H
  H358     1.0000 0.27985  0.76738  0.60758  Biso   1.000  H
  C362     1.0000 0.25953  0.74922  0.78048  Biso   1.000  C
  C363     1.0000 0.32356  0.80030  0.81976  Biso   1.000  C
  C364     1.0000 0.27041  0.82358  0.55354  Biso   1.000  C
  C365     1.0000 0.33254  0.86576  0.62315  Biso   1.000  C
  O125     1.0000 0.23007  0.72701  0.73312  Biso   1.000  O
  N248     1.0000 0.26511  0.74529  0.87751  Biso   1.000  N
  C366     1.0000 0.30421  0.77414  0.91104  Biso   1.000  C
  N249     1.0000 0.33151  0.83930  0.85009  Biso   1.000  N
  H359     1.0000 0.34855  0.80048  0.80033  Biso   1.000  H
  O126     1.0000 0.24047  0.79304  0.52735  Biso   1.000  O
  N250     1.0000 0.28085  0.86133  0.52473  Biso   1.000  N
  N251     1.0000 0.33744  0.88318  0.71850  Biso   1.000  N
  H360     1.0000 0.35774  0.86758  0.59921  Biso   1.000  H
  C367     1.0000 0.31991  0.89056  0.55914  Biso   1.000  C
  C368     1.0000 0.23889  0.70909  0.93046  Biso   1.000  C
  N252     1.0000 0.30499  0.80221  0.98145  Biso   1.000  N
  H361     1.0000 0.31944  0.76119  0.93403  Biso   1.000  H
  C369     1.0000 0.32306  0.84025  0.94639  Biso   1.000  C
  C370     1.0000 0.35737  0.87514  0.79684  Biso   1.000  C
  C371     1.0000 0.26350  0.86833  0.43992  Biso   1.000  C
  C372     1.0000 0.33090  0.91470  0.71850  Biso   1.000  C
  N253     1.0000 0.31909  0.91866  0.62787  Biso   1.000  N
  H362     1.0000 0.33894  0.90429  0.50458  Biso   1.000  H
  H363     1.0000 0.25522  0.69936  0.96305  Biso   1.000  H
  H364     1.0000 0.22123  0.68846  0.88347  Biso   1.000  H
  N254     1.0000 0.21471  0.71409  0.00233  Biso   1.000  N
  C373     1.0000 0.29579  0.79298  0.08314  Biso   1.000  C
  O127     1.0000 0.33062  0.86996  0.99338  Biso   1.000  O
  H365     1.0000 0.36859  0.89800  0.84260  Biso   1.000  H
  H366     1.0000 0.37971  0.87291  0.76971  Biso   1.000  H
  N255     1.0000 0.24346  0.89032  0.46094  Biso   1.000  N
  H367     1.0000 0.24423  0.84237  0.41068  Biso   1.000  H
  H368     1.0000 0.28474  0.88318  0.39148  Biso   1.000  H
  O128     1.0000 0.33510  0.93611  0.78804  Biso   1.000  O
  C374     1.0000 0.31927  0.95430  0.59609  Biso   1.000  C
  C375     1.0000 0.17372  0.69409  0.99724  Biso   1.000  C
  C376     1.0000 0.22892  0.72936  0.09871  Biso   1.000  C
  N256     1.0000 0.25385  0.77205  0.10474  Biso   1.000  N
  H369     1.0000 0.30869  0.81811  0.12074  Biso   1.000  H
  H370     1.0000 0.30730  0.77661  0.10525  Biso   1.000  H
  C377     1.0000 0.26458  0.93304  0.46916  Biso   1.000  C
  C378     1.0000 0.20362  0.87464  0.44836  Biso   1.000  C
  N257     1.0000 0.28029  0.94745  0.56568  Biso   1.000  N
  H371     1.0000 0.33809  0.96612  0.54095  Biso   1.000  H
  H372     1.0000 0.32921  0.97391  0.64991  Biso   1.000  H
  O129     1.0000 0.15407  0.67432  0.92872  Biso   1.000  O
  N258     1.0000 0.15954  0.69939  0.08321  Biso   1.000  N
  C379     1.0000 0.19093  0.72145  0.15355  Biso   1.000  C
  H373     1.0000 0.24173  0.71537  0.13020  Biso   1.000  H
  C380     1.0000 0.23637  0.78974  0.15617  Biso   1.000  C
  H374     1.0000 0.28541  0.94602  0.41766  Biso   1.000  H
  C381     1.0000 0.23094  0.94352  0.45912  Biso   1.000  C
  O130     1.0000 0.17921  0.83906  0.43686  Biso   1.000  O
  N259     1.0000 0.19551  0.90461  0.44836  Biso   1.000  N
  C382     1.0000 0.26314  0.96719  0.60780  Biso   1.000  C
  C383     1.0000 0.11745  0.67801  0.10671  Biso   1.000  C
  N260     1.0000 0.19817  0.76113  0.17639  Biso   1.000  N
  H375     1.0000 0.18694  0.70546  0.21392  Biso   1.000  H
  O131     1.0000 0.25289  0.82462  0.17988  Biso   1.000  O
  N261     1.0000 0.23267  0.96296  0.54990  Biso   1.000  N
  H376     1.0000 0.23520  0.96111  0.40180  Biso   1.000  H
  C384     1.0000 0.15789  0.89976  0.41424  Biso   1.000  C
  O132     1.0000 0.27366  0.98585  0.68446  Biso   1.000  O
  N262     1.0000 0.10067  0.70370  0.11674  Biso   1.000  N
  H377     1.0000 0.11354  0.66328  0.16832  Biso   1.000  H
  H378     1.0000 0.10294  0.65828  0.05492  Biso   1.000  H
  C385     1.0000 0.17545  0.76690  0.25233  Biso   1.000  C
  C386     1.0000 0.21590  0.98865  0.55986  Biso   1.000  C
  N263     1.0000 0.13518  0.90554  0.49025  Biso   1.000  N
  H379     1.0000 0.14174  0.87267  0.38682  Biso   1.000  H
  H380     1.0000 0.16325  0.91908  0.36136  Biso   1.000  H
  C387     1.0000 0.07020  0.69948  0.05884  Biso   1.000  C
  C388     1.0000 0.10239  0.72317  0.20752  Biso   1.000  C
  N264     1.0000 0.13785  0.76208  0.21829  Biso   1.000  N
  H381     1.0000 0.19160  0.79399  0.27975  Biso   1.000  H
  H382     1.0000 0.17011  0.74761  0.30528  Biso   1.000  H
  N265     1.0000 0.17378  0.96728  0.58336  Biso   1.000  N
  H383     1.0000 0.21981  0.00339  0.49825  Biso   1.000  H
  H384     1.0000 0.23040  0.00839  0.61165  Biso   1.000  H
  C389     1.0000 0.14243  0.94525  0.51309  Biso   1.000  C
  C390     1.0000 0.09699  0.87696  0.51047  Biso   1.000  C
  O133     1.0000 0.05966  0.68081  0.98211  Biso   1.000  O
  N266     1.0000 0.05304  0.71924  0.10096  Biso   1.000  N
  C391     1.0000 0.06874  0.73362  0.19741  Biso   1.000  C
  H385     1.0000 0.09813  0.70558  0.26484  Biso   1.000  H
  C392     1.0000 0.12973  0.79203  0.21829  Biso   1.000  C
  C393     1.0000 0.15961  0.97261  0.66941  Biso   1.000  C
  H386     1.0000 0.14641  0.96120  0.45272  Biso   1.000  H
  C394     1.0000 0.10441  0.93733  0.56786  Biso   1.000  C
  O134     1.0000 0.08045  0.84207  0.48676  Biso   1.000  O
  N267     1.0000 0.07949  0.89461  0.56183  Biso   1.000  N
  C395     1.0000 0.01407  0.71240  0.07056  Biso   1.000  C
  N268     1.0000 0.08986  0.77634  0.20563  Biso   1.000  N
  H387     1.0000 0.04793  0.72067  0.24891  Biso   1.000  H
  O135     1.0000 0.15411  0.82760  0.22978  Biso   1.000  O
  O136     1.0000 0.17927  0.99237  0.73785  Biso   1.000  O
  N269     1.0000 0.11865  0.95260  0.66431  Biso   1.000  N
  H388     1.0000 0.09161  0.95132  0.53637  Biso   1.000  H
  C396     1.0000 0.03754  0.87371  0.58343  Biso   1.000  C
  H389     1.0000 0.99524  0.70058  0.12562  Biso   1.000  H
  N270     1.0000 0.01427  0.74803  0.03877  Biso   1.000  N
  H390     1.0000 0.00413  0.69278  0.01673  Biso   1.000  H
  C397     1.0000 0.06986  0.79837  0.22665  Biso   1.000  C
  C398     1.0000 0.09445  0.95757  0.73618  Biso   1.000  C
  N271     1.0000 0.02834  0.86448  0.68512  Biso   1.000  N
  H391     1.0000 0.02463  0.84856  0.54582  Biso   1.000  H
  H392     1.0000 0.02603  0.89009  0.56132  Biso   1.000  H
  C399     1.0000 0.00246  0.75199  0.94814  Biso   1.000  C
  C400     1.0000 0.01343  0.77610  0.10743  Biso   1.000  C
  N272     1.0000 0.05249  0.80533  0.14184  Biso   1.000  N
  H393     1.0000 0.08909  0.82430  0.25596  Biso   1.000  H
  H394     1.0000 0.04859  0.78351  0.27517  Biso   1.000  H
  N273     1.0000 0.06824  0.92140  0.78906  Biso   1.000  N
  H395     1.0000 0.07810  0.96731  0.70359  Biso   1.000  H
  H396     1.0000 0.11209  0.97820  0.78317  Biso   1.000  H
  C401     1.0000 0.01027  0.82644  0.72025  Biso   1.000  C
  C402     1.0000 0.02915  0.89256  0.75560  Biso   1.000  C
  O137     1.0000 0.99826  0.73058  0.87853  Biso   1.000  O
  N274     1.0000 0.99590  0.78351  0.94814  Biso   1.000  N
  H397     1.0000 0.99439  0.76241  0.16206  Biso   1.000  H
  C403     1.0000 0.00081  0.80093  0.04350  Biso   1.000  C
  C404     1.0000 0.06291  0.84308  0.11303  Biso   1.000  C
  C405     1.0000 0.07379  0.91744  0.88617  Biso   1.000  C
  N275     1.0000 0.00183  0.82739  0.81656  Biso   1.000  N
  O138     1.0000 0.00274  0.79673  0.67326  Biso   1.000  O
  C406     1.0000 0.00979  0.86636  0.84689  Biso   1.000  C
  H398     1.0000 0.01389  0.90551  0.73254  Biso   1.000  H
  C407     1.0000 0.97598  0.79152  0.86973  Biso   1.000  C
  H399     1.0000 0.97560  0.79911  0.06736  Biso   1.000  H
  N276     1.0000 0.03444  0.84121  0.05157  Biso   1.000  N
  O139     1.0000 0.09285  0.87362  0.13929  Biso   1.000  O
  N277     1.0000 0.04023  0.88482  0.91970  Biso   1.000  N
  O140     1.0000 0.10325  0.93965  0.93344  Biso   1.000  O
  H400     1.0000 0.98481  0.86621  0.86631  Biso   1.000  H
  H401     1.0000 0.96473  0.76866  0.82405  Biso   1.000  H
  H402     1.0000 0.95365  0.79378  0.89693  Biso   1.000  H
  C408     1.0000 0.03325  0.87615  0.02189  Biso   1.000  C
  H403     1.0000 0.00680  0.87261  0.03870  Biso   1.000  H
  H404     1.0000 0.05351  0.89931  0.05906  Biso   1.000  H
  C409     1.0000 0.69581  0.22589  0.08896  Biso   1.000  C
  C410     1.0000 0.67645  0.19969  0.18024  Biso   1.000  C
  N278     1.0000 0.73491  0.25473  0.12242  Biso   1.000  N
  H405     1.0000 0.68058  0.23883  0.06590  Biso   1.000  H
  N279     1.0000 0.69500  0.19781  0.01848  Biso   1.000  N
  N280     1.0000 0.70692  0.21815  0.25305  Biso   1.000  N
  H406     1.0000 0.65147  0.19954  0.19959  Biso   1.000  H
  N281     1.0000 0.66852  0.16072  0.14991  Biso   1.000  N
  C411     1.0000 0.74048  0.25077  0.21952  Biso   1.000  C
  C412     1.0000 0.76111  0.29090  0.06954  Biso   1.000  C
  C413     1.0000 0.67694  0.15977  0.05361  Biso   1.000  C
  C414     1.0000 0.70421  0.20704  0.91679  Biso   1.000  C
  C415     1.0000 0.69991  0.20948  0.35525  Biso   1.000  C
  C416     1.0000 0.64264  0.12485  0.20308  Biso   1.000  C
  O141     1.0000 0.76994  0.27298  0.26680  Biso   1.000  O
  H407     1.0000 0.74476  0.30063  0.03695  Biso   1.000  H
  H408     1.0000 0.77878  0.31153  0.11653  Biso   1.000  H
  N282     1.0000 0.78531  0.28593  0.99760  Biso   1.000  N
  O142     1.0000 0.66940  0.13006  0.00662  Biso   1.000  O
  N283     1.0000 0.74616  0.22794  0.89518  Biso   1.000  N
  H409     1.0000 0.69129  0.18189  0.87918  Biso   1.000  H
  H410     1.0000 0.69272  0.22341  0.89468  Biso   1.000  H
  N284     1.0000 0.70113  0.17453  0.38493  Biso   1.000  N
  H411     1.0000 0.67347  0.20594  0.37205  Biso   1.000  H
  H412     1.0000 0.72018  0.23264  0.39242  Biso   1.000  H
  N285     1.0000 0.66256  0.11684  0.28150  Biso   1.000  N
  H413     1.0000 0.63139  0.10199  0.15740  Biso   1.000  H
  H414     1.0000 0.62031  0.12711  0.23029  Biso   1.000  H
  C417     1.0000 0.82628  0.30593  0.00276  Biso   1.000  C
  C418     1.0000 0.77110  0.27066  0.90122  Biso   1.000  C
  C419     1.0000 0.76364  0.21026  0.84383  Biso   1.000  C
  C420     1.0000 0.72960  0.17641  0.44639  Biso   1.000  C
  C421     1.0000 0.66748  0.13426  0.37685  Biso   1.000  C
  C422     1.0000 0.66912  0.08532  0.28150  Biso   1.000  C
  O143     1.0000 0.84596  0.32570  0.07121  Biso   1.000  O
  N286     1.0000 0.84045  0.30060  0.91672  Biso   1.000  N
  C423     1.0000 0.80909  0.27858  0.84645  Biso   1.000  C
  H415     1.0000 0.75827  0.28465  0.86973  Biso   1.000  H
  O144     1.0000 0.74711  0.17540  0.82012  Biso   1.000  O
  N287     1.0000 0.80184  0.23886  0.82361  Biso   1.000  N
  O145     1.0000 0.75954  0.20695  0.47265  Biso   1.000  O
  N288     1.0000 0.71915  0.13866  0.47520  Biso   1.000  N
  H416     1.0000 0.64229  0.13244  0.40071  Biso   1.000  H
  C424     1.0000 0.68010  0.10943  0.44079  Biso   1.000  C
  O146     1.0000 0.66492  0.06391  0.21189  Biso   1.000  O
  N289     1.0000 0.68094  0.08136  0.37205  Biso   1.000  N
  C425     1.0000 0.88256  0.32198  0.89322  Biso   1.000  C
  H417     1.0000 0.81307  0.29453  0.78601  Biso   1.000  H
  C426     1.0000 0.82455  0.23309  0.74760  Biso   1.000  C
  C427     1.0000 0.73653  0.13170  0.56001  Biso   1.000  C
  H418     1.0000 0.66108  0.09574  0.49542  Biso   1.000  H
  C428     1.0000 0.68076  0.04572  0.40391  Biso   1.000  C
  N290     1.0000 0.89934  0.29629  0.88326  Biso   1.000  N
  H419     1.0000 0.88649  0.33674  0.83161  Biso   1.000  H
  H420     1.0000 0.89708  0.34175  0.94501  Biso   1.000  H
  N291     1.0000 0.86217  0.23794  0.78171  Biso   1.000  N
  H421     1.0000 0.80841  0.20600  0.72018  Biso   1.000  H
  H422     1.0000 0.82991  0.25241  0.69472  Biso   1.000  H
  N292     1.0000 0.75653  0.10967  0.53899  Biso   1.000  N
  H423     1.0000 0.75576  0.15763  0.58932  Biso   1.000  H
  H424     1.0000 0.71528  0.11684  0.60852  Biso   1.000  H
  N293     1.0000 0.71973  0.05257  0.43432  Biso   1.000  N
  H425     1.0000 0.66190  0.03391  0.45898  Biso   1.000  H
  H426     1.0000 0.67082  0.02611  0.35009  Biso   1.000  H
  C429     1.0000 0.92981  0.30052  0.94116  Biso   1.000  C
  C430     1.0000 0.89761  0.27685  0.79241  Biso   1.000  C
  C431     1.0000 0.87028  0.20796  0.78171  Biso   1.000  C
  C432     1.0000 0.79639  0.12536  0.55164  Biso   1.000  C
  C433     1.0000 0.73543  0.06695  0.53077  Biso   1.000  C
  C434     1.0000 0.73686  0.03281  0.39220  Biso   1.000  C
  O147     1.0000 0.94035  0.31918  0.01782  Biso   1.000  O
  N294     1.0000 0.94696  0.28078  0.89904  Biso   1.000  N
  C435     1.0000 0.93125  0.26637  0.80252  Biso   1.000  C
  H427     1.0000 0.90187  0.29444  0.73516  Biso   1.000  H
  O148     1.0000 0.84587  0.17239  0.77022  Biso   1.000  O
  N295     1.0000 0.91012  0.22365  0.79430  Biso   1.000  N
  O149     1.0000 0.82078  0.16093  0.56314  Biso   1.000  O
  N296     1.0000 0.80452  0.09541  0.55164  Biso   1.000  N
  H428     1.0000 0.71462  0.05400  0.58227  Biso   1.000  H
  C436     1.0000 0.76908  0.05650  0.54088  Biso   1.000  C
  O150     1.0000 0.72632  0.01414  0.31546  Biso   1.000  O
  N297     1.0000 0.76734  0.03703  0.45010  Biso   1.000  N
  C437     1.0000 0.98593  0.28763  0.92944  Biso   1.000  C
  H429     1.0000 0.95207  0.27935  0.75102  Biso   1.000  H
  C438     1.0000 0.93016  0.20165  0.77328  Biso   1.000  C
  C439     1.0000 0.84212  0.10023  0.58569  Biso   1.000  C
  H430     1.0000 0.76482  0.03891  0.59820  Biso   1.000  H
  C440     1.0000 0.78411  0.01134  0.44006  Biso   1.000  C
  N298     1.0000 0.98575  0.25199  0.96123  Biso   1.000  N
  H431     1.0000 0.99587  0.30724  0.98320  Biso   1.000  H
  H432     1.0000 0.00478  0.29944  0.87431  Biso   1.000  H
  N299     1.0000 0.94752  0.19466  0.85809  Biso   1.000  N
  H433     1.0000 0.91092  0.17570  0.74404  Biso   1.000  H
  H434     1.0000 0.95141  0.21651  0.72483  Biso   1.000  H
  N300     1.0000 0.86483  0.09446  0.50975  Biso   1.000  N
  H435     1.0000 0.85827  0.12732  0.61311  Biso   1.000  H
  H436     1.0000 0.83678  0.08094  0.63864  Biso   1.000  H
  N301     1.0000 0.82623  0.03272  0.41657  Biso   1.000  N
  H437     1.0000 0.78019  0.99664  0.50167  Biso   1.000  H
  H438     1.0000 0.76962  0.99163  0.38827  Biso   1.000  H
  C441     1.0000 0.99756  0.24803  0.05186  Biso   1.000  C
  C442     1.0000 0.98657  0.22389  0.89249  Biso   1.000  C
  C443     1.0000 0.93708  0.15691  0.88689  Biso   1.000  C
  C444     1.0000 0.90303  0.12306  0.48953  Biso   1.000  C
  C445     1.0000 0.85760  0.05477  0.48691  Biso   1.000  C
  C446     1.0000 0.84041  0.02742  0.33059  Biso   1.000  C
  O151     1.0000 0.00177  0.26944  0.12140  Biso   1.000  O
  N302     1.0000 0.00413  0.21651  0.05186  Biso   1.000  N
  C447     1.0000 0.99921  0.19909  0.95650  Biso   1.000  C
  H439     1.0000 0.00560  0.23761  0.83794  Biso   1.000  H
  O152     1.0000 0.90713  0.12637  0.86071  Biso   1.000  O
  N303     1.0000 0.96555  0.15879  0.94843  Biso   1.000  N
  O153     1.0000 0.91958  0.15795  0.51324  Biso   1.000  O
  N304     1.0000 0.92051  0.10538  0.43810  Biso   1.000  N
  H440     1.0000 0.85360  0.03879  0.54728  Biso   1.000  H
  C448     1.0000 0.89559  0.06269  0.43206  Biso   1.000  C
  O154     1.0000 0.82073  0.00765  0.26207  Biso   1.000  O
  N305     1.0000 0.88138  0.04742  0.33569  Biso   1.000  N
  C449     1.0000 0.02403  0.20847  0.13020  Biso   1.000  C
  H441     1.0000 0.02440  0.20091  0.93257  Biso   1.000  H
  C450     1.0000 0.96676  0.12384  0.97811  Biso   1.000  C
  C451     1.0000 0.96248  0.12631  0.41650  Biso   1.000  C
  H442     1.0000 0.90842  0.04870  0.46356  Biso   1.000  H
  C452     1.0000 0.90556  0.04242  0.26382  Biso   1.000  C
  N306     1.0000 0.99817  0.17263  0.18344  Biso   1.000  N
  H443     1.0000 0.03528  0.23133  0.17595  Biso   1.000  H
  H444     1.0000 0.04638  0.20624  0.10300  Biso   1.000  H
  N307     1.0000 0.95975  0.11518  0.08030  Biso   1.000  N
  H445     1.0000 0.99322  0.12741  0.96130  Biso   1.000  H
  H446     1.0000 0.94651  0.10071  0.94094  Biso   1.000  H
  N308     1.0000 0.97168  0.13554  0.31481  Biso   1.000  N
  H447     1.0000 0.97538  0.15143  0.45410  Biso   1.000  H
  H448     1.0000 0.97397  0.10994  0.43861  Biso   1.000  H
  N309     1.0000 0.93178  0.07862  0.21087  Biso   1.000  N
  H449     1.0000 0.92191  0.03269  0.29641  Biso   1.000  H
  H450     1.0000 0.88790  0.02179  0.21676  Biso   1.000  H
  C453     1.0000 0.98975  0.17358  0.27975  Biso   1.000  C
  C454     1.0000 0.99022  0.13363  0.15311  Biso   1.000  C
  C455     1.0000 0.92619  0.08255  0.11376  Biso   1.000  C
  C456     1.0000 0.97087  0.10747  0.24440  Biso   1.000  C
  O155     1.0000 0.99729  0.20329  0.32674  Biso   1.000  O
  H451     1.0000 0.01522  0.13381  0.13369  Biso   1.000  H
  O156     1.0000 0.89673  0.06034  0.06648  Biso   1.000  O
  H452     1.0000 0.98609  0.09449  0.26738  Biso   1.000  H
  Ne1      1.0000 0.33334  0.16667  0.16666  Biso   1.000  Ne
  He1      1.0000 0.36708  0.12840  0.28320  Biso   1.000  He
  He2      1.0000 0.31141  0.22354  0.02937  Biso   1.000  He
  Ar1      1.0000 0.33334  0.16667  0.16668  Biso   1.000  Ar
  Ne2      1.0000 0.16667  0.33334  0.83331  Biso   1.000  Ne
  He3      1.0000 0.08882  0.31169  0.96886  Biso   1.000  He
  He4      1.0000 0.23511  0.35174  0.71493  Biso   1.000  He
  Ar2      1.0000 0.16667  0.33334  0.83332  Biso   1.000  Ar
  Ne3      1.0000 0.50000  0.50000  0.49998  Biso   1.000  Ne
  He5      1.0000 0.54007  0.57474  0.62148  Biso   1.000  He
  He6      1.0000 0.46060  0.42626  0.38027  Biso   1.000  He
  Ar3      1.0000 0.50000  0.50001  0.49996  Biso   1.000  Ar
  Ne4      1.0000 0.00925  0.50320  0.49762  Biso   1.000  Ne
  He7      1.0000 0.02074  0.44541  0.63095  Biso   1.000  He
  He8      1.0000 0.97805  0.55686  0.36269  Biso   1.000  He
  Ar4      1.0000 0.00878  0.50449  0.50048  Biso   1.000  Ar
  Ne5      1.0000 0.83334  0.66667  0.16666  Biso   1.000  Ne
  He9      1.0000 0.75547  0.64504  0.30222  Biso   1.000  He
  He10     1.0000 0.90179  0.68508  0.04828  Biso   1.000  He
  Ar5      1.0000 0.83334  0.66667  0.16667  Biso   1.000  Ar
  Ne6      1.0000 0.66667  0.83334  0.83331  Biso   1.000  Ne
  He11     1.0000 0.70042  0.79507  0.94984  Biso   1.000  He
  He12     1.0000 0.64472  0.89020  0.69601  Biso   1.000  He
  Ar6      1.0000 0.66667  0.83334  0.83332  Biso   1.000  Ar
  Ne7      1.0000 0.83334  0.16667  0.16666  Biso   1.000  Ne
  He13     1.0000 0.87341  0.24138  0.28817  Biso   1.000  He
  He14     1.0000 0.79392  0.09292  0.04697  Biso   1.000  He
  Ar7      1.0000 0.83334  0.16667  0.16668  Biso   1.000  Ar
  Ne8      1.0000 0.49676  0.99850  0.49176  Biso   1.000  Ne
  He15     1.0000 0.42737  0.98012  0.62596  Biso   1.000  He
  He16     1.0000 0.57100  0.03338  0.38529  Biso   1.000  He
  Ar8      1.0000 0.49773  0.99857  0.50132  Biso   1.000  Ar
  Ne9      1.0000 0.16667  0.83334  0.83331  Biso   1.000  Ne
  He17     1.0000 0.20672  0.90806  0.95481  Biso   1.000  He
  He18     1.0000 0.12726  0.75959  0.71361  Biso   1.000  He
  Ar9      1.0000 0.16667  0.83334  0.83332  Biso   1.000  Ar
