data_image0
_cell_length_a       15.743
_cell_length_b       19.679
_cell_length_c       15.896
_cell_angle_alpha    90
_cell_angle_beta     90
_cell_angle_gamma    90

_symmetry_space_group_name_H-M    "P 1"
_symmetry_int_tables_number       1

loop_
  _symmetry_equiv_pos_as_xyz
  'x, y, z'

loop_
  _atom_site_label
  _atom_site_occupancy
  _atom_site_fract_x
  _atom_site_fract_y
  _atom_site_fract_z
  _atom_site_thermal_displace_type
  _atom_site_B_iso_or_equiv
  _atom_site_type_symbol
  C1       1.0000 0.54583  0.29361  0.30253  Biso   1.000  C
  N1       1.0000 0.49800  0.33310  0.24138  Biso   1.000  N
  N2       1.0000 0.60478  0.33167  0.35399  Biso   1.000  N
  C2       1.0000 0.60528  0.25001  0.24560  Biso   1.000  C
  H1       1.0000 0.50772  0.26450  0.33751  Biso   1.000  H
  C3       1.0000 0.42603  0.37527  0.26151  Biso   1.000  C
  C4       1.0000 0.51470  0.31440  0.15878  Biso   1.000  C
  C5       1.0000 0.68729  0.31521  0.33870  Biso   1.000  C
  C6       1.0000 0.57950  0.37548  0.42313  Biso   1.000  C
  N3       1.0000 0.58083  0.26912  0.16098  Biso   1.000  N
  N4       1.0000 0.68837  0.27181  0.27170  Biso   1.000  N
  H2       1.0000 0.59690  0.20032  0.25572  Biso   1.000  H
  N5       1.0000 0.44712  0.44321  0.28693  Biso   1.000  N
  H3       1.0000 0.38849  0.37771  0.21163  Biso   1.000  H
  H4       1.0000 0.39351  0.35342  0.30731  Biso   1.000  H
  O1       1.0000 0.47583  0.33320  0.09738  Biso   1.000  O
  O2       1.0000 0.74808  0.33579  0.37877  Biso   1.000  O
  N6       1.0000 0.55593  0.44428  0.39582  Biso   1.000  N
  H5       1.0000 0.62688  0.37878  0.46383  Biso   1.000  H
  H6       1.0000 0.53059  0.35469  0.45250  Biso   1.000  H
  C7       1.0000 0.61748  0.24031  0.08587  Biso   1.000  C
  C8       1.0000 0.76669  0.23792  0.24421  Biso   1.000  C
  C9       1.0000 0.42749  0.49997  0.24201  Biso   1.000  C
  C10      1.0000 0.46878  0.46120  0.37280  Biso   1.000  C
  C11      1.0000 0.60509  0.49997  0.41312  Biso   1.000  C
  N7       1.0000 0.69472  0.27110  0.05939  Biso   1.000  N
  H7       1.0000 0.59207  0.20362  0.05643  Biso   1.000  H
  N8       1.0000 0.80410  0.26749  0.16922  Biso   1.000  N
  H8       1.0000 0.80868  0.23990  0.29039  Biso   1.000  H
  H9       1.0000 0.75411  0.18939  0.23308  Biso   1.000  H
  O3       1.0000 0.39548  0.49997  0.17111  Biso   1.000  O
  N9       1.0000 0.44712  0.55679  0.28693  Biso   1.000  N
  H10      1.0000 0.42698  0.44230  0.41400  Biso   1.000  H
  C12      1.0000 0.46878  0.53880  0.37280  Biso   1.000  C
  N10      1.0000 0.55593  0.55572  0.39582  Biso   1.000  N
  O4       1.0000 0.67770  0.49997  0.43929  Biso   1.000  O
  C13      1.0000 0.77978  0.24971  0.08417  Biso   1.000  C
  C14      1.0000 0.69733  0.31678  0.99327  Biso   1.000  C
  C15      1.0000 0.86731  0.31470  0.17130  Biso   1.000  C
  C16      1.0000 0.42603  0.62468  0.26151  Biso   1.000  C
  H11      1.0000 0.42698  0.55770  0.41400  Biso   1.000  H
  C17      1.0000 0.57950  0.62447  0.42313  Biso   1.000  C
  C18      1.0000 0.83929  0.29361  0.03020  Biso   1.000  C
  H12      1.0000 0.78880  0.20021  0.07323  Biso   1.000  H
  O5       1.0000 0.63641  0.33660  0.95382  Biso   1.000  O
  N11      1.0000 0.78111  0.33091  0.97521  Biso   1.000  N
  N12      1.0000 0.88471  0.33421  0.09172  Biso   1.000  N
  O6       1.0000 0.90472  0.33462  0.23371  Biso   1.000  O
  N13      1.0000 0.49800  0.66690  0.24138  Biso   1.000  N
  H13      1.0000 0.38849  0.62229  0.21163  Biso   1.000  H
  H14      1.0000 0.39351  0.64658  0.30731  Biso   1.000  H
  N14      1.0000 0.60478  0.66828  0.35399  Biso   1.000  N
  H15      1.0000 0.62688  0.62122  0.46383  Biso   1.000  H
  H16      1.0000 0.53059  0.64531  0.45250  Biso   1.000  H
  H17      1.0000 0.87931  0.26480  0.99679  Biso   1.000  H
  C19      1.0000 0.80607  0.37609  0.90847  Biso   1.000  C
  C20      1.0000 0.95878  0.37522  0.07058  Biso   1.000  C
  C21      1.0000 0.51470  0.68560  0.15878  Biso   1.000  C
  C22      1.0000 0.54583  0.70639  0.30253  Biso   1.000  C
  C23      1.0000 0.68729  0.68479  0.33870  Biso   1.000  C
  N15      1.0000 0.83021  0.44311  0.93608  Biso   1.000  N
  H18      1.0000 0.85460  0.35561  0.87789  Biso   1.000  H
  H19      1.0000 0.75837  0.38041  0.86827  Biso   1.000  H
  N16      1.0000 0.93921  0.44418  0.04492  Biso   1.000  N
  H20      1.0000 0.99682  0.37700  0.12022  Biso   1.000  H
  H21      1.0000 0.99028  0.35251  0.02460  Biso   1.000  H
  O7       1.0000 0.47583  0.66680  0.09738  Biso   1.000  O
  N17      1.0000 0.58083  0.73088  0.16098  Biso   1.000  N
  C24      1.0000 0.60528  0.74999  0.24560  Biso   1.000  C
  H22      1.0000 0.50772  0.73550  0.33751  Biso   1.000  H
  N18      1.0000 0.68837  0.72819  0.27170  Biso   1.000  N
  O8       1.0000 0.74808  0.66421  0.37877  Biso   1.000  O
  C25      1.0000 0.78200  0.49997  0.91507  Biso   1.000  C
  C26      1.0000 0.91590  0.46059  0.95911  Biso   1.000  C
  C27      1.0000 0.95433  0.49997  0.09367  Biso   1.000  C
  C28      1.0000 0.61748  0.75969  0.08587  Biso   1.000  C
  H23      1.0000 0.59690  0.79968  0.25572  Biso   1.000  H
  C29      1.0000 0.76669  0.76208  0.24421  Biso   1.000  C
  O9       1.0000 0.71251  0.49997  0.88161  Biso   1.000  O
  N19      1.0000 0.83021  0.55689  0.93608  Biso   1.000  N
  H24      1.0000 0.95789  0.44199  0.91803  Biso   1.000  H
  C30      1.0000 0.91590  0.53941  0.95911  Biso   1.000  C
  O10      1.0000 0.98063  0.49997  0.16488  Biso   1.000  O
  N20      1.0000 0.93921  0.55582  0.04492  Biso   1.000  N
  N21      1.0000 0.69472  0.72890  0.05939  Biso   1.000  N
  H25      1.0000 0.59207  0.79638  0.05643  Biso   1.000  H
  N22      1.0000 0.80410  0.73251  0.16922  Biso   1.000  N
  H26      1.0000 0.80868  0.76010  0.29039  Biso   1.000  H
  H27      1.0000 0.75411  0.81061  0.23308  Biso   1.000  H
  C31      1.0000 0.80607  0.62391  0.90847  Biso   1.000  C
  H28      1.0000 0.95789  0.55801  0.91803  Biso   1.000  H
  C32      1.0000 0.95878  0.62478  0.07058  Biso   1.000  C
  C33      1.0000 0.77978  0.75029  0.08417  Biso   1.000  C
  C34      1.0000 0.69733  0.68322  0.99327  Biso   1.000  C
  C35      1.0000 0.86731  0.68530  0.17130  Biso   1.000  C
  N23      1.0000 0.78111  0.66909  0.97521  Biso   1.000  N
  H29      1.0000 0.85460  0.64439  0.87789  Biso   1.000  H
  H30      1.0000 0.75837  0.61959  0.86827  Biso   1.000  H
  N24      1.0000 0.88471  0.66579  0.09172  Biso   1.000  N
  H31      1.0000 0.99682  0.62300  0.12022  Biso   1.000  H
  H32      1.0000 0.99028  0.64749  0.02460  Biso   1.000  H
  C36      1.0000 0.83929  0.70639  0.03020  Biso   1.000  C
  H33      1.0000 0.78880  0.79979  0.07323  Biso   1.000  H
  O11      1.0000 0.63641  0.66340  0.95382  Biso   1.000  O
  O12      1.0000 0.90472  0.66538  0.23371  Biso   1.000  O
  H34      1.0000 0.87931  0.73520  0.99679  Biso   1.000  H
  C37      1.0000 0.54119  0.12480  0.57058  Biso   1.000  C
  N25      1.0000 0.56082  0.05580  0.54492  Biso   1.000  N
  N26      1.0000 0.61532  0.16581  0.59172  Biso   1.000  N
  H35      1.0000 0.50321  0.12302  0.62022  Biso   1.000  H
  H36      1.0000 0.50969  0.14752  0.52460  Biso   1.000  H
  H37      1.0000 0.50321  0.12297  0.62022  Biso   1.000  H
  C38      1.0000 0.54570  0.00000  0.59373  Biso   1.000  C
  C39      1.0000 0.58407  0.03938  0.45911  Biso   1.000  C
  C40      1.0000 0.63273  0.18532  0.67130  Biso   1.000  C
  C41      1.0000 0.66067  0.20641  0.53020  Biso   1.000  C
  C42      1.0000 0.63273  0.18527  0.67130  Biso   1.000  C
  O13      1.0000 0.51941  0.00000  0.66488  Biso   1.000  O
  N27      1.0000 0.56082  0.94420  0.54492  Biso   1.000  N
  N28      1.0000 0.66982  0.05691  0.43608  Biso   1.000  N
  H38      1.0000 0.54208  0.05798  0.41803  Biso   1.000  H
  C43      1.0000 0.58407  0.96062  0.45911  Biso   1.000  C
  O14      1.0000 0.59531  0.16540  0.73371  Biso   1.000  O
  N29      1.0000 0.69593  0.23248  0.66922  Biso   1.000  N
  N30      1.0000 0.71892  0.16911  0.47521  Biso   1.000  N
  H39      1.0000 0.62072  0.23517  0.49679  Biso   1.000  H
  C44      1.0000 0.72019  0.25032  0.58424  Biso   1.000  C
  C45      1.0000 0.54119  0.87520  0.57058  Biso   1.000  C
  C46      1.0000 0.71797  0.00000  0.41514  Biso   1.000  C
  C47      1.0000 0.69390  0.12389  0.40853  Biso   1.000  C
  N31      1.0000 0.66982  0.94309  0.43608  Biso   1.000  N
  H40      1.0000 0.54208  0.94202  0.41803  Biso   1.000  H
  C48      1.0000 0.73328  0.26211  0.74421  Biso   1.000  C
  C49      1.0000 0.80271  0.18319  0.49333  Biso   1.000  C
  N32      1.0000 0.80531  0.22892  0.55939  Biso   1.000  N
  H41      1.0000 0.71117  0.29981  0.57323  Biso   1.000  H
  N33      1.0000 0.80531  0.22887  0.55939  Biso   1.000  N
  N34      1.0000 0.61532  0.83419  0.59172  Biso   1.000  N
  H42      1.0000 0.50321  0.87698  0.62022  Biso   1.000  H
  H43      1.0000 0.50969  0.85248  0.52460  Biso   1.000  H
  O15      1.0000 0.78752  0.00000  0.38161  Biso   1.000  O
  H44      1.0000 0.64543  0.14442  0.37789  Biso   1.000  H
  H45      1.0000 0.74160  0.11962  0.36833  Biso   1.000  H
  H46      1.0000 0.74160  0.11957  0.36833  Biso   1.000  H
  C50      1.0000 0.69390  0.87611  0.40853  Biso   1.000  C
  N35      1.0000 0.81160  0.22821  0.77170  Biso   1.000  N
  H47      1.0000 0.69129  0.26007  0.79039  Biso   1.000  H
  H48      1.0000 0.74592  0.31058  0.73314  Biso   1.000  H
  O16      1.0000 0.86362  0.16342  0.45382  Biso   1.000  O
  O17      1.0000 0.86362  0.16337  0.45382  Biso   1.000  O
  C51      1.0000 0.88249  0.25972  0.58593  Biso   1.000  C
  C52      1.0000 0.63273  0.81468  0.67130  Biso   1.000  C
  C53      1.0000 0.66067  0.79359  0.53020  Biso   1.000  C
  N36      1.0000 0.71892  0.83089  0.47521  Biso   1.000  N
  H49      1.0000 0.64543  0.85558  0.37789  Biso   1.000  H
  H50      1.0000 0.74160  0.88038  0.36833  Biso   1.000  H
  C54      1.0000 0.81268  0.18482  0.83870  Biso   1.000  C
  C55      1.0000 0.89468  0.25001  0.74560  Biso   1.000  C
  N37      1.0000 0.91920  0.23091  0.66098  Biso   1.000  N
  H51      1.0000 0.90790  0.29641  0.55643  Biso   1.000  H
  O18      1.0000 0.59531  0.83460  0.73371  Biso   1.000  O
  N38      1.0000 0.69593  0.76752  0.66922  Biso   1.000  N
  H52      1.0000 0.62072  0.76483  0.49679  Biso   1.000  H
  C56      1.0000 0.72019  0.74968  0.58424  Biso   1.000  C
  H53      1.0000 0.62072  0.76477  0.49679  Biso   1.000  H
  C57      1.0000 0.80271  0.81681  0.49333  Biso   1.000  C
  O19      1.0000 0.75189  0.16419  0.87884  Biso   1.000  O
  N39      1.0000 0.89519  0.16830  0.85399  Biso   1.000  N
  H54      1.0000 0.90313  0.29971  0.75572  Biso   1.000  H
  C58      1.0000 0.95420  0.20641  0.80253  Biso   1.000  C
  C59      1.0000 0.98533  0.18558  0.65878  Biso   1.000  C
  C60      1.0000 0.73328  0.73789  0.74421  Biso   1.000  C
  N40      1.0000 0.80531  0.77108  0.55939  Biso   1.000  N
  H55      1.0000 0.71117  0.70019  0.57323  Biso   1.000  H
  O20      1.0000 0.86362  0.83658  0.45382  Biso   1.000  O
  C61      1.0000 0.92047  0.12450  0.92313  Biso   1.000  C
  H56      1.0000 0.99231  0.23548  0.83751  Biso   1.000  H
  N41      1.0000 0.00197  0.16688  0.74138  Biso   1.000  N
  O21      1.0000 0.02420  0.16678  0.59738  Biso   1.000  O
  N42      1.0000 0.81160  0.77179  0.77170  Biso   1.000  N
  H57      1.0000 0.69129  0.73993  0.79039  Biso   1.000  H
  H58      1.0000 0.74592  0.68942  0.73314  Biso   1.000  H
  H59      1.0000 0.69129  0.73987  0.79039  Biso   1.000  H
  C62      1.0000 0.88249  0.74028  0.58593  Biso   1.000  C
  N43      1.0000 0.94410  0.05569  0.89582  Biso   1.000  N
  H60      1.0000 0.87309  0.12120  0.96383  Biso   1.000  H
  H61      1.0000 0.96938  0.14528  0.95250  Biso   1.000  H
  C63      1.0000 0.07400  0.12470  0.76151  Biso   1.000  C
  C64      1.0000 0.81268  0.81518  0.83870  Biso   1.000  C
  C65      1.0000 0.89468  0.74999  0.74560  Biso   1.000  C
  N44      1.0000 0.91920  0.76909  0.66098  Biso   1.000  N
  H62      1.0000 0.90790  0.70359  0.55643  Biso   1.000  H
  C66      1.0000 0.89487  0.00000  0.91312  Biso   1.000  C
  C67      1.0000 0.03119  0.03882  0.87280  Biso   1.000  C
  C68      1.0000 0.03119  0.03877  0.87280  Biso   1.000  C
  N45      1.0000 0.05291  0.05681  0.78693  Biso   1.000  N
  H63      1.0000 0.11148  0.12231  0.71163  Biso   1.000  H
  H64      1.0000 0.10652  0.14660  0.80731  Biso   1.000  H
  O22      1.0000 0.75189  0.83581  0.87884  Biso   1.000  O
  N46      1.0000 0.89519  0.83170  0.85399  Biso   1.000  N
  H65      1.0000 0.90313  0.70029  0.75572  Biso   1.000  H
  C69      1.0000 0.95420  0.79359  0.80253  Biso   1.000  C
  C70      1.0000 0.98533  0.81442  0.65878  Biso   1.000  C
  C71      1.0000 0.98533  0.81437  0.65878  Biso   1.000  C
  O23      1.0000 0.82227  0.00000  0.93929  Biso   1.000  O
  N47      1.0000 0.94410  0.94431  0.89582  Biso   1.000  N
  C72      1.0000 0.03119  0.96118  0.87280  Biso   1.000  C
  H66      1.0000 0.07298  0.05768  0.91400  Biso   1.000  H
  C73      1.0000 0.07248  0.00000  0.74201  Biso   1.000  C
  C74      1.0000 0.92047  0.87550  0.92313  Biso   1.000  C
  H67      1.0000 0.99231  0.76452  0.83751  Biso   1.000  H
  N48      1.0000 0.00197  0.83312  0.74138  Biso   1.000  N
  N49      1.0000 0.00197  0.83307  0.74138  Biso   1.000  N
  O24      1.0000 0.02420  0.83322  0.59738  Biso   1.000  O
  O25      1.0000 0.02420  0.83317  0.59738  Biso   1.000  O
  N50      1.0000 0.05291  0.94319  0.78693  Biso   1.000  N
  H68      1.0000 0.07298  0.94232  0.91400  Biso   1.000  H
  H69      1.0000 0.07298  0.94227  0.91400  Biso   1.000  H
  O26      1.0000 0.10449  0.00000  0.67111  Biso   1.000  O
  H70      1.0000 0.87309  0.87880  0.96383  Biso   1.000  H
  H71      1.0000 0.96938  0.85472  0.95250  Biso   1.000  H
  C75      1.0000 0.07400  0.87530  0.76151  Biso   1.000  C
  H72      1.0000 0.11148  0.87769  0.71163  Biso   1.000  H
  H73      1.0000 0.10652  0.85340  0.80731  Biso   1.000  H
  C76      1.0000 0.54119  0.12480  0.57058  Biso   1.000  C
  N51      1.0000 0.56082  0.05580  0.54492  Biso   1.000  N
  N52      1.0000 0.61532  0.16581  0.59172  Biso   1.000  N
  H74      1.0000 0.50969  0.14752  0.52460  Biso   1.000  H
  H75      1.0000 0.50321  0.12302  0.62022  Biso   1.000  H
  H76      1.0000 0.50321  0.12297  0.62022  Biso   1.000  H
  C77      1.0000 0.54570  0.00000  0.59373  Biso   1.000  C
  C78      1.0000 0.58407  0.03938  0.45911  Biso   1.000  C
  C79      1.0000 0.66067  0.20641  0.53020  Biso   1.000  C
  C80      1.0000 0.63273  0.18532  0.67130  Biso   1.000  C
  C81      1.0000 0.63273  0.18527  0.67130  Biso   1.000  C
  O27      1.0000 0.51941  0.00000  0.66488  Biso   1.000  O
  N53      1.0000 0.56082  0.94420  0.54492  Biso   1.000  N
  N54      1.0000 0.66982  0.05691  0.43608  Biso   1.000  N
  H77      1.0000 0.54208  0.05798  0.41803  Biso   1.000  H
  C82      1.0000 0.58407  0.96062  0.45911  Biso   1.000  C
  N55      1.0000 0.71892  0.16911  0.47521  Biso   1.000  N
  H78      1.0000 0.62072  0.23517  0.49679  Biso   1.000  H
  C83      1.0000 0.72019  0.25032  0.58424  Biso   1.000  C
  O28      1.0000 0.59531  0.16540  0.73371  Biso   1.000  O
  N56      1.0000 0.69593  0.23248  0.66922  Biso   1.000  N
  C84      1.0000 0.54119  0.87520  0.57058  Biso   1.000  C
  C85      1.0000 0.71797  0.00000  0.41514  Biso   1.000  C
  C86      1.0000 0.69390  0.12389  0.40853  Biso   1.000  C
  N57      1.0000 0.66982  0.94309  0.43608  Biso   1.000  N
  H79      1.0000 0.54208  0.94202  0.41803  Biso   1.000  H
  C87      1.0000 0.80271  0.18319  0.49333  Biso   1.000  C
  H80      1.0000 0.71117  0.29981  0.57323  Biso   1.000  H
  N58      1.0000 0.80531  0.22892  0.55939  Biso   1.000  N
  N59      1.0000 0.80531  0.22887  0.55939  Biso   1.000  N
  C88      1.0000 0.73328  0.26211  0.74421  Biso   1.000  C
  N60      1.0000 0.61532  0.83419  0.59172  Biso   1.000  N
  H81      1.0000 0.50321  0.87698  0.62022  Biso   1.000  H
  H82      1.0000 0.50969  0.85248  0.52460  Biso   1.000  H
  O29      1.0000 0.78752  0.00000  0.38161  Biso   1.000  O
  H83      1.0000 0.64543  0.14442  0.37789  Biso   1.000  H
  H84      1.0000 0.74160  0.11962  0.36833  Biso   1.000  H
  H85      1.0000 0.74160  0.11957  0.36833  Biso   1.000  H
  C89      1.0000 0.69390  0.87611  0.40853  Biso   1.000  C
  O30      1.0000 0.86362  0.16342  0.45382  Biso   1.000  O
  O31      1.0000 0.86362  0.16337  0.45382  Biso   1.000  O
  C90      1.0000 0.88249  0.25972  0.58593  Biso   1.000  C
  N61      1.0000 0.81160  0.22821  0.77170  Biso   1.000  N
  H86      1.0000 0.69129  0.26007  0.79039  Biso   1.000  H
  H87      1.0000 0.74592  0.31058  0.73314  Biso   1.000  H
  C91      1.0000 0.63273  0.81468  0.67130  Biso   1.000  C
  C92      1.0000 0.66067  0.79359  0.53020  Biso   1.000  C
  N62      1.0000 0.71892  0.83089  0.47521  Biso   1.000  N
  H88      1.0000 0.64543  0.85558  0.37789  Biso   1.000  H
  H89      1.0000 0.74160  0.88038  0.36833  Biso   1.000  H
  N63      1.0000 0.91920  0.23091  0.66098  Biso   1.000  N
  H90      1.0000 0.90790  0.29641  0.55643  Biso   1.000  H
  C93      1.0000 0.81268  0.18482  0.83870  Biso   1.000  C
  C94      1.0000 0.89468  0.25001  0.74560  Biso   1.000  C
  O32      1.0000 0.59531  0.83460  0.73371  Biso   1.000  O
  N64      1.0000 0.69593  0.76752  0.66922  Biso   1.000  N
  H91      1.0000 0.62072  0.76483  0.49679  Biso   1.000  H
  C95      1.0000 0.72019  0.74968  0.58424  Biso   1.000  C
  H92      1.0000 0.62072  0.76477  0.49679  Biso   1.000  H
  C96      1.0000 0.80271  0.81681  0.49333  Biso   1.000  C
  C97      1.0000 0.98533  0.18558  0.65878  Biso   1.000  C
  O33      1.0000 0.75189  0.16419  0.87884  Biso   1.000  O
  N65      1.0000 0.89519  0.16830  0.85399  Biso   1.000  N
  H93      1.0000 0.90313  0.29971  0.75572  Biso   1.000  H
  C98      1.0000 0.95420  0.20641  0.80253  Biso   1.000  C
  C99      1.0000 0.73328  0.73789  0.74421  Biso   1.000  C
  N66      1.0000 0.80531  0.77108  0.55939  Biso   1.000  N
  H94      1.0000 0.71117  0.70019  0.57323  Biso   1.000  H
  O34      1.0000 0.86362  0.83658  0.45382  Biso   1.000  O
  O35      1.0000 0.02420  0.16678  0.59738  Biso   1.000  O
  N67      1.0000 0.00197  0.16688  0.74138  Biso   1.000  N
  C100     1.0000 0.92047  0.12450  0.92313  Biso   1.000  C
  H95      1.0000 0.99231  0.23548  0.83751  Biso   1.000  H
  N68      1.0000 0.81160  0.77179  0.77170  Biso   1.000  N
  H96      1.0000 0.69129  0.73993  0.79039  Biso   1.000  H
  H97      1.0000 0.74592  0.68942  0.73314  Biso   1.000  H
  H98      1.0000 0.69129  0.73987  0.79039  Biso   1.000  H
  C101     1.0000 0.88249  0.74028  0.58593  Biso   1.000  C
  C102     1.0000 0.07400  0.12470  0.76151  Biso   1.000  C
  N69      1.0000 0.94410  0.05569  0.89582  Biso   1.000  N
  H99      1.0000 0.87309  0.12120  0.96383  Biso   1.000  H
  H100     1.0000 0.96938  0.14528  0.95250  Biso   1.000  H
  C103     1.0000 0.81268  0.81518  0.83870  Biso   1.000  C
  C104     1.0000 0.89468  0.74999  0.74560  Biso   1.000  C
  N70      1.0000 0.91920  0.76909  0.66098  Biso   1.000  N
  H101     1.0000 0.90790  0.70359  0.55643  Biso   1.000  H
  N71      1.0000 0.05291  0.05681  0.78693  Biso   1.000  N
  H102     1.0000 0.11148  0.12231  0.71163  Biso   1.000  H
  H103     1.0000 0.10652  0.14660  0.80731  Biso   1.000  H
  C105     1.0000 0.89487  0.00000  0.91312  Biso   1.000  C
  C106     1.0000 0.03119  0.03882  0.87280  Biso   1.000  C
  C107     1.0000 0.03119  0.03877  0.87280  Biso   1.000  C
  O36      1.0000 0.75189  0.83581  0.87884  Biso   1.000  O
  N72      1.0000 0.89519  0.83170  0.85399  Biso   1.000  N
  H104     1.0000 0.90313  0.70029  0.75572  Biso   1.000  H
  C108     1.0000 0.95420  0.79359  0.80253  Biso   1.000  C
  C109     1.0000 0.98533  0.81442  0.65878  Biso   1.000  C
  C110     1.0000 0.98533  0.81437  0.65878  Biso   1.000  C
  C111     1.0000 0.07248  0.00000  0.74201  Biso   1.000  C
  O37      1.0000 0.82227  0.00000  0.93929  Biso   1.000  O
  N73      1.0000 0.94410  0.94431  0.89582  Biso   1.000  N
  C112     1.0000 0.03119  0.96118  0.87280  Biso   1.000  C
  H105     1.0000 0.07298  0.05768  0.91400  Biso   1.000  H
  C113     1.0000 0.92047  0.87550  0.92313  Biso   1.000  C
  H106     1.0000 0.99231  0.76452  0.83751  Biso   1.000  H
  N74      1.0000 0.00197  0.83312  0.74138  Biso   1.000  N
  N75      1.0000 0.00197  0.83307  0.74138  Biso   1.000  N
  O38      1.0000 0.02420  0.83322  0.59738  Biso   1.000  O
  O39      1.0000 0.02420  0.83317  0.59738  Biso   1.000  O
  N76      1.0000 0.05291  0.94319  0.78693  Biso   1.000  N
  O40      1.0000 0.10449  0.00000  0.67111  Biso   1.000  O
  H107     1.0000 0.07298  0.94232  0.91400  Biso   1.000  H
  H108     1.0000 0.07298  0.94227  0.91400  Biso   1.000  H
  H109     1.0000 0.87309  0.87880  0.96383  Biso   1.000  H
  H110     1.0000 0.96938  0.85472  0.95250  Biso   1.000  H
  C114     1.0000 0.07400  0.87530  0.76151  Biso   1.000  C
  H111     1.0000 0.11148  0.87769  0.71163  Biso   1.000  H
  H112     1.0000 0.10652  0.85340  0.80731  Biso   1.000  H
  C115     1.0000 0.38252  0.24031  0.58593  Biso   1.000  C
  N77      1.0000 0.30528  0.27110  0.55939  Biso   1.000  N
  N78      1.0000 0.41917  0.26912  0.66098  Biso   1.000  N
  H113     1.0000 0.40793  0.20362  0.55643  Biso   1.000  H
  C116     1.0000 0.30267  0.31678  0.49333  Biso   1.000  C
  C117     1.0000 0.22022  0.24971  0.58424  Biso   1.000  C
  C118     1.0000 0.48530  0.31440  0.65878  Biso   1.000  C
  C119     1.0000 0.39472  0.25001  0.74560  Biso   1.000  C
  N79      1.0000 0.21889  0.33091  0.47521  Biso   1.000  N
  O41      1.0000 0.36359  0.33660  0.45382  Biso   1.000  O
  C120     1.0000 0.16071  0.29361  0.53020  Biso   1.000  C
  N80      1.0000 0.19590  0.26749  0.66922  Biso   1.000  N
  H114     1.0000 0.21120  0.20021  0.57323  Biso   1.000  H
  O42      1.0000 0.52417  0.33320  0.59738  Biso   1.000  O
  N81      1.0000 0.50200  0.33310  0.74138  Biso   1.000  N
  N82      1.0000 0.31163  0.27181  0.77170  Biso   1.000  N
  H115     1.0000 0.40310  0.20032  0.75572  Biso   1.000  H
  C121     1.0000 0.45417  0.29361  0.80253  Biso   1.000  C
  C122     1.0000 0.19393  0.37609  0.40853  Biso   1.000  C
  N83      1.0000 0.11529  0.33421  0.59172  Biso   1.000  N
  H116     1.0000 0.12069  0.26480  0.49679  Biso   1.000  H
  C123     1.0000 0.13269  0.31470  0.67130  Biso   1.000  C
  C124     1.0000 0.23331  0.23792  0.74421  Biso   1.000  C
  C125     1.0000 0.57397  0.37527  0.76151  Biso   1.000  C
  C126     1.0000 0.31271  0.31521  0.83870  Biso   1.000  C
  N84      1.0000 0.39522  0.33167  0.85399  Biso   1.000  N
  H117     1.0000 0.49228  0.26450  0.83751  Biso   1.000  H
  N85      1.0000 0.16979  0.44311  0.43608  Biso   1.000  N
  H118     1.0000 0.14540  0.35561  0.37789  Biso   1.000  H
  H119     1.0000 0.24163  0.38041  0.36833  Biso   1.000  H
  C127     1.0000 0.04122  0.37522  0.57058  Biso   1.000  C
  O43      1.0000 0.09528  0.33462  0.73371  Biso   1.000  O
  H120     1.0000 0.19132  0.23990  0.79039  Biso   1.000  H
  H121     1.0000 0.24589  0.18939  0.73314  Biso   1.000  H
  N86      1.0000 0.55288  0.44321  0.78693  Biso   1.000  N
  H122     1.0000 0.61151  0.37771  0.71163  Biso   1.000  H
  H123     1.0000 0.60649  0.35342  0.80731  Biso   1.000  H
  O44      1.0000 0.25192  0.33579  0.87884  Biso   1.000  O
  C128     1.0000 0.42050  0.37548  0.92313  Biso   1.000  C
  C129     1.0000 0.21800  0.49997  0.41514  Biso   1.000  C
  C130     1.0000 0.08410  0.46059  0.45911  Biso   1.000  C
  N87      1.0000 0.06079  0.44418  0.54492  Biso   1.000  N
  H124     1.0000 0.00318  0.37700  0.62022  Biso   1.000  H
  H125     1.0000 0.00972  0.35251  0.52460  Biso   1.000  H
  C131     1.0000 0.57251  0.49997  0.74201  Biso   1.000  C
  C132     1.0000 0.53122  0.46120  0.87280  Biso   1.000  C
  N88      1.0000 0.44407  0.44428  0.89582  Biso   1.000  N
  H126     1.0000 0.37312  0.37878  0.96383  Biso   1.000  H
  H127     1.0000 0.46941  0.35469  0.95250  Biso   1.000  H
  O45      1.0000 0.28749  0.49997  0.38161  Biso   1.000  O
  N89      1.0000 0.16979  0.55689  0.43608  Biso   1.000  N
  C133     1.0000 0.08410  0.53941  0.45911  Biso   1.000  C
  H128     1.0000 0.04211  0.44199  0.41803  Biso   1.000  H
  C134     1.0000 0.04567  0.49997  0.59373  Biso   1.000  C
  O46      1.0000 0.60452  0.49997  0.67111  Biso   1.000  O
  N90      1.0000 0.55288  0.55679  0.78693  Biso   1.000  N
  C135     1.0000 0.53122  0.53880  0.87280  Biso   1.000  C
  H129     1.0000 0.57302  0.44230  0.91400  Biso   1.000  H
  C136     1.0000 0.39491  0.49997  0.91312  Biso   1.000  C
  C137     1.0000 0.19393  0.62391  0.40853  Biso   1.000  C
  N91      1.0000 0.06079  0.55582  0.54492  Biso   1.000  N
  H130     1.0000 0.04211  0.55801  0.41803  Biso   1.000  H
  O47      1.0000 0.01937  0.49997  0.66488  Biso   1.000  O
  C138     1.0000 0.57397  0.62468  0.76151  Biso   1.000  C
  N92      1.0000 0.44407  0.55572  0.89582  Biso   1.000  N
  H131     1.0000 0.57302  0.55770  0.91400  Biso   1.000  H
  O48      1.0000 0.32230  0.49997  0.93929  Biso   1.000  O
  N93      1.0000 0.21889  0.66909  0.47521  Biso   1.000  N
  H132     1.0000 0.14540  0.64439  0.37789  Biso   1.000  H
  H133     1.0000 0.24163  0.61959  0.36833  Biso   1.000  H
  C139     1.0000 0.04122  0.62478  0.57058  Biso   1.000  C
  N94      1.0000 0.50200  0.66690  0.74138  Biso   1.000  N
  H134     1.0000 0.61151  0.62229  0.71163  Biso   1.000  H
  H135     1.0000 0.60649  0.64658  0.80731  Biso   1.000  H
  C140     1.0000 0.42050  0.62447  0.92313  Biso   1.000  C
  C141     1.0000 0.30267  0.68322  0.49333  Biso   1.000  C
  C142     1.0000 0.16071  0.70639  0.53020  Biso   1.000  C
  N95      1.0000 0.11529  0.66579  0.59172  Biso   1.000  N
  H136     1.0000 0.00318  0.62300  0.62022  Biso   1.000  H
  H137     1.0000 0.00972  0.64749  0.52460  Biso   1.000  H
  C143     1.0000 0.48530  0.68560  0.65878  Biso   1.000  C
  C144     1.0000 0.45417  0.70639  0.80253  Biso   1.000  C
  N96      1.0000 0.39522  0.66828  0.85399  Biso   1.000  N
  H138     1.0000 0.37312  0.62122  0.96383  Biso   1.000  H
  H139     1.0000 0.46941  0.64531  0.95250  Biso   1.000  H
  O49      1.0000 0.36359  0.66340  0.45382  Biso   1.000  O
  N97      1.0000 0.30528  0.72890  0.55939  Biso   1.000  N
  H140     1.0000 0.12069  0.73520  0.49679  Biso   1.000  H
  C145     1.0000 0.22022  0.75029  0.58424  Biso   1.000  C
  C146     1.0000 0.13269  0.68530  0.67130  Biso   1.000  C
  N98      1.0000 0.41917  0.73088  0.66098  Biso   1.000  N
  O50      1.0000 0.52417  0.66680  0.59738  Biso   1.000  O
  C147     1.0000 0.39472  0.74999  0.74560  Biso   1.000  C
  H141     1.0000 0.49228  0.73550  0.83751  Biso   1.000  H
  C148     1.0000 0.31271  0.68479  0.83870  Biso   1.000  C
  C149     1.0000 0.38252  0.75969  0.58593  Biso   1.000  C
  N99      1.0000 0.19590  0.73251  0.66922  Biso   1.000  N
  H142     1.0000 0.21120  0.79979  0.57323  Biso   1.000  H
  O51      1.0000 0.09528  0.66538  0.73371  Biso   1.000  O
  N100     1.0000 0.31163  0.72819  0.77170  Biso   1.000  N
  H143     1.0000 0.40310  0.79968  0.75572  Biso   1.000  H
  O52      1.0000 0.25192  0.66421  0.87884  Biso   1.000  O
  H144     1.0000 0.40793  0.79638  0.55643  Biso   1.000  H
  C150     1.0000 0.23331  0.76208  0.74421  Biso   1.000  C
  H145     1.0000 0.19132  0.76010  0.79039  Biso   1.000  H
  H146     1.0000 0.24589  0.81061  0.73314  Biso   1.000  H
  O53      1.0000 0.40469  0.16540  0.23371  Biso   1.000  O
  C151     1.0000 0.36727  0.18532  0.17130  Biso   1.000  C
  C152     1.0000 0.36727  0.18527  0.17130  Biso   1.000  C
  N101     1.0000 0.30407  0.23248  0.16922  Biso   1.000  N
  N102     1.0000 0.38468  0.16581  0.09172  Biso   1.000  N
  C153     1.0000 0.26672  0.26211  0.24421  Biso   1.000  C
  C154     1.0000 0.27981  0.25032  0.08417  Biso   1.000  C
  C155     1.0000 0.33933  0.20641  0.03020  Biso   1.000  C
  C156     1.0000 0.45881  0.12480  0.07058  Biso   1.000  C
  N103     1.0000 0.18840  0.22821  0.27170  Biso   1.000  N
  H147     1.0000 0.30871  0.26007  0.29039  Biso   1.000  H
  H148     1.0000 0.25408  0.31058  0.23308  Biso   1.000  H
  N104     1.0000 0.19469  0.22892  0.05939  Biso   1.000  N
  H149     1.0000 0.28883  0.29981  0.07323  Biso   1.000  H
  N105     1.0000 0.19469  0.22887  0.05939  Biso   1.000  N
  N106     1.0000 0.28108  0.16911  0.97521  Biso   1.000  N
  H150     1.0000 0.37928  0.23517  0.99679  Biso   1.000  H
  N107     1.0000 0.43918  0.05580  0.04492  Biso   1.000  N
  H151     1.0000 0.49679  0.12302  0.12022  Biso   1.000  H
  H152     1.0000 0.49031  0.14752  0.02460  Biso   1.000  H
  H153     1.0000 0.49679  0.12297  0.12022  Biso   1.000  H
  C157     1.0000 0.18732  0.18482  0.33870  Biso   1.000  C
  C158     1.0000 0.10532  0.25001  0.24560  Biso   1.000  C
  C159     1.0000 0.11751  0.25972  0.08587  Biso   1.000  C
  C160     1.0000 0.19729  0.18319  0.99327  Biso   1.000  C
  C161     1.0000 0.30610  0.12389  0.90847  Biso   1.000  C
  C162     1.0000 0.45430  0.00000  0.09367  Biso   1.000  C
  C163     1.0000 0.41593  0.03938  0.95911  Biso   1.000  C
  O54      1.0000 0.24811  0.16419  0.37877  Biso   1.000  O
  N108     1.0000 0.10481  0.16830  0.35399  Biso   1.000  N
  N109     1.0000 0.08080  0.23091  0.16098  Biso   1.000  N
  H154     1.0000 0.09687  0.29971  0.25572  Biso   1.000  H
  C164     1.0000 0.04580  0.20641  0.30253  Biso   1.000  C
  H155     1.0000 0.09210  0.29641  0.05643  Biso   1.000  H
  O55      1.0000 0.13638  0.16342  0.95382  Biso   1.000  O
  O56      1.0000 0.13638  0.16337  0.95382  Biso   1.000  O
  N110     1.0000 0.33018  0.05691  0.93608  Biso   1.000  N
  H156     1.0000 0.35457  0.14442  0.87789  Biso   1.000  H
  H157     1.0000 0.25840  0.11962  0.86827  Biso   1.000  H
  H158     1.0000 0.25840  0.11957  0.86827  Biso   1.000  H
  O57      1.0000 0.48059  0.00000  0.16488  Biso   1.000  O
  N111     1.0000 0.43918  0.94420  0.04492  Biso   1.000  N
  C165     1.0000 0.41593  0.96062  0.95911  Biso   1.000  C
  H159     1.0000 0.45792  0.05798  0.91803  Biso   1.000  H
  C166     1.0000 0.07953  0.12450  0.42313  Biso   1.000  C
  C167     1.0000 0.01467  0.18558  0.15878  Biso   1.000  C
  H160     1.0000 0.00769  0.23548  0.33751  Biso   1.000  H
  N112     1.0000 0.99803  0.16688  0.24138  Biso   1.000  N
  C168     1.0000 0.28203  0.00000  0.91507  Biso   1.000  C
  C169     1.0000 0.45881  0.87520  0.07058  Biso   1.000  C
  N113     1.0000 0.33018  0.94309  0.93608  Biso   1.000  N
  H161     1.0000 0.45792  0.94202  0.91803  Biso   1.000  H
  N114     1.0000 0.05590  0.05569  0.39582  Biso   1.000  N
  H162     1.0000 0.12691  0.12120  0.46383  Biso   1.000  H
  H163     1.0000 0.03062  0.14528  0.45250  Biso   1.000  H
  O58      1.0000 0.97580  0.16678  0.09738  Biso   1.000  O
  C170     1.0000 0.92600  0.12470  0.26151  Biso   1.000  C
  O59      1.0000 0.21248  0.00000  0.88161  Biso   1.000  O
  N115     1.0000 0.38468  0.83419  0.09172  Biso   1.000  N
  H164     1.0000 0.49679  0.87698  0.12022  Biso   1.000  H
  H165     1.0000 0.49031  0.85248  0.02460  Biso   1.000  H
  C171     1.0000 0.30610  0.87611  0.90847  Biso   1.000  C
  C172     1.0000 0.10513  0.00000  0.41312  Biso   1.000  C
  C173     1.0000 0.96881  0.03882  0.37280  Biso   1.000  C
  C174     1.0000 0.96881  0.03877  0.37280  Biso   1.000  C
  N116     1.0000 0.94709  0.05681  0.28693  Biso   1.000  N
  H166     1.0000 0.88852  0.12231  0.21163  Biso   1.000  H
  H167     1.0000 0.89348  0.14660  0.30731  Biso   1.000  H
  C175     1.0000 0.36727  0.81468  0.17130  Biso   1.000  C
  C176     1.0000 0.33933  0.79359  0.03020  Biso   1.000  C
  N117     1.0000 0.28108  0.83089  0.97521  Biso   1.000  N
  H168     1.0000 0.35457  0.85558  0.87789  Biso   1.000  H
  H169     1.0000 0.25840  0.88038  0.86827  Biso   1.000  H
  O60      1.0000 0.17773  0.00000  0.43929  Biso   1.000  O
  N118     1.0000 0.05590  0.94431  0.39582  Biso   1.000  N
  C177     1.0000 0.96881  0.96118  0.37280  Biso   1.000  C
  H170     1.0000 0.92702  0.05768  0.41400  Biso   1.000  H
  C178     1.0000 0.92752  0.00000  0.24201  Biso   1.000  C
  O61      1.0000 0.40469  0.83460  0.23371  Biso   1.000  O
  N119     1.0000 0.30407  0.76752  0.16922  Biso   1.000  N
  H171     1.0000 0.37928  0.76483  0.99679  Biso   1.000  H
  H172     1.0000 0.37928  0.76477  0.99679  Biso   1.000  H
  C179     1.0000 0.27981  0.74968  0.08417  Biso   1.000  C
  C180     1.0000 0.19729  0.81681  0.99327  Biso   1.000  C
  C181     1.0000 0.07953  0.87550  0.42313  Biso   1.000  C
  N120     1.0000 0.94709  0.94319  0.28693  Biso   1.000  N
  H173     1.0000 0.92702  0.94232  0.41400  Biso   1.000  H
  H174     1.0000 0.92702  0.94227  0.41400  Biso   1.000  H
  O62      1.0000 0.89551  0.00000  0.17111  Biso   1.000  O
  C182     1.0000 0.26672  0.73789  0.24421  Biso   1.000  C
  N121     1.0000 0.19469  0.77108  0.05939  Biso   1.000  N
  H175     1.0000 0.28883  0.70019  0.07323  Biso   1.000  H
  O63      1.0000 0.13638  0.83658  0.95382  Biso   1.000  O
  N122     1.0000 0.10481  0.83170  0.35399  Biso   1.000  N
  H176     1.0000 0.12691  0.87880  0.46383  Biso   1.000  H
  H177     1.0000 0.03062  0.85472  0.45250  Biso   1.000  H
  C183     1.0000 0.92600  0.87530  0.26151  Biso   1.000  C
  N123     1.0000 0.18840  0.77179  0.27170  Biso   1.000  N
  H178     1.0000 0.30871  0.73993  0.29039  Biso   1.000  H
  H179     1.0000 0.25408  0.68942  0.23308  Biso   1.000  H
  H180     1.0000 0.30871  0.73987  0.29039  Biso   1.000  H
  C184     1.0000 0.11751  0.74028  0.08587  Biso   1.000  C
  C185     1.0000 0.18732  0.81518  0.33870  Biso   1.000  C
  C186     1.0000 0.04580  0.79359  0.30253  Biso   1.000  C
  N124     1.0000 0.99803  0.83312  0.24138  Biso   1.000  N
  H181     1.0000 0.88852  0.87769  0.21163  Biso   1.000  H
  H182     1.0000 0.89348  0.85340  0.30731  Biso   1.000  H
  N125     1.0000 0.99803  0.83307  0.24138  Biso   1.000  N
  C187     1.0000 0.10532  0.74999  0.24560  Biso   1.000  C
  N126     1.0000 0.08080  0.76909  0.16098  Biso   1.000  N
  H183     1.0000 0.09210  0.70359  0.05643  Biso   1.000  H
  O64      1.0000 0.24811  0.83581  0.37877  Biso   1.000  O
  H184     1.0000 0.00769  0.76452  0.33751  Biso   1.000  H
  C188     1.0000 0.01467  0.81442  0.15878  Biso   1.000  C
  C189     1.0000 0.01467  0.81437  0.15878  Biso   1.000  C
  H185     1.0000 0.09687  0.70029  0.25572  Biso   1.000  H
  O65      1.0000 0.97580  0.83322  0.09738  Biso   1.000  O
  O66      1.0000 0.97580  0.83317  0.09738  Biso   1.000  O
  O67      1.0000 0.40469  0.16540  0.23371  Biso   1.000  O
  C190     1.0000 0.36727  0.18532  0.17130  Biso   1.000  C
  C191     1.0000 0.36727  0.18527  0.17130  Biso   1.000  C
  N127     1.0000 0.30407  0.23248  0.16922  Biso   1.000  N
  N128     1.0000 0.38468  0.16581  0.09172  Biso   1.000  N
  C192     1.0000 0.26672  0.26211  0.24421  Biso   1.000  C
  C193     1.0000 0.27981  0.25032  0.08417  Biso   1.000  C
  C194     1.0000 0.33933  0.20641  0.03020  Biso   1.000  C
  C195     1.0000 0.45881  0.12480  0.07058  Biso   1.000  C
  N129     1.0000 0.18840  0.22821  0.27170  Biso   1.000  N
  H186     1.0000 0.30871  0.26007  0.29039  Biso   1.000  H
  H187     1.0000 0.25408  0.31058  0.23308  Biso   1.000  H
  H188     1.0000 0.28883  0.29981  0.07323  Biso   1.000  H
  N130     1.0000 0.19469  0.22892  0.05939  Biso   1.000  N
  N131     1.0000 0.19469  0.22887  0.05939  Biso   1.000  N
  N132     1.0000 0.28108  0.16911  0.97521  Biso   1.000  N
  H189     1.0000 0.37928  0.23517  0.99679  Biso   1.000  H
  N133     1.0000 0.43918  0.05580  0.04492  Biso   1.000  N
  H190     1.0000 0.49031  0.14752  0.02460  Biso   1.000  H
  H191     1.0000 0.49679  0.12302  0.12022  Biso   1.000  H
  H192     1.0000 0.49679  0.12297  0.12022  Biso   1.000  H
  C196     1.0000 0.18732  0.18482  0.33870  Biso   1.000  C
  C197     1.0000 0.10532  0.25001  0.24560  Biso   1.000  C
  C198     1.0000 0.11751  0.25972  0.08587  Biso   1.000  C
  C199     1.0000 0.19729  0.18319  0.99327  Biso   1.000  C
  C200     1.0000 0.30610  0.12389  0.90847  Biso   1.000  C
  C201     1.0000 0.45430  0.00000  0.09367  Biso   1.000  C
  C202     1.0000 0.41593  0.03938  0.95911  Biso   1.000  C
  O68      1.0000 0.24811  0.16419  0.37877  Biso   1.000  O
  N134     1.0000 0.10481  0.16830  0.35399  Biso   1.000  N
  N135     1.0000 0.08080  0.23091  0.16098  Biso   1.000  N
  H193     1.0000 0.09687  0.29971  0.25572  Biso   1.000  H
  C203     1.0000 0.04580  0.20641  0.30253  Biso   1.000  C
  H194     1.0000 0.09210  0.29641  0.05643  Biso   1.000  H
  O69      1.0000 0.13638  0.16342  0.95382  Biso   1.000  O
  O70      1.0000 0.13638  0.16337  0.95382  Biso   1.000  O
  N136     1.0000 0.33018  0.05691  0.93608  Biso   1.000  N
  H195     1.0000 0.35457  0.14442  0.87789  Biso   1.000  H
  H196     1.0000 0.25840  0.11962  0.86827  Biso   1.000  H
  H197     1.0000 0.25840  0.11957  0.86827  Biso   1.000  H
  O71      1.0000 0.48059  0.00000  0.16488  Biso   1.000  O
  N137     1.0000 0.43918  0.94420  0.04492  Biso   1.000  N
  C204     1.0000 0.41593  0.96062  0.95911  Biso   1.000  C
  H198     1.0000 0.45792  0.05798  0.91803  Biso   1.000  H
  C205     1.0000 0.07953  0.12450  0.42313  Biso   1.000  C
  C206     1.0000 0.01467  0.18558  0.15878  Biso   1.000  C
  H199     1.0000 0.00769  0.23548  0.33751  Biso   1.000  H
  N138     1.0000 0.99803  0.16688  0.24138  Biso   1.000  N
  C207     1.0000 0.28203  0.00000  0.91507  Biso   1.000  C
  C208     1.0000 0.45881  0.87520  0.07058  Biso   1.000  C
  N139     1.0000 0.33018  0.94309  0.93608  Biso   1.000  N
  H200     1.0000 0.45792  0.94202  0.91803  Biso   1.000  H
  N140     1.0000 0.05590  0.05569  0.39582  Biso   1.000  N
  H201     1.0000 0.12691  0.12120  0.46383  Biso   1.000  H
  H202     1.0000 0.03062  0.14528  0.45250  Biso   1.000  H
  O72      1.0000 0.97580  0.16678  0.09738  Biso   1.000  O
  C209     1.0000 0.92600  0.12470  0.26151  Biso   1.000  C
  O73      1.0000 0.21248  0.00000  0.88161  Biso   1.000  O
  N141     1.0000 0.38468  0.83419  0.09172  Biso   1.000  N
  H203     1.0000 0.49679  0.87698  0.12022  Biso   1.000  H
  H204     1.0000 0.49031  0.85248  0.02460  Biso   1.000  H
  C210     1.0000 0.30610  0.87611  0.90847  Biso   1.000  C
  C211     1.0000 0.10513  0.00000  0.41312  Biso   1.000  C
  C212     1.0000 0.96881  0.03882  0.37280  Biso   1.000  C
  C213     1.0000 0.96881  0.03877  0.37280  Biso   1.000  C
  N142     1.0000 0.94709  0.05681  0.28693  Biso   1.000  N
  H205     1.0000 0.88852  0.12231  0.21163  Biso   1.000  H
  H206     1.0000 0.89348  0.14660  0.30731  Biso   1.000  H
  C214     1.0000 0.36727  0.81468  0.17130  Biso   1.000  C
  C215     1.0000 0.33933  0.79359  0.03020  Biso   1.000  C
  N143     1.0000 0.28108  0.83089  0.97521  Biso   1.000  N
  H207     1.0000 0.35457  0.85558  0.87789  Biso   1.000  H
  H208     1.0000 0.25840  0.88038  0.86827  Biso   1.000  H
  O74      1.0000 0.17773  0.00000  0.43929  Biso   1.000  O
  N144     1.0000 0.05590  0.94431  0.39582  Biso   1.000  N
  C216     1.0000 0.96881  0.96118  0.37280  Biso   1.000  C
  H209     1.0000 0.92702  0.05768  0.41400  Biso   1.000  H
  C217     1.0000 0.92752  0.00000  0.24201  Biso   1.000  C
  O75      1.0000 0.40469  0.83460  0.23371  Biso   1.000  O
  N145     1.0000 0.30407  0.76752  0.16922  Biso   1.000  N
  H210     1.0000 0.37928  0.76483  0.99679  Biso   1.000  H
  H211     1.0000 0.37928  0.76477  0.99679  Biso   1.000  H
  C218     1.0000 0.27981  0.74968  0.08417  Biso   1.000  C
  C219     1.0000 0.19729  0.81681  0.99327  Biso   1.000  C
  C220     1.0000 0.07953  0.87550  0.42313  Biso   1.000  C
  N146     1.0000 0.94709  0.94319  0.28693  Biso   1.000  N
  H212     1.0000 0.92702  0.94232  0.41400  Biso   1.000  H
  H213     1.0000 0.92702  0.94227  0.41400  Biso   1.000  H
  O76      1.0000 0.89551  0.00000  0.17111  Biso   1.000  O
  C221     1.0000 0.26672  0.73789  0.24421  Biso   1.000  C
  N147     1.0000 0.19469  0.77108  0.05939  Biso   1.000  N
  H214     1.0000 0.28883  0.70019  0.07323  Biso   1.000  H
  O77      1.0000 0.13638  0.83658  0.95382  Biso   1.000  O
  N148     1.0000 0.10481  0.83170  0.35399  Biso   1.000  N
  H215     1.0000 0.12691  0.87880  0.46383  Biso   1.000  H
  H216     1.0000 0.03062  0.85472  0.45250  Biso   1.000  H
  C222     1.0000 0.92600  0.87530  0.26151  Biso   1.000  C
  N149     1.0000 0.18840  0.77179  0.27170  Biso   1.000  N
  H217     1.0000 0.30871  0.73993  0.29039  Biso   1.000  H
  H218     1.0000 0.25408  0.68942  0.23308  Biso   1.000  H
  H219     1.0000 0.30871  0.73987  0.29039  Biso   1.000  H
  C223     1.0000 0.11751  0.74028  0.08587  Biso   1.000  C
  C224     1.0000 0.18732  0.81518  0.33870  Biso   1.000  C
  C225     1.0000 0.04580  0.79359  0.30253  Biso   1.000  C
  N150     1.0000 0.99803  0.83312  0.24138  Biso   1.000  N
  H220     1.0000 0.88852  0.87769  0.21163  Biso   1.000  H
  H221     1.0000 0.89348  0.85340  0.30731  Biso   1.000  H
  N151     1.0000 0.99803  0.83307  0.24138  Biso   1.000  N
  C226     1.0000 0.10532  0.74999  0.24560  Biso   1.000  C
  N152     1.0000 0.08080  0.76909  0.16098  Biso   1.000  N
  H222     1.0000 0.09210  0.70359  0.05643  Biso   1.000  H
  O78      1.0000 0.24811  0.83581  0.37877  Biso   1.000  O
  H223     1.0000 0.00769  0.76452  0.33751  Biso   1.000  H
  C227     1.0000 0.01467  0.81442  0.15878  Biso   1.000  C
  C228     1.0000 0.01467  0.81437  0.15878  Biso   1.000  C
  H224     1.0000 0.09687  0.70029  0.25572  Biso   1.000  H
  O79      1.0000 0.97580  0.83322  0.09738  Biso   1.000  O
  O80      1.0000 0.97580  0.83317  0.09738  Biso   1.000  O
