data_image0
_cell_length_a       23.804
_cell_length_b       24.524
_cell_length_c       23.693
_cell_angle_alpha    90
_cell_angle_beta     118.89
_cell_angle_gamma    90

_symmetry_space_group_name_H-M    "P 1"
_symmetry_int_tables_number       1

loop_
  _symmetry_equiv_pos_as_xyz
  'x, y, z'

loop_
  _atom_site_label
  _atom_site_occupancy
  _atom_site_fract_x
  _atom_site_fract_y
  _atom_site_fract_z
  _atom_site_thermal_displace_type
  _atom_site_B_iso_or_equiv
  _atom_site_type_symbol
  C1       1.0000 0.57225  0.59301  0.56791  Biso   1.000  C
  O1       1.0000 0.57385  0.60023  0.62856  Biso   1.000  O
  H1       1.0000 0.53594  0.61348  0.53364  Biso   1.000  H
  H2       1.0000 0.56744  0.55391  0.55591  Biso   1.000  H
  C2       1.0000 0.63573  0.61483  0.57683  Biso   1.000  C
  C3       1.0000 0.51574  0.60300  0.62793  Biso   1.000  C
  N1       1.0000 0.64085  0.67310  0.58599  Biso   1.000  N
  H3       1.0000 0.67122  0.59701  0.61482  Biso   1.000  H
  H4       1.0000 0.64003  0.60541  0.53851  Biso   1.000  H
  C4       1.0000 0.46013  0.57960  0.58112  Biso   1.000  C
  C5       1.0000 0.51785  0.62938  0.68062  Biso   1.000  C
  C6       1.0000 0.61383  0.70608  0.52781  Biso   1.000  C
  C7       1.0000 0.69856  0.69401  0.64022  Biso   1.000  C
  C8       1.0000 0.40414  0.58380  0.58585  Biso   1.000  C
  H5       1.0000 0.45993  0.56080  0.54603  Biso   1.000  H
  C9       1.0000 0.46172  0.63375  0.68472  Biso   1.000  C
  H6       1.0000 0.55695  0.64419  0.71335  Biso   1.000  H
  C10      1.0000 0.59374  0.76191  0.53721  Biso   1.000  C
  H7       1.0000 0.57601  0.68708  0.49363  Biso   1.000  H
  H8       1.0000 0.64604  0.70992  0.51301  Biso   1.000  H
  C11      1.0000 0.68426  0.71261  0.69252  Biso   1.000  C
  H9       1.0000 0.71544  0.72488  0.62615  Biso   1.000  H
  H10      1.0000 0.73165  0.66510  0.65724  Biso   1.000  H
  C12      1.0000 0.34265  0.55831  0.53513  Biso   1.000  C
  C13      1.0000 0.40454  0.61112  0.63752  Biso   1.000  C
  O2       1.0000 0.46770  0.65988  0.73847  Biso   1.000  O
  O3       1.0000 0.54559  0.75575  0.55572  Biso   1.000  O
  H11      1.0000 0.63106  0.78168  0.57114  Biso   1.000  H
  H12      1.0000 0.57683  0.78299  0.49671  Biso   1.000  H
  O4       1.0000 0.74250  0.73092  0.74637  Biso   1.000  O
  H13      1.0000 0.65253  0.74270  0.67633  Biso   1.000  H
  H14      1.0000 0.66583  0.68211  0.70573  Biso   1.000  H
  H15      1.0000 0.30826  0.56528  0.54564  Biso   1.000  H
  H16      1.0000 0.34854  0.51888  0.53383  Biso   1.000  H
  H17      1.0000 0.33113  0.57409  0.49290  Biso   1.000  H
  H18      1.0000 0.36636  0.61430  0.64051  Biso   1.000  H
  C14      1.0000 0.41005  0.67909  0.73740  Biso   1.000  C
  C15      1.0000 0.53502  0.79901  0.58642  Biso   1.000  C
  C16      1.0000 0.74135  0.74527  0.80171  Biso   1.000  C
  H19      1.0000 0.38465  0.64790  0.73943  Biso   1.000  H
  H20      1.0000 0.38348  0.69960  0.69725  Biso   1.000  H
  C17      1.0000 0.42993  0.71518  0.79482  Biso   1.000  C
  C18      1.0000 0.49972  0.78609  0.61732  Biso   1.000  C
  C19      1.0000 0.55747  0.85149  0.58854  Biso   1.000  C
  C20      1.0000 0.68507  0.75024  0.80533  Biso   1.000  C
  C21      1.0000 0.79993  0.75538  0.85522  Biso   1.000  C
  N2       1.0000 0.46172  0.76423  0.79173  Biso   1.000  N
  H21      1.0000 0.39146  0.72541  0.79824  Biso   1.000  H
  H22      1.0000 0.45919  0.69471  0.83425  Biso   1.000  H
  C22      1.0000 0.48625  0.82711  0.64924  Biso   1.000  C
  H23      1.0000 0.48504  0.74988  0.61650  Biso   1.000  H
  C23      1.0000 0.54424  0.89231  0.62123  Biso   1.000  C
  H24      1.0000 0.58194  0.85969  0.56762  Biso   1.000  H
  C24      1.0000 0.68957  0.76533  0.86404  Biso   1.000  C
  H25      1.0000 0.64454  0.74352  0.76874  Biso   1.000  H
  C25      1.0000 0.80486  0.77092  0.91336  Biso   1.000  C
  H26      1.0000 0.83797  0.75151  0.85194  Biso   1.000  H
  C26      1.0000 0.42198  0.81141  0.76054  Biso   1.000  C
  C27      1.0000 0.52663  0.77418  0.84312  Biso   1.000  C
  O5       1.0000 0.45080  0.81031  0.67816  Biso   1.000  O
  C28      1.0000 0.50894  0.87979  0.65222  Biso   1.000  C
  C29      1.0000 0.56774  0.94927  0.62214  Biso   1.000  C
  O6       1.0000 0.63751  0.77051  0.87354  Biso   1.000  O
  C30      1.0000 0.74848  0.77646  0.91736  Biso   1.000  C
  C31      1.0000 0.86977  0.78140  0.97154  Biso   1.000  C
  C32      1.0000 0.44716  0.84542  0.72502  Biso   1.000  C
  H27      1.0000 0.41914  0.83420  0.79352  Biso   1.000  H
  H28      1.0000 0.37806  0.79889  0.72984  Biso   1.000  H
  C33      1.0000 0.57445  0.76309  0.81911  Biso   1.000  C
  H29      1.0000 0.53604  0.75020  0.88033  Biso   1.000  H
  H30      1.0000 0.53068  0.81259  0.85773  Biso   1.000  H
  H31      1.0000 0.50034  0.90719  0.67532  Biso   1.000  H
  H32      1.0000 0.59165  0.95029  0.59804  Biso   1.000  H
  H33      1.0000 0.59595  0.96061  0.66673  Biso   1.000  H
  H34      1.0000 0.53106  0.97419  0.60204  Biso   1.000  H
  H35      1.0000 0.75048  0.78780  0.95664  Biso   1.000  H
  H36      1.0000 0.90355  0.77528  0.95992  Biso   1.000  H
  H37      1.0000 0.87179  0.81912  0.98595  Biso   1.000  H
  H38      1.0000 0.87586  0.75648  0.00639  Biso   1.000  H
  H39      1.0000 0.41803  0.87649  0.70332  Biso   1.000  H
  H40      1.0000 0.49017  0.86001  0.75524  Biso   1.000  H
  H41      1.0000 0.56946  0.72541  0.80253  Biso   1.000  H
  H42      1.0000 0.56766  0.78870  0.78412  Biso   1.000  H
  C34      1.0000 0.42784  0.40699  0.43212  Biso   1.000  C
  C35      1.0000 0.36432  0.38517  0.42320  Biso   1.000  C
  O7       1.0000 0.42626  0.39977  0.37152  Biso   1.000  O
  H43      1.0000 0.46413  0.38648  0.46644  Biso   1.000  H
  H44      1.0000 0.43265  0.44609  0.44412  Biso   1.000  H
  N3       1.0000 0.35922  0.32690  0.41409  Biso   1.000  N
  H45      1.0000 0.32883  0.40299  0.38521  Biso   1.000  H
  H46      1.0000 0.36002  0.39459  0.46152  Biso   1.000  H
  C36      1.0000 0.48430  0.39696  0.37210  Biso   1.000  C
  C37      1.0000 0.30153  0.30599  0.35981  Biso   1.000  C
  C38      1.0000 0.38621  0.29392  0.47222  Biso   1.000  C
  C39      1.0000 0.48220  0.37062  0.31941  Biso   1.000  C
  C40      1.0000 0.53992  0.42040  0.41891  Biso   1.000  C
  C41      1.0000 0.31583  0.28739  0.30750  Biso   1.000  C
  H47      1.0000 0.28463  0.27512  0.37393  Biso   1.000  H
  H48      1.0000 0.26839  0.33490  0.34279  Biso   1.000  H
  C42      1.0000 0.40631  0.23809  0.46282  Biso   1.000  C
  H49      1.0000 0.42403  0.31292  0.50640  Biso   1.000  H
  H50      1.0000 0.35405  0.29008  0.48702  Biso   1.000  H
  C43      1.0000 0.53833  0.36625  0.31531  Biso   1.000  C
  H51      1.0000 0.44312  0.35581  0.28673  Biso   1.000  H
  C44      1.0000 0.59593  0.41620  0.41423  Biso   1.000  C
  H52      1.0000 0.54011  0.43920  0.45400  Biso   1.000  H
  O8       1.0000 0.25759  0.26908  0.25366  Biso   1.000  O
  H53      1.0000 0.34752  0.25730  0.32370  Biso   1.000  H
  H54      1.0000 0.33422  0.31789  0.29430  Biso   1.000  H
  O9       1.0000 0.45450  0.24425  0.44431  Biso   1.000  O
  H55      1.0000 0.36905  0.21832  0.42894  Biso   1.000  H
  H56      1.0000 0.42322  0.21701  0.50332  Biso   1.000  H
  O10      1.0000 0.53237  0.34012  0.26161  Biso   1.000  O
  C45      1.0000 0.59551  0.38888  0.36251  Biso   1.000  C
  C46      1.0000 0.65743  0.44169  0.46490  Biso   1.000  C
  C47      1.0000 0.25870  0.25473  0.19832  Biso   1.000  C
  C48      1.0000 0.46503  0.20099  0.41361  Biso   1.000  C
  C49      1.0000 0.59004  0.32091  0.26263  Biso   1.000  C
  H57      1.0000 0.63373  0.38570  0.35952  Biso   1.000  H
  H58      1.0000 0.69185  0.43472  0.45444  Biso   1.000  H
  H59      1.0000 0.65151  0.48108  0.46620  Biso   1.000  H
  H60      1.0000 0.66892  0.42591  0.50713  Biso   1.000  H
  C50      1.0000 0.31502  0.24976  0.19470  Biso   1.000  C
  C51      1.0000 0.20012  0.24462  0.14481  Biso   1.000  C
  C52      1.0000 0.50033  0.21391  0.38271  Biso   1.000  C
  C53      1.0000 0.44265  0.14851  0.41153  Biso   1.000  C
  C54      1.0000 0.57012  0.28478  0.20521  Biso   1.000  C
  H61      1.0000 0.61540  0.35210  0.26060  Biso   1.000  H
  H62      1.0000 0.61664  0.30040  0.30283  Biso   1.000  H
  C55      1.0000 0.31048  0.23467  0.13599  Biso   1.000  C
  H63      1.0000 0.35551  0.25648  0.23129  Biso   1.000  H
  C56      1.0000 0.19521  0.22904  0.08672  Biso   1.000  C
  H64      1.0000 0.16212  0.24849  0.14809  Biso   1.000  H
  C57      1.0000 0.51380  0.17289  0.35079  Biso   1.000  C
  H65      1.0000 0.51505  0.25008  0.38353  Biso   1.000  H
  C58      1.0000 0.45581  0.10769  0.37880  Biso   1.000  C
  H66      1.0000 0.41811  0.14031  0.43241  Biso   1.000  H
  N4       1.0000 0.53833  0.23577  0.20830  Biso   1.000  N
  H67      1.0000 0.60859  0.27459  0.20179  Biso   1.000  H
  H68      1.0000 0.54093  0.30529  0.16583  Biso   1.000  H
  O11      1.0000 0.36258  0.22949  0.12649  Biso   1.000  O
  C59      1.0000 0.25159  0.22354  0.08272  Biso   1.000  C
  C60      1.0000 0.13028  0.21860  0.02849  Biso   1.000  C
  O12      1.0000 0.54925  0.18965  0.32187  Biso   1.000  O
  C61      1.0000 0.49110  0.12021  0.34781  Biso   1.000  C
  C62      1.0000 0.43233  0.05073  0.37793  Biso   1.000  C
  C63      1.0000 0.47341  0.22578  0.15691  Biso   1.000  C
  C64      1.0000 0.57811  0.18859  0.23949  Biso   1.000  C
  C65      1.0000 0.42560  0.23691  0.18092  Biso   1.000  C
  H69      1.0000 0.24961  0.21220  0.04339  Biso   1.000  H
  H70      1.0000 0.09650  0.22472  0.04011  Biso   1.000  H
  H71      1.0000 0.12833  0.18088  0.01412  Biso   1.000  H
  H72      1.0000 0.12419  0.24352  0.99364  Biso   1.000  H
  C66      1.0000 0.55293  0.15458  0.27501  Biso   1.000  C
  H73      1.0000 0.49970  0.09281  0.32471  Biso   1.000  H
  H74      1.0000 0.40842  0.04971  0.40204  Biso   1.000  H
  H75      1.0000 0.40410  0.03939  0.33330  Biso   1.000  H
  H76      1.0000 0.46905  0.02581  0.39804  Biso   1.000  H
  H77      1.0000 0.46400  0.24980  0.11970  Biso   1.000  H
  H78      1.0000 0.46941  0.18741  0.14230  Biso   1.000  H
  H79      1.0000 0.58091  0.16580  0.20651  Biso   1.000  H
  H80      1.0000 0.62199  0.20111  0.27019  Biso   1.000  H
  H81      1.0000 0.43059  0.27459  0.19750  Biso   1.000  H
  H82      1.0000 0.43243  0.21130  0.21591  Biso   1.000  H
  H83      1.0000 0.58202  0.12351  0.29671  Biso   1.000  H
  H84      1.0000 0.50992  0.13999  0.24479  Biso   1.000  H
  O13      1.0000 0.56350  0.43892  0.62913  Biso   1.000  O
  C67      1.0000 0.51903  0.44866  0.64822  Biso   1.000  C
  C68      1.0000 0.62816  0.45588  0.67074  Biso   1.000  C
  C69      1.0000 0.45934  0.42526  0.61014  Biso   1.000  C
  C70      1.0000 0.53194  0.47847  0.70294  Biso   1.000  C
  H85      1.0000 0.63135  0.49609  0.67064  Biso   1.000  H
  H86      1.0000 0.64234  0.44369  0.71542  Biso   1.000  H
  C71      1.0000 0.66896  0.43019  0.64524  Biso   1.000  C
  C72      1.0000 0.41067  0.43068  0.62634  Biso   1.000  C
  H87      1.0000 0.45164  0.40540  0.57264  Biso   1.000  H
  C73      1.0000 0.48207  0.48455  0.71803  Biso   1.000  C
  H88      1.0000 0.57293  0.49421  0.72911  Biso   1.000  H
  N5       1.0000 0.73514  0.44846  0.68520  Biso   1.000  N
  H89      1.0000 0.65325  0.44128  0.59983  Biso   1.000  H
  H90      1.0000 0.66666  0.38999  0.64683  Biso   1.000  H
  C74      1.0000 0.34594  0.40471  0.58512  Biso   1.000  C
  C75      1.0000 0.42284  0.46004  0.68091  Biso   1.000  C
  O14      1.0000 0.48787  0.51329  0.77071  Biso   1.000  O
  C76      1.0000 0.75774  0.48981  0.65714  Biso   1.000  C
  C77      1.0000 0.78257  0.40609  0.72015  Biso   1.000  C
  H91      1.0000 0.31775  0.41241  0.60363  Biso   1.000  H
  H92      1.0000 0.32684  0.41971  0.54130  Biso   1.000  H
  H93      1.0000 0.35114  0.36519  0.58353  Biso   1.000  H
  H94      1.0000 0.39043  0.46351  0.69310  Biso   1.000  H
  C78      1.0000 0.54958  0.53450  0.81535  Biso   1.000  C
  C79      1.0000 0.79663  0.53229  0.70622  Biso   1.000  C
  H95      1.0000 0.78435  0.47239  0.64041  Biso   1.000  H
  H96      1.0000 0.72054  0.50730  0.62051  Biso   1.000  H
  C80      1.0000 0.77105  0.37861  0.77105  Biso   1.000  C
  H97      1.0000 0.78107  0.37828  0.68915  Biso   1.000  H
  H98      1.0000 0.82592  0.42248  0.74102  Biso   1.000  H
  H99      1.0000 0.58174  0.50489  0.83261  Biso   1.000  H
  H100     1.0000 0.56378  0.56169  0.79395  Biso   1.000  H
  C81      1.0000 0.54194  0.56108  0.86891  Biso   1.000  C
  O15      1.0000 0.75138  0.56337  0.71740  Biso   1.000  O
  H101     1.0000 0.81894  0.55619  0.68963  Biso   1.000  H
  H102     1.0000 0.82912  0.51501  0.74661  Biso   1.000  H
  O16      1.0000 0.77311  0.42008  0.81429  Biso   1.000  O
  H103     1.0000 0.80456  0.35080  0.79453  Biso   1.000  H
  H104     1.0000 0.72862  0.36030  0.75061  Biso   1.000  H
  N6       1.0000 0.60258  0.57796  0.92112  Biso   1.000  N
  H105     1.0000 0.52147  0.53490  0.88516  Biso   1.000  H
  H106     1.0000 0.51347  0.59321  0.85156  Biso   1.000  H
  C82      1.0000 0.76873  0.58119  0.77872  Biso   1.000  C
  C83      1.0000 0.74707  0.40858  0.85353  Biso   1.000  C
  C84      1.0000 0.62718  0.63167  0.92266  Biso   1.000  C
  C85      1.0000 0.63248  0.54571  0.97892  Biso   1.000  C
  C86      1.0000 0.83186  0.59077  0.82562  Biso   1.000  C
  C87      1.0000 0.71868  0.59101  0.79135  Biso   1.000  C
  C88      1.0000 0.73796  0.35602  0.86963  Biso   1.000  C
  C89      1.0000 0.73097  0.45384  0.87744  Biso   1.000  C
  C90      1.0000 0.69038  0.63220  0.92165  Biso   1.000  C
  H107     1.0000 0.59504  0.65238  0.88491  Biso   1.000  H
  H108     1.0000 0.63297  0.65059  0.96204  Biso   1.000  H
  C91      1.0000 0.65039  0.48858  0.97005  Biso   1.000  C
  H109     1.0000 0.60297  0.54351  0.99723  Biso   1.000  H
  H110     1.0000 0.67166  0.56471  0.01078  Biso   1.000  H
  C92      1.0000 0.84424  0.60969  0.88535  Biso   1.000  C
  H111     1.0000 0.86605  0.58441  0.81651  Biso   1.000  H
  C93      1.0000 0.73125  0.60948  0.85122  Biso   1.000  C
  H112     1.0000 0.67564  0.58498  0.75881  Biso   1.000  H
  C94      1.0000 0.71077  0.34839  0.90935  Biso   1.000  C
  H113     1.0000 0.75017  0.32540  0.85344  Biso   1.000  H
  C95      1.0000 0.70378  0.44630  0.91745  Biso   1.000  C
  H114     1.0000 0.73817  0.48948  0.86664  Biso   1.000  H
  O17      1.0000 0.67851  0.61809  0.85879  Biso   1.000  O
  H115     1.0000 0.72045  0.60569  0.95341  Biso   1.000  H
  H116     1.0000 0.70994  0.66890  0.93322  Biso   1.000  H
  O18      1.0000 0.68979  0.49295  0.93972  Biso   1.000  O
  H117     1.0000 0.61124  0.46722  0.94262  Biso   1.000  H
  H118     1.0000 0.67405  0.47011  0.01218  Biso   1.000  H
  C96      1.0000 0.79405  0.61968  0.89856  Biso   1.000  C
  C97      1.0000 0.91266  0.62090  0.93746  Biso   1.000  C
  C98      1.0000 0.69316  0.39341  0.93283  Biso   1.000  C
  C99      1.0000 0.70124  0.29139  0.92772  Biso   1.000  C
  H119     1.0000 0.80275  0.63322  0.93953  Biso   1.000  H
  H120     1.0000 0.94235  0.61230  0.92102  Biso   1.000  H
  H121     1.0000 0.91698  0.65939  0.94994  Biso   1.000  H
  H122     1.0000 0.92276  0.59799  0.97516  Biso   1.000  H
  H123     1.0000 0.67386  0.38840  0.95944  Biso   1.000  H
  H124     1.0000 0.68205  0.29351  0.95611  Biso   1.000  H
  H125     1.0000 0.67266  0.27100  0.88872  Biso   1.000  H
  H126     1.0000 0.74278  0.27292  0.95023  Biso   1.000  H
  O19      1.0000 0.43655  0.56108  0.37090  Biso   1.000  O
  C100     1.0000 0.37193  0.54408  0.32929  Biso   1.000  C
  C101     1.0000 0.48101  0.55134  0.35181  Biso   1.000  C
  C102     1.0000 0.33113  0.56981  0.35479  Biso   1.000  C
  H127     1.0000 0.36870  0.50391  0.32939  Biso   1.000  H
  H128     1.0000 0.35771  0.55631  0.28461  Biso   1.000  H
  C103     1.0000 0.54073  0.57474  0.38994  Biso   1.000  C
  C104     1.0000 0.46810  0.52153  0.29709  Biso   1.000  C
  N7       1.0000 0.26491  0.55150  0.31483  Biso   1.000  N
  H129     1.0000 0.34683  0.55872  0.40020  Biso   1.000  H
  H130     1.0000 0.33343  0.61001  0.35320  Biso   1.000  H
  C105     1.0000 0.58942  0.56932  0.37369  Biso   1.000  C
  H131     1.0000 0.54841  0.59460  0.42739  Biso   1.000  H
  C106     1.0000 0.51802  0.51545  0.28200  Biso   1.000  C
  H132     1.0000 0.42712  0.50579  0.27092  Biso   1.000  H
  C107     1.0000 0.24233  0.51019  0.34294  Biso   1.000  C
  C108     1.0000 0.21754  0.59391  0.27993  Biso   1.000  C
  C109     1.0000 0.57721  0.53996  0.31912  Biso   1.000  C
  C110     1.0000 0.65411  0.59529  0.41491  Biso   1.000  C
  O20      1.0000 0.51222  0.48671  0.22932  Biso   1.000  O
  C111     1.0000 0.20342  0.46771  0.29381  Biso   1.000  C
  H133     1.0000 0.21574  0.52761  0.35962  Biso   1.000  H
  H134     1.0000 0.27955  0.49270  0.37952  Biso   1.000  H
  C112     1.0000 0.22902  0.62139  0.22903  Biso   1.000  C
  H135     1.0000 0.21904  0.62172  0.31093  Biso   1.000  H
  H136     1.0000 0.17412  0.57752  0.25901  Biso   1.000  H
  H137     1.0000 0.60962  0.53649  0.30693  Biso   1.000  H
  H138     1.0000 0.68230  0.58759  0.39640  Biso   1.000  H
  H139     1.0000 0.67325  0.58029  0.45873  Biso   1.000  H
  H140     1.0000 0.64891  0.63481  0.41650  Biso   1.000  H
  C113     1.0000 0.45053  0.46550  0.18472  Biso   1.000  C
  O21      1.0000 0.24866  0.43663  0.28263  Biso   1.000  O
  H141     1.0000 0.18111  0.44381  0.31040  Biso   1.000  H
  H142     1.0000 0.17093  0.48499  0.25342  Biso   1.000  H
  O22      1.0000 0.22694  0.57992  0.18574  Biso   1.000  O
  H143     1.0000 0.19553  0.64920  0.20550  Biso   1.000  H
  H144     1.0000 0.27143  0.63970  0.24942  Biso   1.000  H
  C114     1.0000 0.45811  0.43892  0.13112  Biso   1.000  C
  H145     1.0000 0.41831  0.49511  0.16742  Biso   1.000  H
  H146     1.0000 0.43633  0.43831  0.20613  Biso   1.000  H
  C115     1.0000 0.23132  0.41881  0.22131  Biso   1.000  C
  C116     1.0000 0.25302  0.59138  0.14650  Biso   1.000  C
  N8       1.0000 0.39751  0.42204  0.07891  Biso   1.000  N
  H147     1.0000 0.47860  0.46510  0.11492  Biso   1.000  H
  H148     1.0000 0.48660  0.40679  0.14852  Biso   1.000  H
  C117     1.0000 0.28144  0.40899  0.20873  Biso   1.000  C
  C118     1.0000 0.16822  0.40919  0.17441  Biso   1.000  C
  C119     1.0000 0.26208  0.64398  0.13040  Biso   1.000  C
  C120     1.0000 0.26908  0.54616  0.12259  Biso   1.000  C
  C121     1.0000 0.37289  0.36833  0.07742  Biso   1.000  C
  C122     1.0000 0.36761  0.45429  0.02111  Biso   1.000  C
  H149     1.0000 0.32441  0.41498  0.24122  Biso   1.000  H
  C123     1.0000 0.26880  0.39052  0.14881  Biso   1.000  C
  C124     1.0000 0.15580  0.39031  0.11468  Biso   1.000  C
  H150     1.0000 0.13400  0.41559  0.18352  Biso   1.000  H
  C125     1.0000 0.28930  0.65161  0.09072  Biso   1.000  C
  H151     1.0000 0.24992  0.67460  0.14659  Biso   1.000  H
  C126     1.0000 0.29633  0.55370  0.08262  Biso   1.000  C
  H152     1.0000 0.26188  0.51048  0.13339  Biso   1.000  H
  C127     1.0000 0.30971  0.36780  0.07838  Biso   1.000  C
  H153     1.0000 0.40500  0.34762  0.11512  Biso   1.000  H
  H154     1.0000 0.36707  0.34941  0.03799  Biso   1.000  H
  C128     1.0000 0.34970  0.51142  0.02998  Biso   1.000  C
  H155     1.0000 0.39708  0.45649  0.00280  Biso   1.000  H
  H156     1.0000 0.32839  0.43529  0.98925  Biso   1.000  H
  O23      1.0000 0.32153  0.38191  0.14124  Biso   1.000  O
  C129     1.0000 0.20602  0.38028  0.10152  Biso   1.000  C
  C130     1.0000 0.08741  0.37910  0.06262  Biso   1.000  C
  C131     1.0000 0.30689  0.60659  0.06720  Biso   1.000  C
  C132     1.0000 0.29880  0.70861  0.07231  Biso   1.000  C
  O24      1.0000 0.31030  0.50705  0.06031  Biso   1.000  O
  H157     1.0000 0.27960  0.39431  0.04662  Biso   1.000  H
  H158     1.0000 0.29011  0.33110  0.06681  Biso   1.000  H
  H159     1.0000 0.38881  0.53278  0.05741  Biso   1.000  H
  H160     1.0000 0.32599  0.52989  0.98785  Biso   1.000  H
  H161     1.0000 0.19730  0.36678  0.06050  Biso   1.000  H
  H162     1.0000 0.05770  0.38770  0.07901  Biso   1.000  H
  H163     1.0000 0.08311  0.34061  0.05009  Biso   1.000  H
  H164     1.0000 0.07731  0.40201  0.02492  Biso   1.000  H
  H165     1.0000 0.32619  0.61160  0.04059  Biso   1.000  H
  H166     1.0000 0.31800  0.70649  0.04392  Biso   1.000  H
  H167     1.0000 0.32739  0.72900  0.11131  Biso   1.000  H
  H168     1.0000 0.25731  0.72708  0.04980  Biso   1.000  H
  C133     1.0000 0.61062  0.30370  0.52742  Biso   1.000  C
  H169     1.0000 0.57902  0.29428  0.54101  Biso   1.000  H
  H170     1.0000 0.60793  0.34268  0.51754  Biso   1.000  H
  H171     1.0000 0.60202  0.28258  0.48890  Biso   1.000  H
  C134     1.0000 0.67733  0.29037  0.58122  Biso   1.000  C
  C135     1.0000 0.68525  0.26945  0.63911  Biso   1.000  C
  C136     1.0000 0.73125  0.29950  0.57384  Biso   1.000  C
  H172     1.0000 0.64886  0.26399  0.64495  Biso   1.000  H
  C137     1.0000 0.74564  0.25656  0.68833  Biso   1.000  C
  C138     1.0000 0.79176  0.28662  0.62393  Biso   1.000  C
  H173     1.0000 0.72665  0.31439  0.53484  Biso   1.000  H
  O25      1.0000 0.74847  0.23577  0.74357  Biso   1.000  O
  C139     1.0000 0.80014  0.26533  0.68173  Biso   1.000  C
  O26      1.0000 0.84207  0.29852  0.61246  Biso   1.000  O
  C140     1.0000 0.81026  0.21909  0.79414  Biso   1.000  C
  H174     1.0000 0.84174  0.25701  0.71581  Biso   1.000  H
  C141     1.0000 0.90545  0.28882  0.66423  Biso   1.000  C
  H175     1.0000 0.83005  0.19291  0.77713  Biso   1.000  H
  H176     1.0000 0.83888  0.25110  0.81155  Biso   1.000  H
  C142     1.0000 0.80106  0.19238  0.84683  Biso   1.000  C
  H177     1.0000 0.91203  0.30819  0.70352  Biso   1.000  H
  H178     1.0000 0.91225  0.24931  0.67382  Biso   1.000  H
  C143     1.0000 0.95153  0.30949  0.64273  Biso   1.000  C
  N9       1.0000 0.86351  0.17518  0.89798  Biso   1.000  N
  H179     1.0000 0.77215  0.16062  0.82933  Biso   1.000  H
  H180     1.0000 0.78144  0.21868  0.86404  Biso   1.000  H
  H181     1.0000 0.94712  0.34949  0.63670  Biso   1.000  H
  H182     1.0000 0.94185  0.29269  0.60103  Biso   1.000  H
  N10      1.0000 0.01708  0.29587  0.69151  Biso   1.000  N
  C144     1.0000 0.87996  0.11805  0.89952  Biso   1.000  C
  C145     1.0000 0.88498  0.20025  0.96036  Biso   1.000  C
  C146     1.0000 0.05136  0.25779  0.67334  Biso   1.000  C
  C147     1.0000 0.05625  0.34179  0.72911  Biso   1.000  C
  C148     1.0000 0.94694  0.10989  0.91003  Biso   1.000  C
  H183     1.0000 0.87596  0.09970  0.93461  Biso   1.000  H
  H184     1.0000 0.84916  0.10072  0.85835  Biso   1.000  H
  C149     1.0000 0.90306  0.25999  0.96074  Biso   1.000  C
  H185     1.0000 0.85034  0.19768  0.97202  Biso   1.000  H
  H186     1.0000 0.92255  0.18011  0.99323  Biso   1.000  H
  C150     1.0000 0.08605  0.21591  0.72530  Biso   1.000  C
  H187     1.0000 0.02076  0.23919  0.63294  Biso   1.000  H
  H188     1.0000 0.08274  0.27781  0.66505  Biso   1.000  H
  C151     1.0000 0.03185  0.36899  0.76932  Biso   1.000  C
  H189     1.0000 0.10047  0.32878  0.75765  Biso   1.000  H
  H190     1.0000 0.05826  0.36911  0.69923  Biso   1.000  H
  O27      1.0000 0.94486  0.12465  0.85050  Biso   1.000  O
  H191     1.0000 0.96037  0.07148  0.92092  Biso   1.000  H
  H192     1.0000 0.97768  0.13338  0.94556  Biso   1.000  H
  O28      1.0000 0.95586  0.26121  0.94763  Biso   1.000  O
  H193     1.0000 0.86625  0.28058  0.92743  Biso   1.000  H
  H194     1.0000 0.91556  0.27659  0.00326  Biso   1.000  H
  O29      1.0000 0.03757  0.18366  0.72810  Biso   1.000  O
  H195     1.0000 0.11315  0.23389  0.76724  Biso   1.000  H
  H196     1.0000 0.11378  0.19291  0.71465  Biso   1.000  H
  H197     1.0000 0.98805  0.38322  0.74174  Biso   1.000  H
  O30      1.0000 0.03138  0.32919  0.81289  Biso   1.000  O
  H198     1.0000 0.06017  0.39981  0.79352  Biso   1.000  H
  C152     1.0000 0.00157  0.13138  0.84953  Biso   1.000  C
  C153     1.0000 0.96196  0.30611  0.91663  Biso   1.000  C
  C154     1.0000 0.04886  0.16262  0.78633  Biso   1.000  C
  C155     1.0000 0.00149  0.34122  0.84813  Biso   1.000  C
  C156     1.0000 0.99516  0.15458  0.79323  Biso   1.000  C
  C157     1.0000 0.06137  0.11568  0.89875  Biso   1.000  C
  C158     1.0000 0.93926  0.35798  0.92054  Biso   1.000  C
  C159     1.0000 0.99274  0.29771  0.88043  Biso   1.000  C
  C160     1.0000 0.10858  0.14761  0.83574  Biso   1.000  C
  C161     1.0000 0.97932  0.39308  0.85131  Biso   1.000  C
  H199     1.0000 0.95393  0.16490  0.75972  Biso   1.000  H
  C162     1.0000 0.11547  0.12461  0.89123  Biso   1.000  C
  H200     1.0000 0.06548  0.09921  0.93674  Biso   1.000  H
  C163     1.0000 0.94877  0.40140  0.88824  Biso   1.000  C
  H201     1.0000 0.91764  0.36340  0.94493  Biso   1.000  H
  H202     1.0000 0.00787  0.26240  0.87783  Biso   1.000  H
  H203     1.0000 0.14554  0.15340  0.83092  Biso   1.000  H
  H204     1.0000 0.98495  0.42261  0.82851  Biso   1.000  H
  C164     1.0000 0.17996  0.10610  0.94435  Biso   1.000  C
  C165     1.0000 0.92684  0.45759  0.89513  Biso   1.000  C
  H205     1.0000 0.21328  0.11499  0.93273  Biso   1.000  H
  H206     1.0000 0.18946  0.12482  0.98456  Biso   1.000  H
  H207     1.0000 0.17926  0.06659  0.95023  Biso   1.000  H
  H208     1.0000 0.90634  0.45572  0.92232  Biso   1.000  H
  H209     1.0000 0.96397  0.48210  0.91504  Biso   1.000  H
  H210     1.0000 0.89605  0.47158  0.85242  Biso   1.000  H
  C166     1.0000 0.38942  0.69630  0.47261  Biso   1.000  C
  C167     1.0000 0.32272  0.70959  0.41881  Biso   1.000  C
  H211     1.0000 0.42103  0.70572  0.45902  Biso   1.000  H
  H212     1.0000 0.39214  0.65732  0.48254  Biso   1.000  H
  H213     1.0000 0.39803  0.71738  0.51113  Biso   1.000  H
  C168     1.0000 0.31484  0.73055  0.36092  Biso   1.000  C
  C169     1.0000 0.26882  0.70050  0.42624  Biso   1.000  C
  C170     1.0000 0.25441  0.74344  0.31170  Biso   1.000  C
  H214     1.0000 0.35125  0.73601  0.35513  Biso   1.000  H
  C171     1.0000 0.20833  0.71338  0.37610  Biso   1.000  C
  H215     1.0000 0.27346  0.68561  0.46523  Biso   1.000  H
  O31      1.0000 0.25162  0.76423  0.25646  Biso   1.000  O
  C172     1.0000 0.19991  0.73463  0.31830  Biso   1.000  C
  O32      1.0000 0.15798  0.70148  0.38757  Biso   1.000  O
  C173     1.0000 0.18979  0.78091  0.20589  Biso   1.000  C
  H216     1.0000 0.15831  0.74299  0.28422  Biso   1.000  H
  C174     1.0000 0.09460  0.71118  0.33580  Biso   1.000  C
  C175     1.0000 0.19898  0.80762  0.15320  Biso   1.000  C
  H217     1.0000 0.16999  0.80709  0.22290  Biso   1.000  H
  H218     1.0000 0.16121  0.74890  0.18848  Biso   1.000  H
  C176     1.0000 0.04852  0.69051  0.35730  Biso   1.000  C
  H219     1.0000 0.08802  0.69181  0.29651  Biso   1.000  H
  H220     1.0000 0.08780  0.75069  0.32621  Biso   1.000  H
  N11      1.0000 0.13654  0.82482  0.10205  Biso   1.000  N
  H221     1.0000 0.22790  0.83938  0.17070  Biso   1.000  H
  H222     1.0000 0.21860  0.78132  0.13599  Biso   1.000  H
  N12      1.0000 0.98303  0.70413  0.30857  Biso   1.000  N
  H223     1.0000 0.05293  0.65051  0.36333  Biso   1.000  H
  H224     1.0000 0.05824  0.70731  0.39900  Biso   1.000  H
  C177     1.0000 0.11509  0.79975  0.03972  Biso   1.000  C
  C178     1.0000 0.12013  0.88195  0.10051  Biso   1.000  C
  C179     1.0000 0.94380  0.65821  0.27092  Biso   1.000  C
  C180     1.0000 0.94869  0.74221  0.32669  Biso   1.000  C
  C181     1.0000 0.09699  0.74001  0.03929  Biso   1.000  C
  H225     1.0000 0.14971  0.80232  0.02801  Biso   1.000  H
  H226     1.0000 0.07750  0.81989  0.00680  Biso   1.000  H
  C182     1.0000 0.05311  0.89011  0.09000  Biso   1.000  C
  H227     1.0000 0.12413  0.90030  0.06542  Biso   1.000  H
  H228     1.0000 0.15091  0.89928  0.14173  Biso   1.000  H
  C183     1.0000 0.96820  0.63101  0.23071  Biso   1.000  C
  H229     1.0000 0.89960  0.67118  0.24243  Biso   1.000  H
  H230     1.0000 0.94178  0.63089  0.30080  Biso   1.000  H
  C184     1.0000 0.91399  0.78409  0.27473  Biso   1.000  C
  H231     1.0000 0.97931  0.76081  0.36714  Biso   1.000  H
  H232     1.0000 0.91733  0.72219  0.33503  Biso   1.000  H
  O33      1.0000 0.04423  0.73879  0.05240  Biso   1.000  O
  H233     1.0000 0.13380  0.71938  0.07260  Biso   1.000  H
  H234     1.0000 0.08448  0.72341  0.99677  Biso   1.000  H
  O34      1.0000 0.05519  0.87535  0.14953  Biso   1.000  O
  H235     1.0000 0.03972  0.92848  0.07911  Biso   1.000  H
  H236     1.0000 0.02239  0.86658  0.05452  Biso   1.000  H
  O35      1.0000 0.96871  0.67081  0.18714  Biso   1.000  O
  H237     1.0000 0.01200  0.61678  0.25829  Biso   1.000  H
  H238     1.0000 0.93992  0.60019  0.20651  Biso   1.000  H
  O36      1.0000 0.96252  0.81634  0.27193  Biso   1.000  O
  H239     1.0000 0.88690  0.76611  0.23279  Biso   1.000  H
  H240     1.0000 0.88633  0.80709  0.28543  Biso   1.000  H
  C185     1.0000 0.03809  0.69389  0.08340  Biso   1.000  C
  C186     1.0000 0.99848  0.86858  0.15050  Biso   1.000  C
  C187     1.0000 0.99860  0.65878  0.15190  Biso   1.000  C
  C188     1.0000 0.95119  0.83738  0.21370  Biso   1.000  C
  C189     1.0000 0.06078  0.64202  0.07949  Biso   1.000  C
  C190     1.0000 0.00731  0.70229  0.11960  Biso   1.000  C
  C191     1.0000 0.00492  0.84542  0.20680  Biso   1.000  C
  C192     1.0000 0.93868  0.88428  0.10128  Biso   1.000  C
  C193     1.0000 0.02072  0.60692  0.14871  Biso   1.000  C
  C194     1.0000 0.89147  0.85239  0.16429  Biso   1.000  C
  C195     1.0000 0.05132  0.59860  0.11179  Biso   1.000  C
  H241     1.0000 0.08241  0.63660  0.05510  Biso   1.000  H
  H242     1.0000 0.99218  0.73760  0.12220  Biso   1.000  H
  H243     1.0000 0.04612  0.83510  0.24031  Biso   1.000  H
  C196     1.0000 0.88457  0.87539  0.10880  Biso   1.000  C
  H244     1.0000 0.93457  0.90079  0.06329  Biso   1.000  H
  H245     1.0000 0.01514  0.57739  0.17152  Biso   1.000  H
  H246     1.0000 0.85451  0.84660  0.16911  Biso   1.000  H
  C197     1.0000 0.07321  0.54241  0.10490  Biso   1.000  C
  C198     1.0000 0.82011  0.89390  0.05573  Biso   1.000  C
  H247     1.0000 0.09370  0.54428  0.07771  Biso   1.000  H
  H248     1.0000 0.03608  0.51790  0.08499  Biso   1.000  H
  H249     1.0000 0.10400  0.52838  0.14761  Biso   1.000  H
  H250     1.0000 0.78677  0.88501  0.06730  Biso   1.000  H
  H251     1.0000 0.81061  0.87518  0.01552  Biso   1.000  H
  H252     1.0000 0.82079  0.93341  0.04980  Biso   1.000  H
  C199     1.0000 0.42190  0.68859  0.26050  Biso   1.000  C
  C200     1.0000 0.44710  0.65458  0.22502  Biso   1.000  C
  N13      1.0000 0.46169  0.73577  0.29169  Biso   1.000  N
  H253     1.0000 0.41913  0.66580  0.29353  Biso   1.000  H
  H254     1.0000 0.37802  0.70111  0.22980  Biso   1.000  H
  O37      1.0000 0.45074  0.68965  0.17817  Biso   1.000  O
  H255     1.0000 0.41799  0.62351  0.20328  Biso   1.000  H
  H256     1.0000 0.49010  0.63999  0.25520  Biso   1.000  H
  C201     1.0000 0.42992  0.78478  0.29483  Biso   1.000  C
  C202     1.0000 0.52662  0.72578  0.34313  Biso   1.000  C
  C203     1.0000 0.48621  0.67289  0.14920  Biso   1.000  C
  C204     1.0000 0.41000  0.82091  0.23741  Biso   1.000  C
  H257     1.0000 0.39142  0.77459  0.29820  Biso   1.000  H
  H258     1.0000 0.45911  0.80529  0.33421  Biso   1.000  H
  C205     1.0000 0.57444  0.73691  0.31912  Biso   1.000  C
  H259     1.0000 0.53601  0.74980  0.38030  Biso   1.000  H
  H260     1.0000 0.53062  0.68741  0.35774  Biso   1.000  H
  C206     1.0000 0.50891  0.62021  0.15219  Biso   1.000  C
  C207     1.0000 0.49969  0.71391  0.11728  Biso   1.000  C
  O38      1.0000 0.46766  0.84012  0.23843  Biso   1.000  O
  H261     1.0000 0.38461  0.85210  0.23939  Biso   1.000  H
  H262     1.0000 0.38340  0.80040  0.19721  Biso   1.000  H
  O39      1.0000 0.63743  0.72949  0.37350  Biso   1.000  O
  H263     1.0000 0.56942  0.77459  0.30249  Biso   1.000  H
  H264     1.0000 0.56761  0.71130  0.28413  Biso   1.000  H
  C208     1.0000 0.54420  0.60769  0.12119  Biso   1.000  C
  H265     1.0000 0.50033  0.59281  0.17532  Biso   1.000  H
  H266     1.0000 0.48499  0.75008  0.11651  Biso   1.000  H
  C209     1.0000 0.53499  0.70099  0.08638  Biso   1.000  C
  C210     1.0000 0.46171  0.86625  0.18472  Biso   1.000  C
  C211     1.0000 0.68949  0.73467  0.36400  Biso   1.000  C
  C212     1.0000 0.56771  0.55073  0.12211  Biso   1.000  C
  C213     1.0000 0.55739  0.64851  0.08851  Biso   1.000  C
  O40      1.0000 0.54551  0.74425  0.05568  Biso   1.000  O
  C214     1.0000 0.40450  0.88888  0.13748  Biso   1.000  C
  C215     1.0000 0.51780  0.87062  0.18063  Biso   1.000  C
  C216     1.0000 0.74840  0.72354  0.41732  Biso   1.000  C
  C217     1.0000 0.68502  0.74976  0.30534  Biso   1.000  C
  H267     1.0000 0.59162  0.54971  0.09800  Biso   1.000  H
  H268     1.0000 0.59591  0.53939  0.16670  Biso   1.000  H
  H269     1.0000 0.53099  0.52581  0.10200  Biso   1.000  H
  H270     1.0000 0.58190  0.64031  0.06758  Biso   1.000  H
  C218     1.0000 0.59368  0.73809  0.03721  Biso   1.000  C
  C219     1.0000 0.40410  0.91620  0.08581  Biso   1.000  C
  H271     1.0000 0.36630  0.88570  0.14052  Biso   1.000  H
  H272     1.0000 0.55691  0.85581  0.21331  Biso   1.000  H
  C220     1.0000 0.51571  0.89696  0.12789  Biso   1.000  C
  C221     1.0000 0.80483  0.72904  0.41332  Biso   1.000  C
  H273     1.0000 0.75041  0.71220  0.45661  Biso   1.000  H
  H274     1.0000 0.64450  0.75648  0.26870  Biso   1.000  H
  C222     1.0000 0.74133  0.75473  0.30172  Biso   1.000  C
  H275     1.0000 0.63098  0.71832  0.07110  Biso   1.000  H
  C223     1.0000 0.61378  0.79392  0.02781  Biso   1.000  C
  H276     1.0000 0.57688  0.71701  0.99677  Biso   1.000  H
  C224     1.0000 0.34258  0.94169  0.03509  Biso   1.000  C
  C225     1.0000 0.46010  0.92040  0.08108  Biso   1.000  C
  O41      1.0000 0.57377  0.89977  0.12852  Biso   1.000  O
  C226     1.0000 0.86974  0.71860  0.47150  Biso   1.000  C
  C227     1.0000 0.79992  0.74458  0.35523  Biso   1.000  C
  O42      1.0000 0.74245  0.76908  0.24638  Biso   1.000  O
  N14      1.0000 0.64081  0.82690  0.08595  Biso   1.000  N
  H277     1.0000 0.64598  0.79008  0.01302  Biso   1.000  H
  H278     1.0000 0.57609  0.81288  0.99364  Biso   1.000  H
  H279     1.0000 0.30818  0.93468  0.04560  Biso   1.000  H
  H280     1.0000 0.34851  0.98108  0.03379  Biso   1.000  H
  H281     1.0000 0.33118  0.92591  0.99296  Biso   1.000  H
  H282     1.0000 0.45990  0.93920  0.04599  Biso   1.000  H
  C228     1.0000 0.57219  0.90699  0.06792  Biso   1.000  C
  H283     1.0000 0.90353  0.72468  0.45993  Biso   1.000  H
  H284     1.0000 0.87593  0.74352  0.50640  Biso   1.000  H
  H285     1.0000 0.87171  0.68088  0.48591  Biso   1.000  H
  H286     1.0000 0.83789  0.74849  0.35190  Biso   1.000  H
  C229     1.0000 0.68419  0.78739  0.19249  Biso   1.000  C
  C230     1.0000 0.63569  0.88517  0.07679  Biso   1.000  C
  C231     1.0000 0.69848  0.80599  0.14018  Biso   1.000  C
  H287     1.0000 0.53590  0.88648  0.03360  Biso   1.000  H
  H288     1.0000 0.56739  0.94609  0.05592  Biso   1.000  H
  H289     1.0000 0.65249  0.75730  0.17629  Biso   1.000  H
  H290     1.0000 0.66579  0.81789  0.20569  Biso   1.000  H
  H291     1.0000 0.67121  0.90299  0.11483  Biso   1.000  H
  H292     1.0000 0.64001  0.89459  0.03852  Biso   1.000  H
  H293     1.0000 0.71541  0.77508  0.12611  Biso   1.000  H
  H294     1.0000 0.73162  0.83490  0.15720  Biso   1.000  H
  C232     1.0000 0.57815  0.31141  0.73953  Biso   1.000  C
  N15      1.0000 0.53836  0.26423  0.70834  Biso   1.000  N
  C233     1.0000 0.55297  0.34542  0.77505  Biso   1.000  C
  H295     1.0000 0.58092  0.33420  0.70650  Biso   1.000  H
  H296     1.0000 0.62207  0.29889  0.77023  Biso   1.000  H
  C234     1.0000 0.47345  0.27418  0.65695  Biso   1.000  C
  C235     1.0000 0.57013  0.21522  0.70520  Biso   1.000  C
  O43      1.0000 0.54931  0.31035  0.82186  Biso   1.000  O
  H297     1.0000 0.58205  0.37649  0.79675  Biso   1.000  H
  H298     1.0000 0.50995  0.36001  0.74483  Biso   1.000  H
  C236     1.0000 0.42565  0.26309  0.68091  Biso   1.000  C
  H299     1.0000 0.46404  0.25020  0.61973  Biso   1.000  H
  H300     1.0000 0.46945  0.31259  0.64234  Biso   1.000  H
  C237     1.0000 0.59005  0.17909  0.76262  Biso   1.000  C
  H301     1.0000 0.60867  0.22541  0.70183  Biso   1.000  H
  H302     1.0000 0.54094  0.19471  0.66582  Biso   1.000  H
  C238     1.0000 0.51388  0.32711  0.85083  Biso   1.000  C
  O44      1.0000 0.36262  0.27051  0.62653  Biso   1.000  O
  H303     1.0000 0.43067  0.22541  0.69754  Biso   1.000  H
  H304     1.0000 0.43244  0.28870  0.71590  Biso   1.000  H
  O45      1.0000 0.53243  0.15988  0.76160  Biso   1.000  O
  H305     1.0000 0.61544  0.14790  0.76064  Biso   1.000  H
  H306     1.0000 0.61665  0.19960  0.80282  Biso   1.000  H
  C239     1.0000 0.49118  0.37979  0.84784  Biso   1.000  C
  C240     1.0000 0.50036  0.28609  0.88275  Biso   1.000  C
  C241     1.0000 0.31056  0.26533  0.63603  Biso   1.000  C
  C242     1.0000 0.53836  0.13375  0.81535  Biso   1.000  C
  C243     1.0000 0.45589  0.39231  0.87884  Biso   1.000  C
  H307     1.0000 0.49978  0.40719  0.82475  Biso   1.000  H
  C244     1.0000 0.46506  0.29901  0.91365  Biso   1.000  C
  H308     1.0000 0.51506  0.24992  0.88352  Biso   1.000  H
  C245     1.0000 0.25165  0.27646  0.58271  Biso   1.000  C
  C246     1.0000 0.31506  0.25024  0.69474  Biso   1.000  C
  C247     1.0000 0.59555  0.11112  0.86255  Biso   1.000  C
  C248     1.0000 0.48228  0.12938  0.81945  Biso   1.000  C
  C249     1.0000 0.44266  0.35149  0.91152  Biso   1.000  C
  C250     1.0000 0.43234  0.44927  0.87792  Biso   1.000  C
  O46      1.0000 0.45454  0.25575  0.94435  Biso   1.000  O
  C251     1.0000 0.19522  0.27096  0.58671  Biso   1.000  C
  H309     1.0000 0.24964  0.28780  0.54342  Biso   1.000  H
  C252     1.0000 0.25875  0.24527  0.69831  Biso   1.000  C
  H310     1.0000 0.35554  0.24352  0.73133  Biso   1.000  H
  C253     1.0000 0.59595  0.08380  0.91422  Biso   1.000  C
  H311     1.0000 0.63374  0.11430  0.85951  Biso   1.000  H
  C254     1.0000 0.48438  0.10300  0.87214  Biso   1.000  C
  H312     1.0000 0.44314  0.14419  0.78672  Biso   1.000  H
  H313     1.0000 0.41819  0.35969  0.93245  Biso   1.000  H
  H314     1.0000 0.40847  0.45029  0.90203  Biso   1.000  H
  H315     1.0000 0.40418  0.46061  0.83333  Biso   1.000  H
  H316     1.0000 0.46906  0.47419  0.89803  Biso   1.000  H
  C255     1.0000 0.40637  0.26191  0.96282  Biso   1.000  C
  C256     1.0000 0.13035  0.28140  0.52853  Biso   1.000  C
  C257     1.0000 0.20013  0.25538  0.64480  Biso   1.000  C
  O47      1.0000 0.25760  0.23092  0.75365  Biso   1.000  O
  C258     1.0000 0.53995  0.07960  0.91895  Biso   1.000  C
  C259     1.0000 0.65747  0.05831  0.96494  Biso   1.000  C
  O48      1.0000 0.42627  0.10023  0.87151  Biso   1.000  O
  C260     1.0000 0.38627  0.20608  0.97222  Biso   1.000  C
  H317     1.0000 0.36907  0.28168  0.92893  Biso   1.000  H
  H318     1.0000 0.42317  0.28299  0.00326  Biso   1.000  H
  H319     1.0000 0.09651  0.27528  0.54010  Biso   1.000  H
  H320     1.0000 0.12416  0.25648  0.49363  Biso   1.000  H
  H321     1.0000 0.12834  0.31912  0.51412  Biso   1.000  H
  H322     1.0000 0.16216  0.25151  0.64813  Biso   1.000  H
  C261     1.0000 0.31586  0.21261  0.80754  Biso   1.000  C
  H323     1.0000 0.54015  0.06080  0.95404  Biso   1.000  H
  H324     1.0000 0.69186  0.06528  0.95443  Biso   1.000  H
  H325     1.0000 0.65158  0.01892  0.96624  Biso   1.000  H
  H326     1.0000 0.66887  0.07409  0.00707  Biso   1.000  H
  C262     1.0000 0.42788  0.09301  0.93216  Biso   1.000  C
  N16      1.0000 0.35928  0.17310  0.91408  Biso   1.000  N
  H327     1.0000 0.35406  0.20992  0.98701  Biso   1.000  H
  H328     1.0000 0.42396  0.18708  0.00639  Biso   1.000  H
  H329     1.0000 0.34755  0.24270  0.82374  Biso   1.000  H
  H330     1.0000 0.33425  0.18211  0.79434  Biso   1.000  H
  C263     1.0000 0.30157  0.19401  0.85985  Biso   1.000  C
  C264     1.0000 0.36436  0.11483  0.92324  Biso   1.000  C
  H331     1.0000 0.46415  0.11348  0.96643  Biso   1.000  H
  H332     1.0000 0.43268  0.05391  0.94416  Biso   1.000  H
  H333     1.0000 0.28464  0.22488  0.87392  Biso   1.000  H
  H334     1.0000 0.26847  0.16510  0.84283  Biso   1.000  H
  H335     1.0000 0.32886  0.09701  0.88525  Biso   1.000  H
  H336     1.0000 0.36008  0.10541  0.96151  Biso   1.000  H
  C265     1.0000 0.73990  0.50612  0.34120  Biso   1.000  C
  C266     1.0000 0.70610  0.47040  0.28191  Biso   1.000  C
  N17      1.0000 0.76647  0.55431  0.32944  Biso   1.000  N
  H337     1.0000 0.70913  0.51660  0.35600  Biso   1.000  H
  H338     1.0000 0.77480  0.48491  0.37620  Biso   1.000  H
  O49      1.0000 0.75565  0.44695  0.27130  Biso   1.000  O
  H339     1.0000 0.68132  0.44140  0.28909  Biso   1.000  H
  H340     1.0000 0.67642  0.49242  0.24421  Biso   1.000  H
  C267     1.0000 0.83261  0.56691  0.37263  Biso   1.000  C
  C268     1.0000 0.72290  0.59880  0.29439  Biso   1.000  C
  C269     1.0000 0.73889  0.42040  0.21461  Biso   1.000  C
  C270     1.0000 0.87374  0.54029  0.34703  Biso   1.000  C
  H341     1.0000 0.84513  0.55281  0.41631  Biso   1.000  H
  H342     1.0000 0.83913  0.60679  0.37552  Biso   1.000  H
  C271     1.0000 0.73620  0.62441  0.24421  Biso   1.000  C
  H343     1.0000 0.72632  0.62718  0.32563  Biso   1.000  H
  H344     1.0000 0.67831  0.58481  0.27313  Biso   1.000  H
  C272     1.0000 0.67672  0.40980  0.16771  Biso   1.000  C
  C273     1.0000 0.79133  0.40401  0.20772  Biso   1.000  C
  O50      1.0000 0.93931  0.54840  0.39437  Biso   1.000  O
  H345     1.0000 0.86412  0.50090  0.33971  Biso   1.000  H
  H346     1.0000 0.86500  0.55729  0.30562  Biso   1.000  H
  O51      1.0000 0.73236  0.58257  0.20058  Biso   1.000  O
  H347     1.0000 0.70422  0.65328  0.22069  Biso   1.000  H
  H348     1.0000 0.77941  0.64109  0.26489  Biso   1.000  H
  C274     1.0000 0.66639  0.38130  0.11242  Biso   1.000  C
  H349     1.0000 0.64150  0.42159  0.17291  Biso   1.000  H
  C275     1.0000 0.78063  0.37620  0.15262  Biso   1.000  C
  H350     1.0000 0.83380  0.41180  0.24040  Biso   1.000  H
  C276     1.0000 0.98569  0.53588  0.37760  Biso   1.000  C
  C277     1.0000 0.75888  0.59268  0.16130  Biso   1.000  C
  C278     1.0000 0.59910  0.36841  0.06088  Biso   1.000  C
  C279     1.0000 0.71810  0.36430  0.10480  Biso   1.000  C
  O52      1.0000 0.83446  0.36107  0.15021  Biso   1.000  O
  C280     1.0000 0.97283  0.51325  0.31932  Biso   1.000  C
  C281     1.0000 0.04743  0.54922  0.42431  Biso   1.000  C
  C282     1.0000 0.77469  0.54714  0.13782  Biso   1.000  C
  C283     1.0000 0.77060  0.64484  0.14592  Biso   1.000  C
  H351     1.0000 0.60046  0.34811  0.02598  Biso   1.000  H
  H352     1.0000 0.57531  0.40238  0.04382  Biso   1.000  H
  H353     1.0000 0.57771  0.34631  0.07940  Biso   1.000  H
  H354     1.0000 0.71099  0.34460  0.06730  Biso   1.000  H
  C284     1.0000 0.82961  0.34888  0.08841  Biso   1.000  C
  C285     1.0000 0.02381  0.50502  0.30731  Biso   1.000  C
  H355     1.0000 0.93032  0.50351  0.28822  Biso   1.000  H
  C286     1.0000 0.09834  0.54171  0.41120  Biso   1.000  C
  H356     1.0000 0.05514  0.56320  0.46480  Biso   1.000  H
  C287     1.0000 0.80248  0.55350  0.09839  Biso   1.000  C
  H357     1.0000 0.76669  0.51170  0.14862  Biso   1.000  H
  C288     1.0000 0.79872  0.65095  0.10673  Biso   1.000  C
  H358     1.0000 0.75940  0.67599  0.16221  Biso   1.000  H
  H359     1.0000 0.79458  0.37049  0.05409  Biso   1.000  H
  H360     1.0000 0.82007  0.30982  0.07819  Biso   1.000  H
  C289     1.0000 0.89249  0.36328  0.09251  Biso   1.000  C
  O53      1.0000 0.01789  0.48495  0.25072  Biso   1.000  O
  C290     1.0000 0.08525  0.52031  0.35253  Biso   1.000  C
  C291     1.0000 0.16571  0.55851  0.46070  Biso   1.000  C
  O54      1.0000 0.81571  0.50616  0.07655  Biso   1.000  O
  C292     1.0000 0.81538  0.60537  0.08320  Biso   1.000  C
  C293     1.0000 0.81179  0.70751  0.08918  Biso   1.000  C
  N18      1.0000 0.90368  0.42191  0.09839  Biso   1.000  N
  H361     1.0000 0.92751  0.34481  0.13020  Biso   1.000  H
  H362     1.0000 0.89310  0.34998  0.05332  Biso   1.000  H
  C294     1.0000 0.95620  0.46628  0.20280  Biso   1.000  C
  H363     1.0000 0.11930  0.51578  0.34279  Biso   1.000  H
  H364     1.0000 0.19542  0.55020  0.44422  Biso   1.000  H
  H365     1.0000 0.17874  0.53841  0.50091  Biso   1.000  H
  H366     1.0000 0.16663  0.59778  0.46890  Biso   1.000  H
  C295     1.0000 0.85581  0.50922  0.04662  Biso   1.000  C
  H367     1.0000 0.83532  0.60940  0.05712  Biso   1.000  H
  H368     1.0000 0.83150  0.70409  0.06141  Biso   1.000  H
  H369     1.0000 0.84092  0.72721  0.12861  Biso   1.000  H
  H370     1.0000 0.77129  0.72761  0.06628  Biso   1.000  H
  C296     1.0000 0.96461  0.44189  0.14891  Biso   1.000  C
  C297     1.0000 0.87300  0.45188  0.03852  Biso   1.000  C
  H371     1.0000 0.92539  0.49698  0.18660  Biso   1.000  H
  H372     1.0000 0.93952  0.43851  0.22131  Biso   1.000  H
  H373     1.0000 0.89510  0.53038  0.07400  Biso   1.000  H
  H374     1.0000 0.83247  0.52740  0.00419  Biso   1.000  H
  H375     1.0000 0.98168  0.46991  0.13122  Biso   1.000  H
  H376     1.0000 0.99581  0.41152  0.16592  Biso   1.000  H
  H377     1.0000 0.83349  0.43231  0.00791  Biso   1.000  H
  H378     1.0000 0.90210  0.45298  0.01972  Biso   1.000  H
  C298     1.0000 0.26014  0.49388  0.65883  Biso   1.000  C
  N19      1.0000 0.23358  0.44569  0.67059  Biso   1.000  N
  C299     1.0000 0.29395  0.52960  0.71812  Biso   1.000  C
  H379     1.0000 0.29096  0.48340  0.64403  Biso   1.000  H
  H380     1.0000 0.22525  0.51509  0.62383  Biso   1.000  H
  C300     1.0000 0.16746  0.43309  0.62745  Biso   1.000  C
  C301     1.0000 0.27715  0.40120  0.70564  Biso   1.000  C
  O55      1.0000 0.24440  0.55301  0.72873  Biso   1.000  O
  H381     1.0000 0.31877  0.55860  0.71094  Biso   1.000  H
  H382     1.0000 0.32363  0.50758  0.75582  Biso   1.000  H
  C302     1.0000 0.12638  0.45971  0.65304  Biso   1.000  C
  H383     1.0000 0.15496  0.44719  0.58372  Biso   1.000  H
  H384     1.0000 0.16092  0.39321  0.62451  Biso   1.000  H
  C303     1.0000 0.26385  0.37559  0.75582  Biso   1.000  C
  H385     1.0000 0.27375  0.37282  0.67445  Biso   1.000  H
  H386     1.0000 0.32176  0.41519  0.72694  Biso   1.000  H
  C304     1.0000 0.26115  0.57960  0.78542  Biso   1.000  C
  O56      1.0000 0.06078  0.45160  0.60566  Biso   1.000  O
  H387     1.0000 0.13597  0.49910  0.66032  Biso   1.000  H
  H388     1.0000 0.13505  0.44271  0.69440  Biso   1.000  H
  O57      1.0000 0.26773  0.41743  0.79945  Biso   1.000  O
  H389     1.0000 0.29587  0.34668  0.77934  Biso   1.000  H
  H390     1.0000 0.22068  0.35891  0.73514  Biso   1.000  H
  C305     1.0000 0.20876  0.59599  0.79231  Biso   1.000  C
  C306     1.0000 0.32337  0.59020  0.83232  Biso   1.000  C
  C307     1.0000 0.01436  0.46412  0.62243  Biso   1.000  C
  C308     1.0000 0.24117  0.40732  0.83873  Biso   1.000  C
  C309     1.0000 0.21946  0.62380  0.84741  Biso   1.000  C
  H391     1.0000 0.16624  0.58820  0.75963  Biso   1.000  H
  C310     1.0000 0.33366  0.61870  0.88761  Biso   1.000  C
  H392     1.0000 0.35855  0.57841  0.82712  Biso   1.000  H
  C311     1.0000 0.02726  0.48675  0.68071  Biso   1.000  C
  C312     1.0000 0.95262  0.45078  0.57572  Biso   1.000  C
  C313     1.0000 0.22536  0.45286  0.86221  Biso   1.000  C
  C314     1.0000 0.22945  0.35516  0.85411  Biso   1.000  C
  O58      1.0000 0.16559  0.63893  0.84982  Biso   1.000  O
  C315     1.0000 0.28195  0.63570  0.89523  Biso   1.000  C
  C316     1.0000 0.40099  0.63159  0.93915  Biso   1.000  C
  H393     1.0000 0.06973  0.49649  0.71181  Biso   1.000  H
  C317     1.0000 0.97624  0.49498  0.69272  Biso   1.000  C
  C318     1.0000 0.90175  0.45829  0.58883  Biso   1.000  C
  H394     1.0000 0.94491  0.43680  0.53523  Biso   1.000  H
  C319     1.0000 0.19757  0.44650  0.90164  Biso   1.000  C
  H395     1.0000 0.23336  0.48830  0.85141  Biso   1.000  H
  C320     1.0000 0.20139  0.34905  0.89335  Biso   1.000  C
  H396     1.0000 0.24065  0.32401  0.83782  Biso   1.000  H
  C321     1.0000 0.17048  0.65112  0.91162  Biso   1.000  C
  H397     1.0000 0.28906  0.65540  0.93273  Biso   1.000  H
  H398     1.0000 0.39958  0.65189  0.97405  Biso   1.000  H
  H399     1.0000 0.42476  0.59758  0.95626  Biso   1.000  H
  H400     1.0000 0.42238  0.65369  0.92063  Biso   1.000  H
  O59      1.0000 0.98215  0.51505  0.74931  Biso   1.000  O
  C322     1.0000 0.91486  0.47969  0.64755  Biso   1.000  C
  C323     1.0000 0.83434  0.44149  0.53933  Biso   1.000  C
  O60      1.0000 0.18433  0.49384  0.92348  Biso   1.000  O
  C324     1.0000 0.18466  0.39463  0.91683  Biso   1.000  C
  C325     1.0000 0.18826  0.29249  0.91085  Biso   1.000  C
  H401     1.0000 0.20547  0.62951  0.94594  Biso   1.000  H
  H402     1.0000 0.17997  0.69018  0.92184  Biso   1.000  H
  C326     1.0000 0.10755  0.63672  0.90752  Biso   1.000  C
  C327     1.0000 0.04385  0.53372  0.79723  Biso   1.000  C
  H403     1.0000 0.88075  0.48418  0.65724  Biso   1.000  H
  H404     1.0000 0.80462  0.44980  0.55581  Biso   1.000  H
  H405     1.0000 0.82135  0.46159  0.49912  Biso   1.000  H
  H406     1.0000 0.83342  0.40222  0.53113  Biso   1.000  H
  C328     1.0000 0.14424  0.49078  0.95341  Biso   1.000  C
  H407     1.0000 0.16480  0.39060  0.94295  Biso   1.000  H
  H408     1.0000 0.16855  0.29591  0.93862  Biso   1.000  H
  H409     1.0000 0.15917  0.27279  0.87142  Biso   1.000  H
  H410     1.0000 0.22876  0.27239  0.93375  Biso   1.000  H
  N20      1.0000 0.09637  0.57809  0.90164  Biso   1.000  N
  H411     1.0000 0.07258  0.65519  0.86983  Biso   1.000  H
  H412     1.0000 0.10695  0.65002  0.94671  Biso   1.000  H
  H413     1.0000 0.07466  0.50302  0.81343  Biso   1.000  H
  H414     1.0000 0.06057  0.56149  0.77872  Biso   1.000  H
  C329     1.0000 0.03548  0.55811  0.85112  Biso   1.000  C
  H415     1.0000 0.10499  0.46958  0.92603  Biso   1.000  H
  H416     1.0000 0.16758  0.47260  0.99584  Biso   1.000  H
  C330     1.0000 0.12705  0.54812  0.96151  Biso   1.000  C
  H417     1.0000 0.01836  0.53009  0.86881  Biso   1.000  H
  H418     1.0000 0.00426  0.58848  0.83415  Biso   1.000  H
  H419     1.0000 0.16655  0.56769  0.99212  Biso   1.000  H
  H420     1.0000 0.09799  0.54702  0.98031  Biso   1.000  H
  C331     1.0000 0.70123  0.20861  0.42773  Biso   1.000  C
  C332     1.0000 0.71074  0.15161  0.40932  Biso   1.000  C
  H421     1.0000 0.68203  0.20649  0.45612  Biso   1.000  H
  H422     1.0000 0.67261  0.22900  0.38873  Biso   1.000  H
  H423     1.0000 0.74270  0.22708  0.45019  Biso   1.000  H
  C333     1.0000 0.73789  0.14398  0.36959  Biso   1.000  C
  C334     1.0000 0.69315  0.10659  0.43284  Biso   1.000  C
  C335     1.0000 0.74699  0.09138  0.35349  Biso   1.000  C
  H424     1.0000 0.75009  0.17460  0.35340  Biso   1.000  H
  C336     1.0000 0.70371  0.05370  0.41741  Biso   1.000  C
  H425     1.0000 0.67382  0.11160  0.45940  Biso   1.000  H
  O61      1.0000 0.77309  0.07992  0.31430  Biso   1.000  O
  C337     1.0000 0.73093  0.04616  0.37740  Biso   1.000  C
  O62      1.0000 0.68972  0.00705  0.43969  Biso   1.000  O
  C338     1.0000 0.77101  0.12139  0.27101  Biso   1.000  C
  H426     1.0000 0.73813  0.01052  0.36661  Biso   1.000  H
  C339     1.0000 0.65031  0.01142  0.47001  Biso   1.000  C
  C340     1.0000 0.78250  0.09391  0.22011  Biso   1.000  C
  H427     1.0000 0.80448  0.14920  0.29449  Biso   1.000  H
  H428     1.0000 0.72861  0.13970  0.25062  Biso   1.000  H
  C341     1.0000 0.63242  0.95429  0.47892  Biso   1.000  C
  H429     1.0000 0.61123  0.03278  0.44263  Biso   1.000  H
  H430     1.0000 0.67415  0.02989  0.51224  Biso   1.000  H
  N21      1.0000 0.73513  0.05150  0.18521  Biso   1.000  N
  H431     1.0000 0.78099  0.12172  0.18911  Biso   1.000  H
  H432     1.0000 0.82591  0.07752  0.24103  Biso   1.000  H
  N22      1.0000 0.60250  0.92204  0.42108  Biso   1.000  N
  H433     1.0000 0.67175  0.93529  0.51084  Biso   1.000  H
  H434     1.0000 0.60296  0.95649  0.49724  Biso   1.000  H
  C342     1.0000 0.66888  0.06981  0.14520  Biso   1.000  C
  C343     1.0000 0.75770  0.01019  0.15710  Biso   1.000  C
  C344     1.0000 0.54192  0.93888  0.36892  Biso   1.000  C
  C345     1.0000 0.62711  0.86833  0.42262  Biso   1.000  C
  C346     1.0000 0.62808  0.04412  0.17070  Biso   1.000  C
  H435     1.0000 0.65318  0.05872  0.09979  Biso   1.000  H
  H436     1.0000 0.66658  0.11001  0.14679  Biso   1.000  H
  H437     1.0000 0.78430  0.02761  0.14042  Biso   1.000  H
  C347     1.0000 0.79661  0.96771  0.20622  Biso   1.000  C
  H438     1.0000 0.72049  0.99270  0.12051  Biso   1.000  H
  C348     1.0000 0.54950  0.96550  0.31531  Biso   1.000  C
  H439     1.0000 0.52144  0.96510  0.38512  Biso   1.000  H
  H440     1.0000 0.51343  0.90679  0.35152  Biso   1.000  H
  C349     1.0000 0.69031  0.86780  0.42161  Biso   1.000  C
  H441     1.0000 0.59503  0.84758  0.38492  Biso   1.000  H
  H442     1.0000 0.63294  0.84941  0.46200  Biso   1.000  H
  O63      1.0000 0.56349  0.06108  0.12914  Biso   1.000  O
  H443     1.0000 0.63132  0.00391  0.17060  Biso   1.000  H
  H444     1.0000 0.64233  0.05631  0.21543  Biso   1.000  H
  O64      1.0000 0.75135  0.93663  0.21736  Biso   1.000  O
  H445     1.0000 0.81891  0.94381  0.18959  Biso   1.000  H
  H446     1.0000 0.82911  0.98499  0.24662  Biso   1.000  H
  O65      1.0000 0.48779  0.98671  0.27068  Biso   1.000  O
  H447     1.0000 0.58173  0.99511  0.33262  Biso   1.000  H
  H448     1.0000 0.56370  0.93831  0.29391  Biso   1.000  H
  O66      1.0000 0.67850  0.88191  0.35880  Biso   1.000  O
  H449     1.0000 0.72044  0.89431  0.45342  Biso   1.000  H
  H450     1.0000 0.70992  0.83110  0.43323  Biso   1.000  H
  C350     1.0000 0.51900  0.05134  0.14818  Biso   1.000  C
  C351     1.0000 0.76872  0.91881  0.27873  Biso   1.000  C
  C352     1.0000 0.48199  0.01545  0.21799  Biso   1.000  C
  C353     1.0000 0.73124  0.89052  0.35123  Biso   1.000  C
  C354     1.0000 0.45931  0.07474  0.11010  Biso   1.000  C
  C355     1.0000 0.53191  0.02153  0.20290  Biso   1.000  C
  C356     1.0000 0.83181  0.90919  0.32563  Biso   1.000  C
  C357     1.0000 0.71860  0.90899  0.29131  Biso   1.000  C
  C358     1.0000 0.42282  0.03996  0.18092  Biso   1.000  C
  C359     1.0000 0.79402  0.88028  0.39852  Biso   1.000  C
  C360     1.0000 0.41059  0.06932  0.12630  Biso   1.000  C
  H451     1.0000 0.45161  0.09460  0.07260  Biso   1.000  H
  H452     1.0000 0.57292  0.00579  0.22912  Biso   1.000  H
  C361     1.0000 0.84421  0.89031  0.38531  Biso   1.000  C
  H453     1.0000 0.86599  0.91559  0.31652  Biso   1.000  H
  H454     1.0000 0.67563  0.91498  0.25882  Biso   1.000  H
  H455     1.0000 0.39042  0.03649  0.19311  Biso   1.000  H
  H456     1.0000 0.80274  0.86678  0.43954  Biso   1.000  H
  C362     1.0000 0.34591  0.09529  0.08508  Biso   1.000  C
  C363     1.0000 0.91262  0.87910  0.43742  Biso   1.000  C
  H457     1.0000 0.31771  0.08759  0.10359  Biso   1.000  H
  H458     1.0000 0.32679  0.08029  0.04131  Biso   1.000  H
  H459     1.0000 0.35111  0.13481  0.08349  Biso   1.000  H
  H460     1.0000 0.94234  0.88770  0.42103  Biso   1.000  H
  H461     1.0000 0.91690  0.84061  0.44991  Biso   1.000  H
  H462     1.0000 0.92273  0.90201  0.47512  Biso   1.000  H
  C364     1.0000 0.29882  0.79139  0.57230  Biso   1.000  C
  H463     1.0000 0.31801  0.79351  0.54391  Biso   1.000  H
  H464     1.0000 0.32746  0.77100  0.61135  Biso   1.000  H
  H465     1.0000 0.25735  0.77292  0.54984  Biso   1.000  H
  C365     1.0000 0.28935  0.84839  0.59071  Biso   1.000  C
  C366     1.0000 0.26216  0.85598  0.63044  Biso   1.000  C
  C367     1.0000 0.30697  0.89341  0.56724  Biso   1.000  C
  H466     1.0000 0.24995  0.82540  0.64663  Biso   1.000  H
  C368     1.0000 0.25306  0.90858  0.64654  Biso   1.000  C
  C369     1.0000 0.29634  0.94630  0.58262  Biso   1.000  C
  H467     1.0000 0.32622  0.88840  0.54063  Biso   1.000  H
  O67      1.0000 0.22698  0.92004  0.68578  Biso   1.000  O
  C370     1.0000 0.26916  0.95384  0.62263  Biso   1.000  C
  O68      1.0000 0.31033  0.99295  0.56034  Biso   1.000  O
  C371     1.0000 0.22903  0.87861  0.72902  Biso   1.000  C
  H468     1.0000 0.26196  0.98948  0.63342  Biso   1.000  H
  C372     1.0000 0.34973  0.98858  0.53002  Biso   1.000  C
  H469     1.0000 0.19556  0.85080  0.70554  Biso   1.000  H
  H470     1.0000 0.27144  0.86030  0.74941  Biso   1.000  H
  C373     1.0000 0.21755  0.90609  0.77992  Biso   1.000  C
  H471     1.0000 0.38882  0.96722  0.55740  Biso   1.000  H
  H472     1.0000 0.32594  0.97011  0.48779  Biso   1.000  H
  C374     1.0000 0.36763  0.04571  0.52111  Biso   1.000  C
  N23      1.0000 0.26494  0.94846  0.81487  Biso   1.000  N
  H473     1.0000 0.21906  0.87828  0.81092  Biso   1.000  H
  H474     1.0000 0.17416  0.92248  0.75905  Biso   1.000  H
  N24      1.0000 0.39754  0.07796  0.57895  Biso   1.000  N
  H475     1.0000 0.32836  0.06471  0.48924  Biso   1.000  H
  H476     1.0000 0.39715  0.04351  0.50284  Biso   1.000  H
  C375     1.0000 0.24235  0.98981  0.84293  Biso   1.000  C
  C376     1.0000 0.33117  0.93019  0.85483  Biso   1.000  C
  C377     1.0000 0.37294  0.13167  0.57741  Biso   1.000  C
  C378     1.0000 0.45812  0.06108  0.63111  Biso   1.000  C
  H477     1.0000 0.21577  0.97239  0.85965  Biso   1.000  H
  C379     1.0000 0.20346  0.03229  0.79385  Biso   1.000  C
  H478     1.0000 0.27956  0.00730  0.87952  Biso   1.000  H
  C380     1.0000 0.37196  0.95588  0.82933  Biso   1.000  C
  H479     1.0000 0.34687  0.94128  0.90024  Biso   1.000  H
  H480     1.0000 0.33347  0.88999  0.85324  Biso   1.000  H
  C381     1.0000 0.30974  0.13220  0.57842  Biso   1.000  C
  H481     1.0000 0.40502  0.15238  0.61511  Biso   1.000  H
  H482     1.0000 0.36715  0.15059  0.53803  Biso   1.000  H
  C382     1.0000 0.45055  0.03450  0.68472  Biso   1.000  C
  H483     1.0000 0.47865  0.03490  0.61491  Biso   1.000  H
  H484     1.0000 0.48666  0.09321  0.64851  Biso   1.000  H
  O69      1.0000 0.24870  0.06337  0.78267  Biso   1.000  O
  H485     1.0000 0.18118  0.05619  0.81044  Biso   1.000  H
  H486     1.0000 0.17094  0.01501  0.75341  Biso   1.000  H
  O70      1.0000 0.43660  0.93892  0.87089  Biso   1.000  O
  H487     1.0000 0.36877  0.99609  0.82943  Biso   1.000  H
  H488     1.0000 0.35778  0.94369  0.78465  Biso   1.000  H
  O71      1.0000 0.32157  0.11809  0.64128  Biso   1.000  O
  H489     1.0000 0.27961  0.10569  0.54661  Biso   1.000  H
  H490     1.0000 0.29012  0.16890  0.56680  Biso   1.000  H
  O72      1.0000 0.51226  0.01329  0.72935  Biso   1.000  O
  H491     1.0000 0.41832  0.00489  0.66741  Biso   1.000  H
  H492     1.0000 0.43635  0.06169  0.70612  Biso   1.000  H
  C383     1.0000 0.23133  0.08119  0.72130  Biso   1.000  C
  C384     1.0000 0.48105  0.94866  0.85185  Biso   1.000  C
  C385     1.0000 0.26885  0.10948  0.64880  Biso   1.000  C
  C386     1.0000 0.51806  0.98455  0.78204  Biso   1.000  C
  C387     1.0000 0.16826  0.09081  0.67445  Biso   1.000  C
  C388     1.0000 0.28145  0.09101  0.70872  Biso   1.000  C
  C389     1.0000 0.54074  0.92526  0.88993  Biso   1.000  C
  C390     1.0000 0.46814  0.97847  0.79713  Biso   1.000  C
  C391     1.0000 0.20603  0.11972  0.60151  Biso   1.000  C
  C392     1.0000 0.57727  0.96004  0.81911  Biso   1.000  C
  C393     1.0000 0.15584  0.10969  0.61472  Biso   1.000  C
  H493     1.0000 0.13405  0.08441  0.68351  Biso   1.000  H
  H494     1.0000 0.32446  0.08502  0.74121  Biso   1.000  H
  C394     1.0000 0.58946  0.93068  0.87373  Biso   1.000  C
  H495     1.0000 0.54844  0.90540  0.92743  Biso   1.000  H
  H496     1.0000 0.42713  0.99421  0.77091  Biso   1.000  H
  H497     1.0000 0.19733  0.13322  0.56054  Biso   1.000  H
  H498     1.0000 0.60963  0.96351  0.80692  Biso   1.000  H
  C395     1.0000 0.08743  0.12090  0.56261  Biso   1.000  C
  C396     1.0000 0.65418  0.90471  0.91495  Biso   1.000  C
  H499     1.0000 0.05775  0.11230  0.57900  Biso   1.000  H
  H500     1.0000 0.08314  0.15939  0.55012  Biso   1.000  H
  H501     1.0000 0.07732  0.09799  0.52491  Biso   1.000  H
  H502     1.0000 0.68238  0.91241  0.89644  Biso   1.000  H
  H503     1.0000 0.67326  0.91971  0.95872  Biso   1.000  H
  H504     1.0000 0.64898  0.86519  0.91654  Biso   1.000  H
  C397     1.0000 0.81182  0.79249  0.58922  Biso   1.000  C
  H505     1.0000 0.83151  0.79591  0.56141  Biso   1.000  H
  H506     1.0000 0.84093  0.77279  0.62860  Biso   1.000  H
  H507     1.0000 0.77132  0.77239  0.56632  Biso   1.000  H
  C398     1.0000 0.79873  0.84905  0.60672  Biso   1.000  C
  C399     1.0000 0.81546  0.89463  0.58324  Biso   1.000  C
  C400     1.0000 0.77065  0.85516  0.64591  Biso   1.000  C
  H508     1.0000 0.83533  0.89060  0.55711  Biso   1.000  H
  C401     1.0000 0.80252  0.94650  0.59843  Biso   1.000  C
  C402     1.0000 0.75896  0.90732  0.66134  Biso   1.000  C
  H509     1.0000 0.75941  0.82401  0.66220  Biso   1.000  H
  O73      1.0000 0.81575  0.99384  0.57659  Biso   1.000  O
  C403     1.0000 0.77474  0.95286  0.63781  Biso   1.000  C
  O74      1.0000 0.73239  0.91739  0.70062  Biso   1.000  O
  C404     1.0000 0.85582  0.99078  0.54661  Biso   1.000  C
  H510     1.0000 0.76674  0.98830  0.64861  Biso   1.000  H
  C405     1.0000 0.73627  0.87559  0.74425  Biso   1.000  C
  H511     1.0000 0.89514  0.96958  0.57404  Biso   1.000  H
  H512     1.0000 0.83254  0.97260  0.50423  Biso   1.000  H
  C406     1.0000 0.87301  0.04812  0.53851  Biso   1.000  C
  H513     1.0000 0.70425  0.84668  0.72073  Biso   1.000  H
  H514     1.0000 0.77945  0.85891  0.76493  Biso   1.000  H
  C407     1.0000 0.72293  0.90120  0.79443  Biso   1.000  C
  N25      1.0000 0.90376  0.07809  0.59843  Biso   1.000  N
  H515     1.0000 0.83351  0.06769  0.50790  Biso   1.000  H
  H516     1.0000 0.90212  0.04702  0.51971  Biso   1.000  H
  N26      1.0000 0.76655  0.94569  0.82948  Biso   1.000  N
  H517     1.0000 0.72634  0.87278  0.82562  Biso   1.000  H
  H518     1.0000 0.67836  0.91519  0.77313  Biso   1.000  H
  C408     1.0000 0.96464  0.05811  0.64895  Biso   1.000  C
  C409     1.0000 0.89253  0.13672  0.59255  Biso   1.000  C
  C410     1.0000 0.83266  0.93309  0.87262  Biso   1.000  C
  C411     1.0000 0.73994  0.99388  0.84124  Biso   1.000  C
  C412     1.0000 0.95624  0.03372  0.70284  Biso   1.000  C
  H519     1.0000 0.98174  0.03009  0.63121  Biso   1.000  H
  H520     1.0000 0.99582  0.08848  0.66592  Biso   1.000  H
  C413     1.0000 0.82962  0.15112  0.58840  Biso   1.000  C
  H521     1.0000 0.92754  0.15519  0.63024  Biso   1.000  H
  H522     1.0000 0.89311  0.15002  0.55331  Biso   1.000  H
  C414     1.0000 0.87375  0.95971  0.84702  Biso   1.000  C
  H523     1.0000 0.84516  0.94719  0.91634  Biso   1.000  H
  H524     1.0000 0.83914  0.89321  0.87551  Biso   1.000  H
  H525     1.0000 0.70916  0.98340  0.85604  Biso   1.000  H
  C415     1.0000 0.70617  0.02960  0.78195  Biso   1.000  C
  H526     1.0000 0.77487  0.01509  0.87624  Biso   1.000  H
  H527     1.0000 0.92543  0.00302  0.68664  Biso   1.000  H
  H528     1.0000 0.93953  0.06149  0.72130  Biso   1.000  H
  O75      1.0000 0.01791  0.01505  0.75071  Biso   1.000  O
  O76      1.0000 0.83451  0.13893  0.65020  Biso   1.000  O
  H529     1.0000 0.79461  0.12951  0.55413  Biso   1.000  H
  H530     1.0000 0.82015  0.19018  0.57823  Biso   1.000  H
  O77      1.0000 0.93934  0.95156  0.89441  Biso   1.000  O
  H531     1.0000 0.86416  0.99910  0.83975  Biso   1.000  H
  H532     1.0000 0.86505  0.94271  0.80562  Biso   1.000  H
  O78      1.0000 0.75571  0.05305  0.77129  Biso   1.000  O
  H533     1.0000 0.68136  0.05860  0.78913  Biso   1.000  H
  H534     1.0000 0.67645  0.00758  0.74425  Biso   1.000  H
  C416     1.0000 0.02389  0.99498  0.80735  Biso   1.000  C
  C417     1.0000 0.78064  0.12380  0.65261  Biso   1.000  C
  C418     1.0000 0.98576  0.96408  0.87764  Biso   1.000  C
  C419     1.0000 0.73897  0.07960  0.71465  Biso   1.000  C
  C420     1.0000 0.97286  0.98675  0.81935  Biso   1.000  C
  C421     1.0000 0.08526  0.97969  0.85252  Biso   1.000  C
  C422     1.0000 0.71813  0.13570  0.60484  Biso   1.000  C
  C423     1.0000 0.79134  0.09599  0.70771  Biso   1.000  C
  C424     1.0000 0.04746  0.95078  0.92435  Biso   1.000  C
  C425     1.0000 0.67676  0.09020  0.66775  Biso   1.000  C
  H535     1.0000 0.93033  0.99649  0.78821  Biso   1.000  H
  C426     1.0000 0.09837  0.95829  0.91123  Biso   1.000  C
  H536     1.0000 0.11938  0.98418  0.84283  Biso   1.000  H
  C427     1.0000 0.66645  0.11870  0.61241  Biso   1.000  C
  H537     1.0000 0.71102  0.15540  0.56733  Biso   1.000  H
  H538     1.0000 0.83384  0.08820  0.74044  Biso   1.000  H
  H539     1.0000 0.05517  0.93680  0.96484  Biso   1.000  H
  H540     1.0000 0.64151  0.07841  0.67291  Biso   1.000  H
  C428     1.0000 0.16579  0.94149  0.96074  Biso   1.000  C
  C429     1.0000 0.59913  0.13159  0.56092  Biso   1.000  C
  H541     1.0000 0.19550  0.94980  0.94426  Biso   1.000  H
  H542     1.0000 0.16666  0.90218  0.96894  Biso   1.000  H
  H543     1.0000 0.17867  0.96159  0.00090  Biso   1.000  H
  H544     1.0000 0.60054  0.15189  0.52602  Biso   1.000  H
  H545     1.0000 0.57532  0.09762  0.54381  Biso   1.000  H
  H546     1.0000 0.57775  0.15369  0.57943  Biso   1.000  H
  C430     1.0000 0.18822  0.20751  0.41081  Biso   1.000  C
  C431     1.0000 0.20132  0.15095  0.39331  Biso   1.000  C
  H547     1.0000 0.16854  0.20409  0.43862  Biso   1.000  H
  H548     1.0000 0.15912  0.22721  0.37143  Biso   1.000  H
  H549     1.0000 0.22872  0.22761  0.43371  Biso   1.000  H
  C432     1.0000 0.22944  0.14484  0.35412  Biso   1.000  C
  C433     1.0000 0.18465  0.10537  0.41684  Biso   1.000  C
  C434     1.0000 0.24113  0.09268  0.33869  Biso   1.000  C
  H550     1.0000 0.24063  0.17599  0.33783  Biso   1.000  H
  C435     1.0000 0.19753  0.05350  0.40160  Biso   1.000  C
  H551     1.0000 0.16472  0.10940  0.44292  Biso   1.000  H
  O79      1.0000 0.26765  0.08257  0.29941  Biso   1.000  O
  C436     1.0000 0.22531  0.04714  0.36222  Biso   1.000  C
  O80      1.0000 0.18430  0.00616  0.42344  Biso   1.000  O
  C437     1.0000 0.26384  0.12441  0.25583  Biso   1.000  C
  H552     1.0000 0.23331  0.01170  0.35142  Biso   1.000  H
  C438     1.0000 0.14423  0.00922  0.45342  Biso   1.000  C
  H553     1.0000 0.29580  0.15332  0.27930  Biso   1.000  H
  H554     1.0000 0.22060  0.14109  0.23510  Biso   1.000  H
  C439     1.0000 0.27711  0.09880  0.20560  Biso   1.000  C
  H555     1.0000 0.10491  0.03042  0.42599  Biso   1.000  H
  H556     1.0000 0.16755  0.02740  0.49580  Biso   1.000  H
  C440     1.0000 0.12704  0.95188  0.46152  Biso   1.000  C
  N27      1.0000 0.23350  0.05431  0.17055  Biso   1.000  N
  H557     1.0000 0.27371  0.12718  0.17441  Biso   1.000  H
  H558     1.0000 0.32172  0.08481  0.22690  Biso   1.000  H
  N28      1.0000 0.09633  0.92191  0.40160  Biso   1.000  N
  H559     1.0000 0.16654  0.93231  0.49213  Biso   1.000  H
  H560     1.0000 0.09793  0.95298  0.48032  Biso   1.000  H
  C441     1.0000 0.16743  0.06691  0.12741  Biso   1.000  C
  C442     1.0000 0.26011  0.00612  0.15879  Biso   1.000  C
  C443     1.0000 0.03543  0.94189  0.35113  Biso   1.000  C
  C444     1.0000 0.10754  0.86328  0.40753  Biso   1.000  C
  C445     1.0000 0.12630  0.04029  0.15301  Biso   1.000  C
  H561     1.0000 0.15489  0.05281  0.08369  Biso   1.000  H
  H562     1.0000 0.16091  0.10679  0.12452  Biso   1.000  H
  H563     1.0000 0.29089  0.01660  0.14399  Biso   1.000  H
  C446     1.0000 0.29394  0.97040  0.21813  Biso   1.000  C
  H564     1.0000 0.22522  0.98491  0.12379  Biso   1.000  H
  C447     1.0000 0.04381  0.96624  0.29719  Biso   1.000  C
  H565     1.0000 0.01835  0.96991  0.36882  Biso   1.000  H
  H566     1.0000 0.00422  0.91152  0.33411  Biso   1.000  H
  C448     1.0000 0.17043  0.84888  0.41163  Biso   1.000  C
  H567     1.0000 0.07253  0.84481  0.36984  Biso   1.000  H
  H568     1.0000 0.10694  0.84998  0.44672  Biso   1.000  H
  O81      1.0000 0.06073  0.04840  0.10567  Biso   1.000  O
  H569     1.0000 0.13589  0.00090  0.16028  Biso   1.000  H
  H570     1.0000 0.13504  0.05729  0.19441  Biso   1.000  H
  O82      1.0000 0.24438  0.94695  0.22874  Biso   1.000  O
  H571     1.0000 0.31869  0.94140  0.21090  Biso   1.000  H
  H572     1.0000 0.32362  0.99242  0.25583  Biso   1.000  H
  O83      1.0000 0.98214  0.98495  0.24932  Biso   1.000  O
  H573     1.0000 0.07464  0.99698  0.31343  Biso   1.000  H
  H574     1.0000 0.06052  0.93851  0.27873  Biso   1.000  H
  O84      1.0000 0.16558  0.86107  0.34983  Biso   1.000  O
  H575     1.0000 0.20543  0.87049  0.44590  Biso   1.000  H
  H576     1.0000 0.17994  0.80978  0.42180  Biso   1.000  H
  C449     1.0000 0.01428  0.03588  0.12239  Biso   1.000  C
  C450     1.0000 0.26114  0.92040  0.28543  Biso   1.000  C
  C451     1.0000 0.97623  0.00502  0.19273  Biso   1.000  C
  C452     1.0000 0.21941  0.87620  0.34742  Biso   1.000  C
  C453     1.0000 0.02721  0.01325  0.18072  Biso   1.000  C
  C454     1.0000 0.95258  0.04922  0.07568  Biso   1.000  C
  C455     1.0000 0.20871  0.90401  0.29232  Biso   1.000  C
  C456     1.0000 0.32331  0.90980  0.33233  Biso   1.000  C
  C457     1.0000 0.91478  0.02031  0.14751  Biso   1.000  C
  C458     1.0000 0.28191  0.86430  0.39519  Biso   1.000  C
  H577     1.0000 0.06972  0.00351  0.21182  Biso   1.000  H
  C459     1.0000 0.90167  0.04171  0.08880  Biso   1.000  C
  H578     1.0000 0.94488  0.06320  0.03519  Biso   1.000  H
  H579     1.0000 0.16621  0.91180  0.25959  Biso   1.000  H
  C460     1.0000 0.33364  0.88130  0.38762  Biso   1.000  C
  H580     1.0000 0.35853  0.92159  0.32712  Biso   1.000  H
  H581     1.0000 0.88071  0.01578  0.15720  Biso   1.000  H
  H582     1.0000 0.28903  0.84460  0.43270  Biso   1.000  H
  C461     1.0000 0.83430  0.05851  0.03929  Biso   1.000  C
  C462     1.0000 0.40091  0.86841  0.43911  Biso   1.000  C
  H583     1.0000 0.82140  0.03841  0.99918  Biso   1.000  H
  H584     1.0000 0.80461  0.05020  0.05582  Biso   1.000  H
  H585     1.0000 0.83339  0.09778  0.03109  Biso   1.000  H
  H586     1.0000 0.39951  0.84811  0.47401  Biso   1.000  H
  H587     1.0000 0.42473  0.90238  0.45622  Biso   1.000  H
  H588     1.0000 0.42230  0.84631  0.42060  Biso   1.000  H
  C463     1.0000 0.80099  0.30762  0.34679  Biso   1.000  C
  C464     1.0000 0.81022  0.28091  0.29410  Biso   1.000  C
  N29      1.0000 0.86350  0.32482  0.39799  Biso   1.000  N
  H589     1.0000 0.77211  0.33938  0.32929  Biso   1.000  H
  H590     1.0000 0.78141  0.28132  0.36400  Biso   1.000  H
  O85      1.0000 0.74841  0.26423  0.24358  Biso   1.000  O
  H591     1.0000 0.82998  0.30709  0.27709  Biso   1.000  H
  H592     1.0000 0.83880  0.24890  0.31151  Biso   1.000  H
  C465     1.0000 0.87991  0.38195  0.39953  Biso   1.000  C
  C466     1.0000 0.88494  0.29975  0.46032  Biso   1.000  C
  C467     1.0000 0.74560  0.24344  0.18829  Biso   1.000  C
  C468     1.0000 0.94693  0.39011  0.41004  Biso   1.000  C
  H593     1.0000 0.87591  0.40030  0.43462  Biso   1.000  H
  H594     1.0000 0.84912  0.39928  0.35831  Biso   1.000  H
  C469     1.0000 0.90302  0.24001  0.46070  Biso   1.000  C
  H595     1.0000 0.85033  0.30232  0.47203  Biso   1.000  H
  H596     1.0000 0.92254  0.31989  0.49324  Biso   1.000  H
  C470     1.0000 0.68520  0.23055  0.13912  Biso   1.000  C
  C471     1.0000 0.80011  0.23467  0.18169  Biso   1.000  C
  O86      1.0000 0.94485  0.37535  0.35050  Biso   1.000  O
  H597     1.0000 0.96031  0.42848  0.42093  Biso   1.000  H
  H598     1.0000 0.97764  0.36658  0.44552  Biso   1.000  H
  O87      1.0000 0.95581  0.23879  0.44764  Biso   1.000  O
  H599     1.0000 0.91562  0.22341  0.50332  Biso   1.000  H
  H600     1.0000 0.86621  0.21942  0.42739  Biso   1.000  H
  C472     1.0000 0.67731  0.20959  0.08123  Biso   1.000  C
  H601     1.0000 0.64879  0.23601  0.14491  Biso   1.000  H
  C473     1.0000 0.79168  0.21338  0.12389  Biso   1.000  C
  H602     1.0000 0.84172  0.24299  0.21582  Biso   1.000  H
  C474     1.0000 0.00154  0.36862  0.34949  Biso   1.000  C
  C475     1.0000 0.96193  0.19389  0.41659  Biso   1.000  C
  C476     1.0000 0.61059  0.19630  0.02738  Biso   1.000  C
  C477     1.0000 0.73121  0.20050  0.07380  Biso   1.000  C
  O88      1.0000 0.84204  0.20148  0.11242  Biso   1.000  O
  C478     1.0000 0.99509  0.34542  0.29319  Biso   1.000  C
  C479     1.0000 0.06133  0.38432  0.39871  Biso   1.000  C
  C480     1.0000 0.93923  0.14202  0.42050  Biso   1.000  C
  C481     1.0000 0.99270  0.20229  0.38039  Biso   1.000  C
  H603     1.0000 0.57900  0.20572  0.04102  Biso   1.000  H
  H604     1.0000 0.60789  0.15732  0.01750  Biso   1.000  H
  H605     1.0000 0.60207  0.21738  0.98896  Biso   1.000  H
  H606     1.0000 0.72658  0.18561  0.03480  Biso   1.000  H
  C482     1.0000 0.90537  0.21118  0.16419  Biso   1.000  C
  C483     1.0000 0.04882  0.33738  0.28629  Biso   1.000  C
  H607     1.0000 0.95392  0.33510  0.25973  Biso   1.000  H
  C484     1.0000 0.11546  0.37539  0.39124  Biso   1.000  C
  H608     1.0000 0.06544  0.40079  0.43670  Biso   1.000  H
  C485     1.0000 0.94869  0.09860  0.38820  Biso   1.000  C
  H609     1.0000 0.91762  0.13660  0.44494  Biso   1.000  H
  C486     1.0000 0.00141  0.15878  0.34809  Biso   1.000  C
  H610     1.0000 0.00786  0.23760  0.37784  Biso   1.000  H
  H611     1.0000 0.91202  0.19181  0.20353  Biso   1.000  H
  H612     1.0000 0.91219  0.25069  0.17383  Biso   1.000  H
  C487     1.0000 0.95149  0.19051  0.14269  Biso   1.000  C
  O89      1.0000 0.03750  0.31634  0.22806  Biso   1.000  O
  C488     1.0000 0.10850  0.35239  0.33571  Biso   1.000  C
  C489     1.0000 0.17993  0.39390  0.44431  Biso   1.000  C
  C490     1.0000 0.97931  0.10692  0.35132  Biso   1.000  C
  C491     1.0000 0.92680  0.04241  0.39509  Biso   1.000  C
  O90      1.0000 0.03131  0.17081  0.31286  Biso   1.000  O
  H613     1.0000 0.94711  0.15051  0.13671  Biso   1.000  H
  H614     1.0000 0.94178  0.20731  0.10099  Biso   1.000  H
  N30      1.0000 0.01700  0.20413  0.19147  Biso   1.000  N
  C492     1.0000 0.08600  0.28409  0.22531  Biso   1.000  C
  H615     1.0000 0.14553  0.34660  0.33093  Biso   1.000  H
  H616     1.0000 0.21324  0.38501  0.43270  Biso   1.000  H
  H617     1.0000 0.18943  0.37518  0.48452  Biso   1.000  H
  H618     1.0000 0.17923  0.43341  0.45019  Biso   1.000  H
  H619     1.0000 0.98490  0.07739  0.32852  Biso   1.000  H
  H620     1.0000 0.90633  0.04428  0.42233  Biso   1.000  H
  H621     1.0000 0.96389  0.01790  0.41500  Biso   1.000  H
  H622     1.0000 0.89604  0.02838  0.35243  Biso   1.000  H
  C493     1.0000 0.03184  0.13101  0.26933  Biso   1.000  C
  C494     1.0000 0.05132  0.24221  0.17330  Biso   1.000  C
  C495     1.0000 0.05624  0.15821  0.22912  Biso   1.000  C
  H623     1.0000 0.11312  0.26611  0.26720  Biso   1.000  H
  H624     1.0000 0.11370  0.30709  0.21461  Biso   1.000  H
  H625     1.0000 0.98802  0.11678  0.24170  Biso   1.000  H
  H626     1.0000 0.06011  0.10019  0.29353  Biso   1.000  H
  H627     1.0000 0.02072  0.26081  0.13290  Biso   1.000  H
  H628     1.0000 0.08271  0.22219  0.16501  Biso   1.000  H
  H629     1.0000 0.10044  0.17118  0.25761  Biso   1.000  H
  H630     1.0000 0.05819  0.13089  0.19919  Biso   1.000  H
  C496     1.0000 0.19906  0.69238  0.65324  Biso   1.000  C
  N31      1.0000 0.13657  0.67518  0.60209  Biso   1.000  N
  C497     1.0000 0.18987  0.71909  0.70593  Biso   1.000  C
  H631     1.0000 0.22794  0.66058  0.67074  Biso   1.000  H
  H632     1.0000 0.21864  0.71868  0.63603  Biso   1.000  H
  C498     1.0000 0.12014  0.61805  0.60050  Biso   1.000  C
  C499     1.0000 0.11515  0.70025  0.53971  Biso   1.000  C
  O91      1.0000 0.25163  0.73577  0.75645  Biso   1.000  O
  H633     1.0000 0.17007  0.69291  0.72294  Biso   1.000  H
  H634     1.0000 0.16125  0.75110  0.68852  Biso   1.000  H
  C500     1.0000 0.05314  0.60989  0.59004  Biso   1.000  C
  H635     1.0000 0.12414  0.59970  0.56541  Biso   1.000  H
  H636     1.0000 0.15092  0.60072  0.64172  Biso   1.000  H
  C501     1.0000 0.09702  0.75999  0.53933  Biso   1.000  C
  H637     1.0000 0.14972  0.69768  0.52800  Biso   1.000  H
  H638     1.0000 0.07754  0.68011  0.50684  Biso   1.000  H
  C502     1.0000 0.25444  0.75656  0.81174  Biso   1.000  C
  O92      1.0000 0.05522  0.62465  0.64957  Biso   1.000  O
  H639     1.0000 0.03976  0.57148  0.57914  Biso   1.000  H
  H640     1.0000 0.02245  0.63338  0.55451  Biso   1.000  H
  O93      1.0000 0.04426  0.76121  0.55244  Biso   1.000  O
  H641     1.0000 0.08443  0.77659  0.49671  Biso   1.000  H
  H642     1.0000 0.13384  0.78058  0.57264  Biso   1.000  H
  C503     1.0000 0.31487  0.76945  0.86096  Biso   1.000  C
  C504     1.0000 0.19998  0.76533  0.81834  Biso   1.000  C
  C505     1.0000 0.99855  0.63138  0.65054  Biso   1.000  C
  C506     1.0000 0.03816  0.80611  0.58344  Biso   1.000  C
  C507     1.0000 0.32276  0.79037  0.91885  Biso   1.000  C
  H643     1.0000 0.35126  0.76399  0.85512  Biso   1.000  H
  H644     1.0000 0.15836  0.75701  0.78421  Biso   1.000  H
  C508     1.0000 0.20837  0.78662  0.87614  Biso   1.000  C
  C509     1.0000 0.00496  0.65458  0.70684  Biso   1.000  C
  C510     1.0000 0.93872  0.61568  0.60132  Biso   1.000  C
  C511     1.0000 0.06086  0.85798  0.57953  Biso   1.000  C
  C512     1.0000 0.00735  0.79771  0.61964  Biso   1.000  C
  C513     1.0000 0.38946  0.80370  0.97265  Biso   1.000  C
  C514     1.0000 0.26888  0.79950  0.92623  Biso   1.000  C
  O94      1.0000 0.15801  0.79852  0.88761  Biso   1.000  O
  H645     1.0000 0.04615  0.66490  0.74035  Biso   1.000  H
  C515     1.0000 0.95123  0.66262  0.71374  Biso   1.000  C
  C516     1.0000 0.88465  0.62461  0.60884  Biso   1.000  C
  H646     1.0000 0.93465  0.59921  0.56333  Biso   1.000  H
  C517     1.0000 0.05136  0.90140  0.61183  Biso   1.000  C
  H647     1.0000 0.08245  0.86340  0.55514  Biso   1.000  H
  H648     1.0000 0.99226  0.76240  0.62224  Biso   1.000  H
  C518     1.0000 0.99864  0.84122  0.65194  Biso   1.000  C
  H649     1.0000 0.42107  0.79428  0.95905  Biso   1.000  H
  H650     1.0000 0.39215  0.84268  0.98253  Biso   1.000  H
  H651     1.0000 0.39798  0.78258  0.01107  Biso   1.000  H
  H652     1.0000 0.27347  0.81439  0.96523  Biso   1.000  H
  C519     1.0000 0.09468  0.78878  0.83584  Biso   1.000  C
  O95      1.0000 0.96255  0.68366  0.77197  Biso   1.000  O
  C520     1.0000 0.89155  0.64761  0.66432  Biso   1.000  C
  C521     1.0000 0.82012  0.60610  0.55572  Biso   1.000  C
  C522     1.0000 0.07325  0.95759  0.60493  Biso   1.000  C
  C523     1.0000 0.02074  0.89308  0.64871  Biso   1.000  C
  O96      1.0000 0.96874  0.82915  0.68717  Biso   1.000  O
  H653     1.0000 0.08809  0.80819  0.79655  Biso   1.000  H
  H654     1.0000 0.08788  0.74931  0.82625  Biso   1.000  H
  C524     1.0000 0.04855  0.80949  0.85734  Biso   1.000  C
  C525     1.0000 0.91405  0.71591  0.77472  Biso   1.000  C
  H655     1.0000 0.85454  0.65340  0.66915  Biso   1.000  H
  H656     1.0000 0.78685  0.61499  0.56733  Biso   1.000  H
  H657     1.0000 0.81062  0.62482  0.51551  Biso   1.000  H
  H658     1.0000 0.82082  0.56659  0.54984  Biso   1.000  H
  H659     1.0000 0.09372  0.95568  0.57770  Biso   1.000  H
  H660     1.0000 0.03616  0.98210  0.58503  Biso   1.000  H
  H661     1.0000 0.10408  0.97158  0.64765  Biso   1.000  H
  H662     1.0000 0.01515  0.92261  0.67151  Biso   1.000  H
  C526     1.0000 0.96827  0.86899  0.73075  Biso   1.000  C
  N32      1.0000 0.98304  0.79587  0.80856  Biso   1.000  N
  H663     1.0000 0.05294  0.84949  0.86332  Biso   1.000  H
  H664     1.0000 0.05827  0.79269  0.89904  Biso   1.000  H
  H665     1.0000 0.88693  0.73389  0.73283  Biso   1.000  H
  H666     1.0000 0.88634  0.69291  0.78542  Biso   1.000  H
  C527     1.0000 0.94877  0.75779  0.82673  Biso   1.000  C
  H667     1.0000 0.01207  0.88322  0.75833  Biso   1.000  H
  H668     1.0000 0.93993  0.89981  0.70650  Biso   1.000  H
  C528     1.0000 0.94385  0.84179  0.77091  Biso   1.000  C
  H669     1.0000 0.97937  0.73919  0.86713  Biso   1.000  H
  H670     1.0000 0.91734  0.77781  0.83502  Biso   1.000  H
  H671     1.0000 0.89965  0.82878  0.74242  Biso   1.000  H
  H672     1.0000 0.94186  0.86911  0.80084  Biso   1.000  H
