data_image0
_cell_length_a       28.683
_cell_length_b       26.715
_cell_length_c       34.206
_cell_angle_alpha    90
_cell_angle_beta     110.5
_cell_angle_gamma    90

_symmetry_space_group_name_H-M    "P 1"
_symmetry_int_tables_number       1

loop_
  _symmetry_equiv_pos_as_xyz
  'x, y, z'

loop_
  _atom_site_label
  _atom_site_occupancy
  _atom_site_fract_x
  _atom_site_fract_y
  _atom_site_fract_z
  _atom_site_thermal_displace_type
  _atom_site_B_iso_or_equiv
  _atom_site_type_symbol
  O1       1.0000 0.54129  0.50792  0.47347  Biso   1.000  O
  C1       1.0000 0.50899  0.54000  0.46049  Biso   1.000  C
  N1       1.0000 0.46198  0.53318  0.43359  Biso   1.000  N
  N2       1.0000 0.51527  0.59001  0.47210  Biso   1.000  N
  C2       1.0000 0.44027  0.48299  0.42400  Biso   1.000  C
  C3       1.0000 0.43098  0.57732  0.43240  Biso   1.000  C
  C4       1.0000 0.46947  0.61759  0.45428  Biso   1.000  C
  C5       1.0000 0.56297  0.61101  0.49960  Biso   1.000  C
  N3       1.0000 0.42538  0.47041  0.38018  Biso   1.000  N
  H1       1.0000 0.41100  0.48082  0.43281  Biso   1.000  H
  H2       1.0000 0.46496  0.45809  0.44039  Biso   1.000  H
  N4       1.0000 0.40579  0.59760  0.39170  Biso   1.000  N
  H3       1.0000 0.40738  0.57099  0.44760  Biso   1.000  H
  N5       1.0000 0.46788  0.65091  0.42101  Biso   1.000  N
  H4       1.0000 0.46027  0.63519  0.47641  Biso   1.000  H
  H5       1.0000 0.58417  0.58342  0.51570  Biso   1.000  H
  H6       1.0000 0.55659  0.63410  0.51979  Biso   1.000  H
  N6       1.0000 0.58917  0.63698  0.47769  Biso   1.000  N
  C6       1.0000 0.44776  0.43459  0.36548  Biso   1.000  C
  C7       1.0000 0.37747  0.48411  0.35019  Biso   1.000  C
  C8       1.0000 0.36267  0.57642  0.36099  Biso   1.000  C
  C9       1.0000 0.42717  0.64219  0.38580  Biso   1.000  C
  C10      1.0000 0.49088  0.70032  0.42791  Biso   1.000  C
  C11      1.0000 0.58299  0.68969  0.46779  Biso   1.000  C
  C12      1.0000 0.63369  0.61980  0.47510  Biso   1.000  C
  N7       1.0000 0.42140  0.42811  0.32441  Biso   1.000  N
  O2       1.0000 0.48738  0.41280  0.38580  Biso   1.000  O
  C13      1.0000 0.37599  0.45559  0.31108  Biso   1.000  C
  H7       1.0000 0.34958  0.47430  0.35980  Biso   1.000  H
  N8       1.0000 0.37377  0.53610  0.33699  Biso   1.000  N
  H8       1.0000 0.34028  0.56339  0.37510  Biso   1.000  H
  H9       1.0000 0.34450  0.60318  0.34161  Biso   1.000  H
  O3       1.0000 0.41188  0.66850  0.35487  Biso   1.000  O
  H10      1.0000 0.48899  0.71402  0.45418  Biso   1.000  H
  H11      1.0000 0.47120  0.72259  0.40490  Biso   1.000  H
  N9       1.0000 0.54129  0.70152  0.43031  Biso   1.000  N
  C14      1.0000 0.62896  0.70260  0.45559  Biso   1.000  C
  H12      1.0000 0.58237  0.71001  0.49220  Biso   1.000  H
  N10      1.0000 0.65468  0.65660  0.45990  Biso   1.000  N
  O4       1.0000 0.65047  0.57750  0.48621  Biso   1.000  O
  C15      1.0000 0.43479  0.39259  0.29810  Biso   1.000  C
  H13      1.0000 0.34648  0.43279  0.30128  Biso   1.000  H
  N11      1.0000 0.37210  0.49549  0.28090  Biso   1.000  N
  C16      1.0000 0.36719  0.54048  0.29560  Biso   1.000  C
  C17      1.0000 0.55486  0.72162  0.39928  Biso   1.000  C
  N12      1.0000 0.60649  0.72038  0.41330  Biso   1.000  N
  H14      1.0000 0.65019  0.72899  0.47419  Biso   1.000  H
  C18      1.0000 0.70299  0.65008  0.45518  Biso   1.000  C
  H15      1.0000 0.45389  0.36489  0.31579  Biso   1.000  H
  H16      1.0000 0.40387  0.37821  0.27809  Biso   1.000  H
  N13      1.0000 0.46408  0.41351  0.27500  Biso   1.000  N
  C19      1.0000 0.36849  0.48632  0.23761  Biso   1.000  C
  O5       1.0000 0.35779  0.57960  0.27609  Biso   1.000  O
  O6       1.0000 0.52777  0.73711  0.36579  Biso   1.000  O
  C20      1.0000 0.63468  0.74220  0.39030  Biso   1.000  C
  N14      1.0000 0.69929  0.64110  0.41271  Biso   1.000  N
  H17      1.0000 0.72059  0.62171  0.47279  Biso   1.000  H
  H18      1.0000 0.72319  0.68059  0.46548  Biso   1.000  H
  C21      1.0000 0.44180  0.43620  0.23408  Biso   1.000  C
  C22      1.0000 0.51468  0.41160  0.28830  Biso   1.000  C
  N15      1.0000 0.41639  0.48261  0.23259  Biso   1.000  N
  H19      1.0000 0.34930  0.51379  0.21979  Biso   1.000  H
  H20      1.0000 0.34989  0.45480  0.22781  Biso   1.000  H
  N16      1.0000 0.65250  0.70679  0.36711  Biso   1.000  N
  H21      1.0000 0.61369  0.76728  0.37060  Biso   1.000  H
  H22      1.0000 0.66358  0.76021  0.40999  Biso   1.000  H
  C23      1.0000 0.70659  0.59360  0.39919  Biso   1.000  C
  C24      1.0000 0.69828  0.67891  0.38340  Biso   1.000  C
  H23      1.0000 0.42050  0.41172  0.21330  Biso   1.000  H
  C25      1.0000 0.48798  0.45169  0.22319  Biso   1.000  C
  N17      1.0000 0.52948  0.43638  0.25971  Biso   1.000  N
  O7       1.0000 0.54210  0.39139  0.32007  Biso   1.000  O
  C26      1.0000 0.43660  0.52072  0.21829  Biso   1.000  C
  C27      1.0000 0.63008  0.70080  0.32478  Biso   1.000  C
  N18      1.0000 0.70269  0.59809  0.35880  Biso   1.000  N
  O8       1.0000 0.71557  0.55561  0.41970  Biso   1.000  O
  C28      1.0000 0.70019  0.64919  0.34488  Biso   1.000  C
  H24      1.0000 0.72761  0.70182  0.39451  Biso   1.000  H
  H25      1.0000 0.48859  0.43399  0.19769  Biso   1.000  H
  N19      1.0000 0.48160  0.50481  0.21611  Biso   1.000  N
  C29      1.0000 0.58168  0.43470  0.26049  Biso   1.000  C
  O9       1.0000 0.41898  0.56309  0.20883  Biso   1.000  O
  N20      1.0000 0.65569  0.66431  0.31189  Biso   1.000  N
  O10      1.0000 0.59319  0.72341  0.30141  Biso   1.000  O
  C30      1.0000 0.71020  0.55561  0.33430  Biso   1.000  C
  H26      1.0000 0.73049  0.65828  0.33830  Biso   1.000  H
  C31      1.0000 0.51089  0.53472  0.19800  Biso   1.000  C
  H27      1.0000 0.58170  0.42321  0.23290  Biso   1.000  H
  H28      1.0000 0.60078  0.41011  0.28168  Biso   1.000  H
  N21      1.0000 0.60639  0.48291  0.26988  Biso   1.000  N
  C32      1.0000 0.64441  0.65192  0.26901  Biso   1.000  C
  N22      1.0000 0.66349  0.53790  0.30309  Biso   1.000  N
  H29      1.0000 0.72599  0.52772  0.35340  Biso   1.000  H
  H30      1.0000 0.73331  0.56579  0.32001  Biso   1.000  H
  H31      1.0000 0.49127  0.56451  0.18458  Biso   1.000  H
  H32      1.0000 0.51721  0.51480  0.17591  Biso   1.000  H
  N23      1.0000 0.55770  0.55119  0.22719  Biso   1.000  N
  C33      1.0000 0.60219  0.52031  0.23789  Biso   1.000  C
  C34      1.0000 0.64410  0.49178  0.30609  Biso   1.000  C
  N24      1.0000 0.61888  0.60502  0.25681  Biso   1.000  N
  H33      1.0000 0.62357  0.67891  0.25159  Biso   1.000  H
  H34      1.0000 0.67580  0.65068  0.26311  Biso   1.000  H
  C35      1.0000 0.64490  0.55811  0.26108  Biso   1.000  C
  C36      1.0000 0.56908  0.60011  0.23599  Biso   1.000  C
  H35      1.0000 0.60680  0.50548  0.21261  Biso   1.000  H
  O11      1.0000 0.65887  0.46401  0.33621  Biso   1.000  O
  H36      1.0000 0.67138  0.55931  0.24828  Biso   1.000  H
  O12      1.0000 0.53829  0.63541  0.22588  Biso   1.000  O
  O13      1.0000 0.45867  0.49208  0.52650  Biso   1.000  O
  C37      1.0000 0.49097  0.46000  0.53949  Biso   1.000  C
  N25      1.0000 0.48467  0.40999  0.52791  Biso   1.000  N
  N26      1.0000 0.53798  0.46682  0.56639  Biso   1.000  N
  C38      1.0000 0.43700  0.38899  0.50041  Biso   1.000  C
  C39      1.0000 0.53049  0.38241  0.54570  Biso   1.000  C
  C40      1.0000 0.56899  0.42268  0.56761  Biso   1.000  C
  C41      1.0000 0.55967  0.51701  0.57600  Biso   1.000  C
  H37      1.0000 0.41577  0.41658  0.48430  Biso   1.000  H
  H38      1.0000 0.44337  0.36590  0.48018  Biso   1.000  H
  N27      1.0000 0.41079  0.36302  0.52229  Biso   1.000  N
  H39      1.0000 0.53967  0.36481  0.52360  Biso   1.000  H
  N28      1.0000 0.53209  0.34909  0.57900  Biso   1.000  N
  H40      1.0000 0.59259  0.42901  0.55241  Biso   1.000  H
  N29      1.0000 0.59419  0.40240  0.60831  Biso   1.000  N
  H41      1.0000 0.58898  0.51918  0.56720  Biso   1.000  H
  H42      1.0000 0.53496  0.54191  0.55959  Biso   1.000  H
  N30      1.0000 0.57458  0.52959  0.61979  Biso   1.000  N
  C42      1.0000 0.41698  0.31031  0.53218  Biso   1.000  C
  C43      1.0000 0.36627  0.38020  0.52488  Biso   1.000  C
  C44      1.0000 0.50909  0.29968  0.57210  Biso   1.000  C
  C45      1.0000 0.57277  0.35781  0.61420  Biso   1.000  C
  C46      1.0000 0.63726  0.42358  0.63899  Biso   1.000  C
  C47      1.0000 0.62246  0.51589  0.64979  Biso   1.000  C
  C48      1.0000 0.55216  0.56541  0.63449  Biso   1.000  C
  C49      1.0000 0.37096  0.29740  0.54439  Biso   1.000  C
  H43      1.0000 0.41757  0.28999  0.50781  Biso   1.000  H
  N31      1.0000 0.45869  0.29848  0.56970  Biso   1.000  N
  N32      1.0000 0.34528  0.34340  0.54008  Biso   1.000  N
  O14      1.0000 0.34946  0.42250  0.51377  Biso   1.000  O
  H44      1.0000 0.51097  0.28598  0.54579  Biso   1.000  H
  H45      1.0000 0.52878  0.27741  0.59510  Biso   1.000  H
  O15      1.0000 0.58808  0.33150  0.64510  Biso   1.000  O
  H46      1.0000 0.65968  0.43661  0.62488  Biso   1.000  H
  H47      1.0000 0.65548  0.39682  0.65840  Biso   1.000  H
  N33      1.0000 0.62616  0.46390  0.66299  Biso   1.000  N
  H48      1.0000 0.65039  0.52570  0.64020  Biso   1.000  H
  C50      1.0000 0.62397  0.54441  0.68889  Biso   1.000  C
  N34      1.0000 0.57857  0.57189  0.67560  Biso   1.000  N
  O16      1.0000 0.51258  0.58720  0.61417  Biso   1.000  O
  H49      1.0000 0.34977  0.27101  0.52578  Biso   1.000  H
  N35      1.0000 0.39348  0.27962  0.58671  Biso   1.000  N
  C51      1.0000 0.44506  0.27838  0.60069  Biso   1.000  C
  C52      1.0000 0.29698  0.34992  0.54479  Biso   1.000  C
  C53      1.0000 0.63279  0.45952  0.70440  Biso   1.000  C
  N36      1.0000 0.62787  0.50451  0.71911  Biso   1.000  N
  H50      1.0000 0.65348  0.56721  0.69869  Biso   1.000  H
  C54      1.0000 0.56518  0.60741  0.70188  Biso   1.000  C
  C55      1.0000 0.36528  0.25780  0.60968  Biso   1.000  C
  O17      1.0000 0.47216  0.26289  0.63418  Biso   1.000  O
  H51      1.0000 0.27937  0.37829  0.52719  Biso   1.000  H
  H52      1.0000 0.27678  0.31941  0.53449  Biso   1.000  H
  N37      1.0000 0.30068  0.35890  0.58730  Biso   1.000  N
  O18      1.0000 0.64218  0.42040  0.72388  Biso   1.000  O
  C56      1.0000 0.63148  0.51368  0.76240  Biso   1.000  C
  H53      1.0000 0.54607  0.63511  0.68418  Biso   1.000  H
  H54      1.0000 0.59605  0.62179  0.72188  Biso   1.000  H
  N38      1.0000 0.53586  0.58649  0.72500  Biso   1.000  N
  H55      1.0000 0.38628  0.23272  0.62940  Biso   1.000  H
  H56      1.0000 0.33639  0.23979  0.58998  Biso   1.000  H
  N39      1.0000 0.34748  0.29321  0.63290  Biso   1.000  N
  C57      1.0000 0.30168  0.32109  0.61658  Biso   1.000  C
  C58      1.0000 0.29338  0.40640  0.60078  Biso   1.000  C
  H57      1.0000 0.65066  0.48621  0.78019  Biso   1.000  H
  H58      1.0000 0.65008  0.54520  0.77220  Biso   1.000  H
  N40      1.0000 0.58358  0.51739  0.76739  Biso   1.000  N
  C59      1.0000 0.55816  0.56380  0.76589  Biso   1.000  C
  C60      1.0000 0.48525  0.58840  0.71168  Biso   1.000  C
  C61      1.0000 0.36988  0.29920  0.67519  Biso   1.000  C
  C62      1.0000 0.29978  0.35081  0.65509  Biso   1.000  C
  H59      1.0000 0.27237  0.29818  0.60550  Biso   1.000  H
  N41      1.0000 0.29729  0.40191  0.64120  Biso   1.000  N
  O19      1.0000 0.28436  0.44439  0.58028  Biso   1.000  O
  C63      1.0000 0.56336  0.47928  0.78168  Biso   1.000  C
  H60      1.0000 0.57946  0.58828  0.78668  Biso   1.000  H
  C64      1.0000 0.51195  0.54831  0.77678  Biso   1.000  C
  N42      1.0000 0.47046  0.56362  0.74030  Biso   1.000  N
  O20      1.0000 0.45787  0.60861  0.67994  Biso   1.000  O
  N43      1.0000 0.34427  0.33569  0.68808  Biso   1.000  N
  O21      1.0000 0.40678  0.27659  0.69860  Biso   1.000  O
  H61      1.0000 0.26948  0.34172  0.66168  Biso   1.000  H
  C65      1.0000 0.28977  0.44439  0.66570  Biso   1.000  C
  N44      1.0000 0.51837  0.49519  0.78390  Biso   1.000  N
  O22      1.0000 0.58098  0.43691  0.79114  Biso   1.000  O
  H62      1.0000 0.51137  0.56601  0.80228  Biso   1.000  H
  C66      1.0000 0.41828  0.56530  0.73949  Biso   1.000  C
  C67      1.0000 0.35557  0.34808  0.73100  Biso   1.000  C
  H63      1.0000 0.27399  0.47228  0.64660  Biso   1.000  H
  H64      1.0000 0.26667  0.43421  0.68000  Biso   1.000  H
  N45      1.0000 0.33647  0.46210  0.69688  Biso   1.000  N
  C68      1.0000 0.48908  0.46528  0.80200  Biso   1.000  C
  N46      1.0000 0.39357  0.51709  0.73009  Biso   1.000  N
  H65      1.0000 0.41826  0.57679  0.76708  Biso   1.000  H
  H66      1.0000 0.39918  0.58989  0.71829  Biso   1.000  H
  H67      1.0000 0.37636  0.32109  0.74838  Biso   1.000  H
  H68      1.0000 0.32418  0.34932  0.73690  Biso   1.000  H
  N47      1.0000 0.38106  0.39498  0.74320  Biso   1.000  N
  C69      1.0000 0.35507  0.44189  0.73889  Biso   1.000  C
  C70      1.0000 0.35586  0.50822  0.69389  Biso   1.000  C
  N48      1.0000 0.44226  0.44881  0.77279  Biso   1.000  N
  H69      1.0000 0.50865  0.43549  0.81539  Biso   1.000  H
  H70      1.0000 0.48276  0.48520  0.82410  Biso   1.000  H
  C71      1.0000 0.39777  0.47969  0.76208  Biso   1.000  C
  C72      1.0000 0.43088  0.39989  0.76399  Biso   1.000  C
  H71      1.0000 0.32858  0.44069  0.75169  Biso   1.000  H
  O23      1.0000 0.34107  0.53599  0.66380  Biso   1.000  O
  H72      1.0000 0.39317  0.49452  0.78740  Biso   1.000  H
  O24      1.0000 0.46168  0.36459  0.77413  Biso   1.000  O
  O25      1.0000 0.61138  0.29571  0.55465  Biso   1.000  O
  C73      1.0000 0.63477  0.25922  0.57351  Biso   1.000  C
  N49      1.0000 0.62437  0.20981  0.56370  Biso   1.000  N
  N50      1.0000 0.67686  0.26120  0.60959  Biso   1.000  N
  C74      1.0000 0.58149  0.19379  0.53050  Biso   1.000  C
  C75      1.0000 0.65687  0.17672  0.59410  Biso   1.000  C
  C76      1.0000 0.69359  0.21250  0.62560  Biso   1.000  C
  C77      1.0000 0.69487  0.30810  0.63109  Biso   1.000  C
  N51      1.0000 0.59147  0.17151  0.49579  Biso   1.000  N
  H73      1.0000 0.55927  0.22298  0.52010  Biso   1.000  H
  H74      1.0000 0.56349  0.16919  0.54148  Biso   1.000  H
  N52      1.0000 0.68929  0.14718  0.58000  Biso   1.000  N
  H75      1.0000 0.63808  0.15572  0.60781  Biso   1.000  H
  H76      1.0000 0.69235  0.20809  0.65428  Biso   1.000  H
  N53      1.0000 0.74166  0.19899  0.62450  Biso   1.000  N
  H77      1.0000 0.67118  0.33502  0.61711  Biso   1.000  H
  H78      1.0000 0.69527  0.30530  0.66009  Biso   1.000  H
  N54      1.0000 0.74367  0.32252  0.63240  Biso   1.000  N
  C78      1.0000 0.58049  0.19401  0.45840  Biso   1.000  C
  C79      1.0000 0.60099  0.11769  0.49370  Biso   1.000  C
  C80      1.0000 0.67498  0.09949  0.55859  Biso   1.000  C
  C81      1.0000 0.73856  0.15901  0.59888  Biso   1.000  C
  C82      1.0000 0.78748  0.21041  0.65849  Biso   1.000  C
  C83      1.0000 0.75117  0.36440  0.61430  Biso   1.000  C
  C84      1.0000 0.78967  0.30470  0.66449  Biso   1.000  C
  N55      1.0000 0.58370  0.15931  0.43009  Biso   1.000  N
  O26      1.0000 0.56918  0.23811  0.45110  Biso   1.000  O
  C85      1.0000 0.59259  0.11050  0.44729  Biso   1.000  C
  H79      1.0000 0.57778  0.09680  0.50291  Biso   1.000  H
  N56      1.0000 0.65216  0.10361  0.51439  Biso   1.000  N
  H80      1.0000 0.70506  0.07820  0.56508  Biso   1.000  H
  H81      1.0000 0.65169  0.08239  0.56970  Biso   1.000  H
  O27      1.0000 0.77377  0.13779  0.59370  Biso   1.000  O
  H82      1.0000 0.78098  0.20898  0.68509  Biso   1.000  H
  H83      1.0000 0.81237  0.18432  0.65959  Biso   1.000  H
  N57      1.0000 0.80816  0.25869  0.65509  Biso   1.000  N
  N58      1.0000 0.80097  0.37642  0.62869  Biso   1.000  N
  O28      1.0000 0.71877  0.38881  0.58665  Biso   1.000  O
  H84      1.0000 0.78656  0.30391  0.69270  Biso   1.000  H
  C86      1.0000 0.82857  0.34411  0.66239  Biso   1.000  C
  C87      1.0000 0.56507  0.16829  0.38508  Biso   1.000  C
  H85      1.0000 0.56409  0.08740  0.43349  Biso   1.000  H
  N59      1.0000 0.64098  0.08901  0.44838  Biso   1.000  N
  C88      1.0000 0.67337  0.08538  0.48771  Biso   1.000  C
  C89      1.0000 0.85296  0.26348  0.64950  Biso   1.000  C
  C90      1.0000 0.81985  0.42220  0.61848  Biso   1.000  C
  H86      1.0000 0.84298  0.36290  0.68921  Biso   1.000  H
  N60      1.0000 0.86576  0.31271  0.65409  Biso   1.000  N
  H87      1.0000 0.54439  0.13958  0.37079  Biso   1.000  H
  H88      1.0000 0.54370  0.19850  0.37890  Biso   1.000  H
  N61      1.0000 0.60529  0.17529  0.36901  Biso   1.000  N
  C91      1.0000 0.64977  0.06869  0.41258  Biso   1.000  C
  O29      1.0000 0.71567  0.06712  0.49850  Biso   1.000  O
  O30      1.0000 0.87859  0.22908  0.64417  Biso   1.000  O
  H89      1.0000 0.84049  0.43900  0.64460  Biso   1.000  H
  H90      1.0000 0.79159  0.44451  0.60390  Biso   1.000  H
  N62      1.0000 0.84988  0.41471  0.59180  Biso   1.000  N
  C92      1.0000 0.91518  0.33120  0.65799  Biso   1.000  C
  C93      1.0000 0.61707  0.22100  0.35640  Biso   1.000  C
  C94      1.0000 0.62830  0.13562  0.35440  Biso   1.000  C
  N63      1.0000 0.66286  0.10601  0.38758  Biso   1.000  N
  H91      1.0000 0.61937  0.05098  0.39479  Biso   1.000  H
  H92      1.0000 0.67687  0.04380  0.42219  Biso   1.000  H
  C95      1.0000 0.83669  0.43710  0.55369  Biso   1.000  C
  C96      1.0000 0.90257  0.40591  0.60868  Biso   1.000  C
  H93      1.0000 0.92609  0.35579  0.68109  Biso   1.000  H
  H94      1.0000 0.93888  0.30290  0.66539  Biso   1.000  H
  N64      1.0000 0.91697  0.35459  0.62029  Biso   1.000  N
  N65      1.0000 0.64717  0.21329  0.33499  Biso   1.000  N
  O31      1.0000 0.60098  0.26131  0.36280  Biso   1.000  O
  C97      1.0000 0.66080  0.16118  0.33430  Biso   1.000  C
  H95      1.0000 0.60290  0.11379  0.33399  Biso   1.000  H
  C98      1.0000 0.71159  0.11480  0.39098  Biso   1.000  C
  N66      1.0000 0.87597  0.43560  0.54089  Biso   1.000  N
  O32      1.0000 0.79529  0.45461  0.53437  Biso   1.000  O
  C99      1.0000 0.91917  0.41490  0.57129  Biso   1.000  C
  H96      1.0000 0.91936  0.42950  0.63209  Biso   1.000  H
  C100     1.0000 0.93276  0.33090  0.59148  Biso   1.000  C
  C101     1.0000 0.66419  0.25319  0.31420  Biso   1.000  C
  H97      1.0000 0.65358  0.14902  0.30509  Biso   1.000  H
  N67      1.0000 0.71058  0.14920  0.36058  Biso   1.000  N
  O33      1.0000 0.74849  0.09530  0.41629  Biso   1.000  O
  C102     1.0000 0.87619  0.45708  0.50119  Biso   1.000  C
  N68      1.0000 0.93229  0.36440  0.56180  Biso   1.000  N
  H98      1.0000 0.94819  0.43829  0.57841  Biso   1.000  H
  O34      1.0000 0.94507  0.28591  0.59298  Biso   1.000  O
  H99      1.0000 0.66208  0.24140  0.28621  Biso   1.000  H
  H100     1.0000 0.64150  0.28220  0.31030  Biso   1.000  H
  N69      1.0000 0.71470  0.26959  0.33689  Biso   1.000  N
  C103     1.0000 0.75449  0.15471  0.34869  Biso   1.000  C
  N70      1.0000 0.86867  0.42149  0.46948  Biso   1.000  N
  H101     1.0000 0.84967  0.48280  0.49161  Biso   1.000  H
  H102     1.0000 0.90847  0.47400  0.50609  Biso   1.000  H
  C104     1.0000 0.95917  0.35448  0.53409  Biso   1.000  C
  C105     1.0000 0.72477  0.31709  0.35250  Biso   1.000  C
  C106     1.0000 0.75767  0.24660  0.32959  Biso   1.000  C
  H103     1.0000 0.77977  0.13000  0.36439  Biso   1.000  H
  H104     1.0000 0.74499  0.14651  0.31860  Biso   1.000  H
  N71      1.0000 0.77648  0.20311  0.35559  Biso   1.000  N
  C107     1.0000 0.82409  0.41479  0.43730  Biso   1.000  C
  C108     1.0000 0.90917  0.39289  0.46271  Biso   1.000  C
  N72      1.0000 0.92628  0.35111  0.49048  Biso   1.000  N
  H105     1.0000 0.97766  0.32270  0.54229  Biso   1.000  H
  H106     1.0000 0.98367  0.38158  0.53689  Biso   1.000  H
  N73      1.0000 0.77447  0.32618  0.36089  Biso   1.000  N
  O35      1.0000 0.69507  0.34599  0.35718  Biso   1.000  O
  C109     1.0000 0.79818  0.28520  0.34569  Biso   1.000  C
  H107     1.0000 0.75040  0.23912  0.29941  Biso   1.000  H
  C110     1.0000 0.82379  0.20969  0.38231  Biso   1.000  C
  N74      1.0000 0.83180  0.38282  0.40899  Biso   1.000  N
  O36      1.0000 0.78478  0.43440  0.43399  Biso   1.000  O
  C111     1.0000 0.88299  0.36841  0.41979  Biso   1.000  C
  H108     1.0000 0.93719  0.41509  0.46258  Biso   1.000  H
  C112     1.0000 0.91956  0.30668  0.46988  Biso   1.000  C
  C113     1.0000 0.79467  0.37642  0.36810  Biso   1.000  C
  H109     1.0000 0.81057  0.29680  0.32329  Biso   1.000  H
  N75      1.0000 0.83657  0.25881  0.37869  Biso   1.000  N
  O37      1.0000 0.85157  0.17881  0.40500  Biso   1.000  O
  N76      1.0000 0.89218  0.31469  0.42869  Biso   1.000  N
  H110     1.0000 0.89728  0.38020  0.39850  Biso   1.000  H
  O38      1.0000 0.93438  0.26539  0.48449  Biso   1.000  O
  H111     1.0000 0.80969  0.38450  0.34679  Biso   1.000  H
  H112     1.0000 0.76717  0.40041  0.36470  Biso   1.000  H
  C114     1.0000 0.88648  0.27681  0.39660  Biso   1.000  C
  H113     1.0000 0.89689  0.29130  0.37428  Biso   1.000  H
  H114     1.0000 0.90877  0.24829  0.40899  Biso   1.000  H
  O39      1.0000 0.38858  0.70429  0.44532  Biso   1.000  O
  C115     1.0000 0.36517  0.74078  0.42650  Biso   1.000  C
  N77      1.0000 0.32307  0.73880  0.39039  Biso   1.000  N
  N78      1.0000 0.37557  0.79019  0.43630  Biso   1.000  N
  C116     1.0000 0.30509  0.69190  0.36888  Biso   1.000  C
  C117     1.0000 0.30639  0.78750  0.37441  Biso   1.000  C
  C118     1.0000 0.34307  0.82328  0.40590  Biso   1.000  C
  C119     1.0000 0.41847  0.80621  0.46948  Biso   1.000  C
  N79      1.0000 0.25627  0.67748  0.36761  Biso   1.000  N
  H115     1.0000 0.32879  0.66498  0.38290  Biso   1.000  H
  H116     1.0000 0.30470  0.69470  0.33989  Biso   1.000  H
  N80      1.0000 0.25828  0.80101  0.37550  Biso   1.000  N
  H117     1.0000 0.30757  0.79191  0.34569  Biso   1.000  H
  H118     1.0000 0.36190  0.84428  0.39220  Biso   1.000  H
  N81      1.0000 0.31068  0.85282  0.42001  Biso   1.000  N
  H119     1.0000 0.44067  0.77702  0.47990  Biso   1.000  H
  H120     1.0000 0.43647  0.83081  0.45849  Biso   1.000  H
  N82      1.0000 0.40849  0.82849  0.50419  Biso   1.000  N
  C120     1.0000 0.24880  0.63560  0.38571  Biso   1.000  C
  C121     1.0000 0.21029  0.69530  0.33549  Biso   1.000  C
  C122     1.0000 0.21248  0.78959  0.34148  Biso   1.000  C
  C123     1.0000 0.26137  0.84099  0.40109  Biso   1.000  C
  C124     1.0000 0.32498  0.90051  0.44139  Biso   1.000  C
  C125     1.0000 0.41948  0.80599  0.54161  Biso   1.000  C
  C126     1.0000 0.39899  0.88231  0.50631  Biso   1.000  C
  N83      1.0000 0.19899  0.62358  0.37129  Biso   1.000  N
  O40      1.0000 0.28119  0.61119  0.41333  Biso   1.000  O
  C127     1.0000 0.17139  0.65589  0.33758  Biso   1.000  C
  H121     1.0000 0.21338  0.69609  0.30731  Biso   1.000  H
  N84      1.0000 0.19177  0.74131  0.34488  Biso   1.000  N
  H122     1.0000 0.21898  0.79102  0.31489  Biso   1.000  H
  H123     1.0000 0.18759  0.81568  0.34039  Biso   1.000  H
  O41      1.0000 0.22617  0.86221  0.40631  Biso   1.000  O
  H124     1.0000 0.29487  0.92180  0.43490  Biso   1.000  H
  H125     1.0000 0.34828  0.91761  0.43031  Biso   1.000  H
  N85      1.0000 0.34776  0.89639  0.48558  Biso   1.000  N
  N86      1.0000 0.41627  0.84069  0.56988  Biso   1.000  N
  O42      1.0000 0.43078  0.76189  0.54888  Biso   1.000  O
  C128     1.0000 0.40738  0.88950  0.55269  Biso   1.000  C
  H126     1.0000 0.42220  0.90320  0.49710  Biso   1.000  H
  C129     1.0000 0.18007  0.57780  0.38149  Biso   1.000  C
  H127     1.0000 0.15700  0.63710  0.31080  Biso   1.000  H
  N87      1.0000 0.13417  0.68729  0.34588  Biso   1.000  N
  C130     1.0000 0.14698  0.73652  0.35050  Biso   1.000  C
  C131     1.0000 0.32657  0.91462  0.51230  Biso   1.000  C
  C132     1.0000 0.43489  0.83171  0.61489  Biso   1.000  C
  H128     1.0000 0.43587  0.91260  0.56648  Biso   1.000  H
  N88      1.0000 0.35898  0.91099  0.55160  Biso   1.000  N
  H129     1.0000 0.15948  0.56100  0.35540  Biso   1.000  H
  H130     1.0000 0.20838  0.55549  0.39610  Biso   1.000  H
  N89      1.0000 0.15008  0.58529  0.40818  Biso   1.000  N
  C133     1.0000 0.08478  0.66880  0.34198  Biso   1.000  C
  O43      1.0000 0.12138  0.77092  0.35584  Biso   1.000  O
  O44      1.0000 0.28427  0.93288  0.50150  Biso   1.000  O
  H131     1.0000 0.45557  0.86042  0.62919  Biso   1.000  H
  H132     1.0000 0.45627  0.80150  0.62110  Biso   1.000  H
  N90      1.0000 0.39469  0.82471  0.63100  Biso   1.000  N
  C134     1.0000 0.35019  0.93131  0.58739  Biso   1.000  C
  C135     1.0000 0.16327  0.56290  0.44629  Biso   1.000  C
  C136     1.0000 0.09739  0.59409  0.39129  Biso   1.000  C
  N91      1.0000 0.08299  0.64541  0.37968  Biso   1.000  N
  H133     1.0000 0.07388  0.64421  0.31888  Biso   1.000  H
  H134     1.0000 0.06108  0.69710  0.33458  Biso   1.000  H
  C137     1.0000 0.38287  0.77900  0.64361  Biso   1.000  C
  C138     1.0000 0.37168  0.86438  0.64560  Biso   1.000  C
  H135     1.0000 0.38056  0.94902  0.60518  Biso   1.000  H
  H136     1.0000 0.32306  0.95620  0.57778  Biso   1.000  H
  N92      1.0000 0.33706  0.89399  0.61239  Biso   1.000  N
  N93      1.0000 0.12399  0.56440  0.45909  Biso   1.000  N
  O45      1.0000 0.20469  0.54539  0.46564  Biso   1.000  O
  H137     1.0000 0.08057  0.57050  0.36789  Biso   1.000  H
  C139     1.0000 0.08079  0.58510  0.42869  Biso   1.000  C
  C140     1.0000 0.06720  0.66910  0.40849  Biso   1.000  C
  N94      1.0000 0.35275  0.78671  0.66499  Biso   1.000  N
  O46      1.0000 0.39898  0.73869  0.63718  Biso   1.000  O
  C141     1.0000 0.33918  0.83882  0.66570  Biso   1.000  C
  H138     1.0000 0.39706  0.88621  0.66598  Biso   1.000  H
  C142     1.0000 0.28837  0.88520  0.60899  Biso   1.000  C
  C143     1.0000 0.12377  0.54292  0.49879  Biso   1.000  C
  H139     1.0000 0.05179  0.56171  0.42160  Biso   1.000  H
  N95      1.0000 0.06768  0.63560  0.43820  Biso   1.000  N
  O47      1.0000 0.05489  0.71409  0.40699  Biso   1.000  O
  C144     1.0000 0.33579  0.74681  0.68580  Biso   1.000  C
  N96      1.0000 0.28938  0.85080  0.63939  Biso   1.000  N
  H140     1.0000 0.34638  0.85098  0.69489  Biso   1.000  H
  O48      1.0000 0.25147  0.90470  0.58368  Biso   1.000  O
  H141     1.0000 0.15027  0.51720  0.50840  Biso   1.000  H
  H142     1.0000 0.09146  0.52600  0.49389  Biso   1.000  H
  N97      1.0000 0.13129  0.57851  0.53050  Biso   1.000  N
  C145     1.0000 0.04079  0.64552  0.46589  Biso   1.000  C
  N98      1.0000 0.28526  0.73041  0.66308  Biso   1.000  N
  H143     1.0000 0.33786  0.75860  0.71380  Biso   1.000  H
  H144     1.0000 0.35847  0.71780  0.68970  Biso   1.000  H
  C146     1.0000 0.24547  0.84529  0.65128  Biso   1.000  C
  C147     1.0000 0.17588  0.58521  0.56271  Biso   1.000  C
  C148     1.0000 0.09077  0.60711  0.53730  Biso   1.000  C
  H145     1.0000 0.02227  0.67730  0.45768  Biso   1.000  H
  H146     1.0000 0.01626  0.61842  0.46308  Biso   1.000  H
  N99      1.0000 0.07368  0.64889  0.50949  Biso   1.000  N
  C149     1.0000 0.27517  0.68291  0.64751  Biso   1.000  C
  C150     1.0000 0.24226  0.75340  0.67038  Biso   1.000  C
  N100     1.0000 0.22349  0.79689  0.64439  Biso   1.000  N
  H147     1.0000 0.22016  0.87000  0.63558  Biso   1.000  H
  H148     1.0000 0.25498  0.85349  0.68140  Biso   1.000  H
  N101     1.0000 0.16817  0.61718  0.59098  Biso   1.000  N
  O49      1.0000 0.21518  0.56560  0.56598  Biso   1.000  O
  H149     1.0000 0.06277  0.58491  0.53739  Biso   1.000  H
  C151     1.0000 0.11697  0.63159  0.58018  Biso   1.000  C
  C152     1.0000 0.08036  0.69332  0.53009  Biso   1.000  C
  N102     1.0000 0.22545  0.67382  0.63908  Biso   1.000  N
  O50      1.0000 0.30489  0.65401  0.64279  Biso   1.000  O
  C153     1.0000 0.20178  0.71480  0.65428  Biso   1.000  C
  H150     1.0000 0.24958  0.76088  0.70060  Biso   1.000  H
  C154     1.0000 0.17619  0.79031  0.61770  Biso   1.000  C
  C155     1.0000 0.20527  0.62358  0.63190  Biso   1.000  C
  H151     1.0000 0.10269  0.61980  0.60150  Biso   1.000  H
  N103     1.0000 0.10778  0.68531  0.57129  Biso   1.000  N
  O51      1.0000 0.06558  0.73461  0.51548  Biso   1.000  O
  N104     1.0000 0.16336  0.74119  0.62129  Biso   1.000  N
  H152     1.0000 0.18935  0.70320  0.67669  Biso   1.000  H
  O52      1.0000 0.14836  0.82119  0.59498  Biso   1.000  O
  H153     1.0000 0.19028  0.61550  0.65319  Biso   1.000  H
  H154     1.0000 0.23277  0.59959  0.63530  Biso   1.000  H
  C156     1.0000 0.11349  0.72319  0.60341  Biso   1.000  C
  H155     1.0000 0.10307  0.70870  0.62569  Biso   1.000  H
  H156     1.0000 0.09119  0.75171  0.59098  Biso   1.000  H
  C157     1.0000 0.85588  0.78510  0.60650  Biso   1.000  C
  H157     1.0000 0.87397  0.75961  0.62719  Biso   1.000  H
  H158     1.0000 0.82686  0.76859  0.58558  Biso   1.000  H
  N105     1.0000 0.88999  0.80520  0.58490  Biso   1.000  N
  N106     1.0000 0.83897  0.82280  0.62669  Biso   1.000  N
  C158     1.0000 0.93988  0.79910  0.60050  Biso   1.000  C
  C159     1.0000 0.87366  0.82770  0.54588  Biso   1.000  C
  C160     1.0000 0.85306  0.82489  0.66811  Biso   1.000  C
  C161     1.0000 0.79417  0.85252  0.60740  Biso   1.000  C
  N107     1.0000 0.96128  0.81819  0.57528  Biso   1.000  N
  O53      1.0000 0.96216  0.77702  0.63390  Biso   1.000  O
  C162     1.0000 0.92426  0.83601  0.53799  Biso   1.000  C
  H159     1.0000 0.85077  0.80520  0.52429  Biso   1.000  H
  N108     1.0000 0.85386  0.87838  0.54239  Biso   1.000  N
  N109     1.0000 0.82456  0.86090  0.67950  Biso   1.000  N
  O54      1.0000 0.88558  0.80041  0.69439  Biso   1.000  O
  H160     1.0000 0.76545  0.83099  0.59098  Biso   1.000  H
  C163     1.0000 0.78465  0.87771  0.64489  Biso   1.000  C
  N110     1.0000 0.80016  0.89440  0.58268  Biso   1.000  N
  C164     1.0000 0.01298  0.81112  0.58078  Biso   1.000  C
  H161     1.0000 0.92466  0.81598  0.51339  Biso   1.000  H
  N111     1.0000 0.92536  0.89029  0.52959  Biso   1.000  N
  C165     1.0000 0.88240  0.91308  0.53140  Biso   1.000  C
  C166     1.0000 0.80459  0.89029  0.54161  Biso   1.000  C
  C167     1.0000 0.82727  0.86850  0.72388  Biso   1.000  C
  H162     1.0000 0.75195  0.86730  0.64648  Biso   1.000  H
  N112     1.0000 0.78516  0.93101  0.63549  Biso   1.000  N
  C168     1.0000 0.78807  0.93809  0.59688  Biso   1.000  C
  H163     1.0000 0.01560  0.80049  0.55390  Biso   1.000  H
  H164     1.0000 0.02666  0.78379  0.60119  Biso   1.000  H
  N113     1.0000 0.04156  0.85450  0.59479  Biso   1.000  N
  C169     1.0000 0.96237  0.91439  0.51520  Biso   1.000  C
  O55      1.0000 0.87237  0.95722  0.52201  Biso   1.000  O
  H165     1.0000 0.79407  0.92240  0.52659  Biso   1.000  H
  H166     1.0000 0.78138  0.86401  0.52560  Biso   1.000  H
  H167     1.0000 0.84627  0.84080  0.74158  Biso   1.000  H
  H168     1.0000 0.79326  0.86839  0.72510  Biso   1.000  H
  N114     1.0000 0.85076  0.91462  0.73889  Biso   1.000  N
  C170     1.0000 0.77218  0.96949  0.65768  Biso   1.000  C
  O56      1.0000 0.78089  0.97900  0.57669  Biso   1.000  O
  C171     1.0000 0.07487  0.85940  0.63440  Biso   1.000  C
  C172     1.0000 0.04867  0.89238  0.56748  Biso   1.000  C
  H169     1.0000 0.94778  0.94501  0.49929  Biso   1.000  H
  H170     1.0000 0.97116  0.89141  0.49610  Biso   1.000  H
  N115     1.0000 0.00696  0.92761  0.54960  Biso   1.000  N
  C173     1.0000 0.89418  0.91529  0.77098  Biso   1.000  C
  C174     1.0000 0.82487  0.96189  0.73449  Biso   1.000  C
  H171     1.0000 0.76036  0.99869  0.63899  Biso   1.000  H
  H172     1.0000 0.74428  0.95789  0.66608  Biso   1.000  H
  N116     1.0000 0.81188  0.98499  0.69389  Biso   1.000  N
  N117     1.0000 0.10056  0.90399  0.63830  Biso   1.000  N
  O57      1.0000 0.08088  0.82931  0.66289  Biso   1.000  O
  C175     1.0000 0.08846  0.92660  0.59638  Biso   1.000  C
  H173     1.0000 0.05966  0.87748  0.54538  Biso   1.000  H
  C176     1.0000 0.01848  0.97601  0.56180  Biso   1.000  C
  N118     1.0000 0.90396  0.96332  0.78530  Biso   1.000  N
  O58      1.0000 0.92066  0.87928  0.78480  Biso   1.000  O
  H174     1.0000 0.79497  0.95860  0.74289  Biso   1.000  H
  C177     1.0000 0.86298  0.99641  0.76389  Biso   1.000  C
  C178     1.0000 0.83888  0.02830  0.69660  Biso   1.000  C
  C179     1.0000 0.14075  0.91769  0.67469  Biso   1.000  C
  H175     1.0000 0.11856  0.92719  0.58808  Biso   1.000  H
  N119     1.0000 0.06607  0.97612  0.59220  Biso   1.000  N
  O59      1.0000 0.99319  0.01209  0.54801  Biso   1.000  O
  C180     1.0000 0.94978  0.97881  0.81570  Biso   1.000  C
  H176     1.0000 0.84958  0.01310  0.78390  Biso   1.000  H
  N120     1.0000 0.87225  0.03272  0.73518  Biso   1.000  N
  O60      1.0000 0.83226  0.05761  0.66789  Biso   1.000  O
  H177     1.0000 0.15195  0.88770  0.69248  Biso   1.000  H
  H178     1.0000 0.16887  0.92899  0.66630  Biso   1.000  H
  N121     1.0000 0.12928  0.95722  0.69938  Biso   1.000  N
  C181     1.0000 0.09017  0.02119  0.61208  Biso   1.000  C
  H179     1.0000 0.96586  0.94932  0.83250  Biso   1.000  H
  H180     1.0000 0.94247  0.00288  0.83468  Biso   1.000  H
  N122     1.0000 0.98486  0.00168  0.79929  Biso   1.000  N
  C182     1.0000 0.90036  0.07909  0.74988  Biso   1.000  C
  C183     1.0000 0.12138  0.94879  0.73599  Biso   1.000  C
  C184     1.0000 0.13016  0.00951  0.68999  Biso   1.000  C
  H181     1.0000 0.12496  0.02119  0.61299  Biso   1.000  H
  H182     1.0000 0.07307  0.05031  0.59520  Biso   1.000  H
  N123     1.0000 0.09007  0.02691  0.65400  Biso   1.000  N
  C185     1.0000 0.98766  0.05420  0.79439  Biso   1.000  C
  C186     1.0000 0.02656  0.97672  0.79919  Biso   1.000  C
  H183     1.0000 0.89608  0.08950  0.77619  Biso   1.000  H
  H184     1.0000 0.88588  0.10571  0.72900  Biso   1.000  H
  N124     1.0000 0.95206  0.07569  0.75690  Biso   1.000  N
  N125     1.0000 0.11177  0.99341  0.74988  Biso   1.000  N
  O61      1.0000 0.12337  0.90679  0.75219  Biso   1.000  O
  C187     1.0000 0.12025  0.03429  0.72669  Biso   1.000  C
  H185     1.0000 0.16318  0.01969  0.68889  Biso   1.000  H
  C188     1.0000 0.06167  0.06259  0.66389  Biso   1.000  C
  H186     1.0000 0.98747  0.07239  0.81989  Biso   1.000  H
  C189     1.0000 0.03867  0.06150  0.78730  Biso   1.000  C
  O62      1.0000 0.03537  0.93221  0.80718  Biso   1.000  O
  N126     1.0000 0.05626  0.00951  0.78818  Biso   1.000  N
  C190     1.0000 0.97337  0.09489  0.73028  Biso   1.000  C
  C191     1.0000 0.10686  0.99820  0.79070  Biso   1.000  C
  H187     1.0000 0.14925  0.05499  0.74379  Biso   1.000  H
  N127     1.0000 0.07605  0.06551  0.70609  Biso   1.000  N
  O63      1.0000 0.02888  0.08800  0.63889  Biso   1.000  O
  H188     1.0000 0.06246  0.08291  0.80927  Biso   1.000  H
  N128     1.0000 0.02346  0.08460  0.74579  Biso   1.000  N
  O64      1.0000 0.95208  0.11948  0.69901  Biso   1.000  O
  H189     1.0000 0.11765  0.96650  0.80628  Biso   1.000  H
  H190     1.0000 0.12935  0.02512  0.80650  Biso   1.000  H
  C192     1.0000 0.05875  0.10290  0.72769  Biso   1.000  C
  H191     1.0000 0.08777  0.11720  0.75010  Biso   1.000  H
  H192     1.0000 0.04306  0.13030  0.70790  Biso   1.000  H
  C193     1.0000 0.14409  0.21490  0.39351  Biso   1.000  C
  N129     1.0000 0.16099  0.17720  0.37329  Biso   1.000  N
  H193     1.0000 0.12599  0.24039  0.37279  Biso   1.000  H
  H194     1.0000 0.17307  0.23141  0.41439  Biso   1.000  H
  N130     1.0000 0.10998  0.19480  0.41511  Biso   1.000  N
  C194     1.0000 0.14688  0.17511  0.33190  Biso   1.000  C
  C195     1.0000 0.20577  0.14748  0.39261  Biso   1.000  C
  C196     1.0000 0.06010  0.20090  0.39950  Biso   1.000  C
  C197     1.0000 0.12626  0.17230  0.45409  Biso   1.000  C
  N131     1.0000 0.17538  0.13910  0.32051  Biso   1.000  N
  O65      1.0000 0.11438  0.19959  0.30559  Biso   1.000  O
  C198     1.0000 0.21527  0.12229  0.35509  Biso   1.000  C
  H195     1.0000 0.23447  0.16901  0.40899  Biso   1.000  H
  N132     1.0000 0.19976  0.10560  0.41729  Biso   1.000  N
  N133     1.0000 0.03868  0.18181  0.42469  Biso   1.000  N
  O66      1.0000 0.03778  0.22298  0.36611  Biso   1.000  O
  N134     1.0000 0.14606  0.12162  0.45759  Biso   1.000  N
  C199     1.0000 0.07566  0.16399  0.46199  Biso   1.000  C
  H196     1.0000 0.14916  0.19480  0.47569  Biso   1.000  H
  C200     1.0000 0.17269  0.13150  0.27609  Biso   1.000  C
  H197     1.0000 0.24797  0.13270  0.35350  Biso   1.000  H
  N135     1.0000 0.21477  0.06899  0.36448  Biso   1.000  N
  C201     1.0000 0.21189  0.06191  0.40309  Biso   1.000  C
  C202     1.0000 0.19539  0.10971  0.45840  Biso   1.000  C
  C203     1.0000 0.98698  0.18888  0.41920  Biso   1.000  C
  C204     1.0000 0.11758  0.08692  0.46860  Biso   1.000  C
  H198     1.0000 0.07527  0.18402  0.48658  Biso   1.000  H
  N136     1.0000 0.07457  0.10971  0.47038  Biso   1.000  N
  H199     1.0000 0.15369  0.15920  0.25840  Biso   1.000  H
  H200     1.0000 0.20668  0.13161  0.27491  Biso   1.000  H
  N137     1.0000 0.14917  0.08538  0.26108  Biso   1.000  N
  C205     1.0000 0.22778  0.03051  0.34229  Biso   1.000  C
  O67      1.0000 0.21907  0.02100  0.42329  Biso   1.000  O
  H201     1.0000 0.20586  0.07760  0.47338  Biso   1.000  H
  H202     1.0000 0.21858  0.13599  0.47438  Biso   1.000  H
  H203     1.0000 0.98438  0.19951  0.44610  Biso   1.000  H
  H204     1.0000 0.97326  0.21621  0.39879  Biso   1.000  H
  N138     1.0000 0.95836  0.14550  0.40518  Biso   1.000  N
  O68      1.0000 0.12757  0.04278  0.47800  Biso   1.000  O
  C206     1.0000 0.03757  0.08561  0.48480  Biso   1.000  C
  C207     1.0000 0.10578  0.08471  0.22900  Biso   1.000  C
  C208     1.0000 0.17510  0.03811  0.26548  Biso   1.000  C
  N139     1.0000 0.18808  0.01501  0.30609  Biso   1.000  N
  H205     1.0000 0.23960  0.00131  0.36099  Biso   1.000  H
  H206     1.0000 0.25569  0.04211  0.33390  Biso   1.000  H
  C209     1.0000 0.92510  0.14060  0.36561  Biso   1.000  C
  C210     1.0000 0.95129  0.10762  0.43249  Biso   1.000  C
  H207     1.0000 0.05219  0.05499  0.50069  Biso   1.000  H
  H208     1.0000 0.02878  0.10859  0.50390  Biso   1.000  H
  N140     1.0000 0.99298  0.07239  0.45041  Biso   1.000  N
  N141     1.0000 0.09598  0.03668  0.21470  Biso   1.000  N
  O69      1.0000 0.07928  0.12072  0.21520  Biso   1.000  O
  H209     1.0000 0.20499  0.04140  0.25709  Biso   1.000  H
  C211     1.0000 0.13700  0.00359  0.23611  Biso   1.000  C
  C212     1.0000 0.16109  0.97170  0.30340  Biso   1.000  C
  N142     1.0000 0.89938  0.09601  0.36171  Biso   1.000  N
  O70      1.0000 0.91908  0.17069  0.33708  Biso   1.000  O
  C213     1.0000 0.91147  0.07340  0.40359  Biso   1.000  C
  H210     1.0000 0.94027  0.12252  0.45459  Biso   1.000  H
  C214     1.0000 0.98150  0.02399  0.43820  Biso   1.000  C
  C215     1.0000 0.05020  0.02119  0.18430  Biso   1.000  C
  H211     1.0000 0.15039  0.98690  0.21611  Biso   1.000  H
  N143     1.0000 0.12767  0.96728  0.26480  Biso   1.000  N
  O71      1.0000 0.16766  0.94239  0.33209  Biso   1.000  O
  C216     1.0000 0.85917  0.08231  0.32528  Biso   1.000  C
  H212     1.0000 0.88140  0.07281  0.41189  Biso   1.000  H
  N144     1.0000 0.93387  0.02388  0.40781  Biso   1.000  N
  O72      1.0000 0.00678  0.98791  0.45200  Biso   1.000  O
  H213     1.0000 0.03408  0.05068  0.16751  Biso   1.000  H
  H214     1.0000 0.05749  0.99712  0.16529  Biso   1.000  H
  N145     1.0000 0.01510  0.99832  0.20069  Biso   1.000  N
  C217     1.0000 0.09960  0.92091  0.25010  Biso   1.000  C
  N146     1.0000 0.87069  0.04278  0.30059  Biso   1.000  N
  H215     1.0000 0.84798  0.11230  0.30749  Biso   1.000  H
  H216     1.0000 0.83110  0.07101  0.33371  Biso   1.000  H
  C218     1.0000 0.90979  0.97881  0.38789  Biso   1.000  C
  C219     1.0000 0.97338  0.02328  0.20081  Biso   1.000  C
  C220     1.0000 0.01230  0.94580  0.20559  Biso   1.000  C
  H217     1.0000 0.10389  0.91050  0.22378  Biso   1.000  H
  H218     1.0000 0.11409  0.89429  0.27101  Biso   1.000  H
  N147     1.0000 0.04791  0.92431  0.24310  Biso   1.000  N
  C221     1.0000 0.87858  0.05121  0.26398  Biso   1.000  C
  C222     1.0000 0.86980  0.99049  0.30999  Biso   1.000  C
  N148     1.0000 0.90987  0.97309  0.34601  Biso   1.000  N
  H219     1.0000 0.87497  0.97881  0.38699  Biso   1.000  H
  H220     1.0000 0.92690  0.94969  0.40481  Biso   1.000  H
  N149     1.0000 0.94370  0.99049  0.21180  Biso   1.000  N
  O73      1.0000 0.96460  0.06779  0.19279  Biso   1.000  O
  C223     1.0000 0.96130  0.93850  0.21270  Biso   1.000  C
  H221     1.0000 0.01249  0.92761  0.18009  Biso   1.000  H
  C224     1.0000 0.02659  0.90511  0.26970  Biso   1.000  C
  N150     1.0000 0.88819  0.00659  0.25010  Biso   1.000  N
  O74      1.0000 0.87659  0.09321  0.24779  Biso   1.000  O
  C225     1.0000 0.87968  0.96571  0.27329  Biso   1.000  C
  H222     1.0000 0.83679  0.98031  0.31108  Biso   1.000  H
  C226     1.0000 0.93829  0.93741  0.33608  Biso   1.000  C
  C227     1.0000 0.89308  0.00180  0.20930  Biso   1.000  C
  H223     1.0000 0.93750  0.91709  0.19070  Biso   1.000  H
  N151     1.0000 0.97650  0.91540  0.25418  Biso   1.000  N
  O75      1.0000 0.04789  0.88052  0.30100  Biso   1.000  O
  N152     1.0000 0.92387  0.93449  0.29388  Biso   1.000  N
  H224     1.0000 0.85067  0.94501  0.25618  Biso   1.000  H
  O76      1.0000 0.97108  0.91200  0.36108  Biso   1.000  O
  H225     1.0000 0.87059  0.97488  0.19351  Biso   1.000  H
  H226     1.0000 0.88228  0.03350  0.19370  Biso   1.000  H
  C228     1.0000 0.94118  0.89710  0.27229  Biso   1.000  C
  H227     1.0000 0.91220  0.88280  0.24991  Biso   1.000  H
  H228     1.0000 0.95688  0.86970  0.29211  Biso   1.000  H
  O77      1.0000 0.42069  0.12072  0.28480  Biso   1.000  O
  C229     1.0000 0.39419  0.08471  0.27101  Biso   1.000  C
  N153     1.0000 0.35079  0.08538  0.23889  Biso   1.000  N
  N154     1.0000 0.40399  0.03668  0.28530  Biso   1.000  N
  C230     1.0000 0.32731  0.13150  0.22391  Biso   1.000  C
  C231     1.0000 0.32490  0.03811  0.23449  Biso   1.000  C
  C232     1.0000 0.36297  0.00359  0.26389  Biso   1.000  C
  C233     1.0000 0.44977  0.02119  0.31570  Biso   1.000  C
  H229     1.0000 0.34628  0.15920  0.24161  Biso   1.000  H
  H230     1.0000 0.29329  0.13161  0.22509  Biso   1.000  H
  N155     1.0000 0.32459  0.13910  0.17950  Biso   1.000  N
  H231     1.0000 0.29497  0.04140  0.24289  Biso   1.000  H
  N156     1.0000 0.31188  0.01501  0.19388  Biso   1.000  N
  H232     1.0000 0.34957  0.98690  0.28390  Biso   1.000  H
  N157     1.0000 0.37230  0.96728  0.23521  Biso   1.000  N
  H233     1.0000 0.46589  0.05068  0.33249  Biso   1.000  H
  H234     1.0000 0.44248  0.99712  0.33471  Biso   1.000  H
  N158     1.0000 0.48489  0.99832  0.29928  Biso   1.000  N
  C234     1.0000 0.35309  0.17511  0.16810  Biso   1.000  C
  C235     1.0000 0.28470  0.12229  0.14491  Biso   1.000  C
  C236     1.0000 0.27219  0.03051  0.15771  Biso   1.000  C
  C237     1.0000 0.33888  0.97170  0.19660  Biso   1.000  C
  C238     1.0000 0.40040  0.92091  0.24991  Biso   1.000  C
  C239     1.0000 0.52659  0.02328  0.29919  Biso   1.000  C
  C240     1.0000 0.48769  0.94580  0.29438  Biso   1.000  C
  N159     1.0000 0.33900  0.17720  0.12669  Biso   1.000  N
  O78      1.0000 0.38558  0.19959  0.19438  Biso   1.000  O
  C241     1.0000 0.29420  0.14748  0.10740  Biso   1.000  C
  H235     1.0000 0.25200  0.13270  0.14651  Biso   1.000  H
  N160     1.0000 0.28519  0.06899  0.13549  Biso   1.000  N
  H236     1.0000 0.26039  0.00131  0.13898  Biso   1.000  H
  H237     1.0000 0.24428  0.04211  0.16611  Biso   1.000  H
  O79      1.0000 0.33229  0.94239  0.16788  Biso   1.000  O
  H238     1.0000 0.39607  0.91050  0.27619  Biso   1.000  H
  H239     1.0000 0.38588  0.89429  0.22900  Biso   1.000  H
  N161     1.0000 0.45210  0.92431  0.25690  Biso   1.000  N
  O80      1.0000 0.53541  0.06779  0.30721  Biso   1.000  O
  N162     1.0000 0.55630  0.99049  0.28820  Biso   1.000  N
  H240     1.0000 0.48746  0.92761  0.31988  Biso   1.000  H
  C242     1.0000 0.53870  0.93850  0.28730  Biso   1.000  C
  C243     1.0000 0.35588  0.21490  0.10649  Biso   1.000  C
  H241     1.0000 0.26550  0.16901  0.09101  Biso   1.000  H
  N163     1.0000 0.30021  0.10560  0.08271  Biso   1.000  N
  C244     1.0000 0.28811  0.06191  0.09691  Biso   1.000  C
  C245     1.0000 0.47338  0.90511  0.23031  Biso   1.000  C
  C246     1.0000 0.60689  0.00180  0.29070  Biso   1.000  C
  H242     1.0000 0.56250  0.91709  0.30930  Biso   1.000  H
  N164     1.0000 0.52349  0.91540  0.24579  Biso   1.000  N
  H243     1.0000 0.37400  0.24039  0.12719  Biso   1.000  H
  H244     1.0000 0.32690  0.23141  0.08561  Biso   1.000  H
  N165     1.0000 0.38999  0.19480  0.08489  Biso   1.000  N
  C247     1.0000 0.30458  0.10971  0.04160  Biso   1.000  C
  O81      1.0000 0.28089  0.02100  0.07669  Biso   1.000  O
  O82      1.0000 0.45211  0.88052  0.19900  Biso   1.000  O
  H245     1.0000 0.61769  0.03350  0.30631  Biso   1.000  H
  N166     1.0000 0.61178  0.00659  0.24991  Biso   1.000  N
  H246     1.0000 0.62938  0.97488  0.30649  Biso   1.000  H
  C248     1.0000 0.55878  0.89710  0.22769  Biso   1.000  C
  C249     1.0000 0.43991  0.20090  0.10050  Biso   1.000  C
  C250     1.0000 0.37371  0.17230  0.04591  Biso   1.000  C
  H247     1.0000 0.29410  0.07760  0.02659  Biso   1.000  H
  H248     1.0000 0.28141  0.13599  0.02559  Biso   1.000  H
  N167     1.0000 0.35389  0.12162  0.04238  Biso   1.000  N
  C251     1.0000 0.62138  0.05121  0.23599  Biso   1.000  C
  C252     1.0000 0.62028  0.96571  0.22669  Biso   1.000  C
  H249     1.0000 0.58780  0.88280  0.25010  Biso   1.000  H
  H250     1.0000 0.54309  0.86970  0.20790  Biso   1.000  H
  N168     1.0000 0.57608  0.93449  0.20609  Biso   1.000  N
  N169     1.0000 0.46129  0.18181  0.07531  Biso   1.000  N
  O83      1.0000 0.46219  0.22298  0.13390  Biso   1.000  O
  C253     1.0000 0.42429  0.16399  0.03798  Biso   1.000  C
  H251     1.0000 0.35081  0.19480  0.02431  Biso   1.000  H
  C254     1.0000 0.38239  0.08692  0.03140  Biso   1.000  C
  N170     1.0000 0.62928  0.04278  0.19941  Biso   1.000  N
  O84      1.0000 0.62340  0.09321  0.25219  Biso   1.000  O
  H252     1.0000 0.64928  0.94501  0.24379  Biso   1.000  H
  C255     1.0000 0.63019  0.99049  0.18998  Biso   1.000  C
  C256     1.0000 0.56170  0.93741  0.16389  Biso   1.000  C
  C257     1.0000 0.51299  0.18888  0.08081  Biso   1.000  C
  H253     1.0000 0.42469  0.18402  0.01339  Biso   1.000  H
  N171     1.0000 0.42539  0.10971  0.02959  Biso   1.000  N
  O85      1.0000 0.37240  0.04278  0.02200  Biso   1.000  O
  C258     1.0000 0.64078  0.08231  0.17469  Biso   1.000  C
  H254     1.0000 0.66317  0.98031  0.18889  Biso   1.000  H
  N172     1.0000 0.59010  0.97309  0.15400  Biso   1.000  N
  O86      1.0000 0.52888  0.91200  0.13889  Biso   1.000  O
  H255     1.0000 0.51559  0.19951  0.05390  Biso   1.000  H
  H256     1.0000 0.52669  0.21621  0.10119  Biso   1.000  H
  N173     1.0000 0.54159  0.14550  0.09479  Biso   1.000  N
  C259     1.0000 0.46240  0.08561  0.01520  Biso   1.000  C
  N174     1.0000 0.60059  0.09601  0.13830  Biso   1.000  N
  H257     1.0000 0.65199  0.11230  0.19251  Biso   1.000  H
  H258     1.0000 0.66890  0.07101  0.16629  Biso   1.000  H
  C260     1.0000 0.59021  0.97881  0.11211  Biso   1.000  C
  C261     1.0000 0.57490  0.14060  0.13440  Biso   1.000  C
  C262     1.0000 0.54871  0.10762  0.06751  Biso   1.000  C
  N175     1.0000 0.50699  0.07239  0.04959  Biso   1.000  N
  H259     1.0000 0.44774  0.05499  0.99928  Biso   1.000  H
  H260     1.0000 0.47115  0.10859  0.99607  Biso   1.000  H
  C263     1.0000 0.58850  0.07340  0.09641  Biso   1.000  C
  N176     1.0000 0.56610  0.02388  0.09220  Biso   1.000  N
  H261     1.0000 0.62499  0.97881  0.11298  Biso   1.000  H
  H262     1.0000 0.57310  0.94969  0.09519  Biso   1.000  H
  O87      1.0000 0.58088  0.17069  0.16289  Biso   1.000  O
  H263     1.0000 0.55970  0.12252  0.04541  Biso   1.000  H
  C264     1.0000 0.51851  0.02399  0.06180  Biso   1.000  C
  H264     1.0000 0.61861  0.07281  0.08811  Biso   1.000  H
  O88      1.0000 0.49319  0.98791  0.04800  Biso   1.000  O
  O89      1.0000 0.57928  0.87928  0.71520  Biso   1.000  O
  C265     1.0000 0.60579  0.91529  0.72900  Biso   1.000  C
  N177     1.0000 0.59598  0.96332  0.71470  Biso   1.000  N
  N178     1.0000 0.64917  0.91462  0.76108  Biso   1.000  N
  C266     1.0000 0.63695  0.99641  0.73608  Biso   1.000  C
  C267     1.0000 0.55017  0.97881  0.68430  Biso   1.000  C
  C268     1.0000 0.67266  0.86850  0.77610  Biso   1.000  C
  C269     1.0000 0.67507  0.96189  0.76549  Biso   1.000  C
  H265     1.0000 0.65035  0.01310  0.71608  Biso   1.000  H
  N179     1.0000 0.62768  0.03272  0.76480  Biso   1.000  N
  H266     1.0000 0.53408  0.94932  0.66748  Biso   1.000  H
  H267     1.0000 0.55746  0.00288  0.66530  Biso   1.000  H
  N180     1.0000 0.51507  0.00168  0.70069  Biso   1.000  N
  H268     1.0000 0.65366  0.84080  0.75840  Biso   1.000  H
  H269     1.0000 0.70667  0.86839  0.77488  Biso   1.000  H
  N181     1.0000 0.67537  0.86090  0.82048  Biso   1.000  N
  H270     1.0000 0.70496  0.95860  0.75709  Biso   1.000  H
  N182     1.0000 0.68805  0.98499  0.80609  Biso   1.000  N
  C270     1.0000 0.66105  0.02830  0.80338  Biso   1.000  C
  C271     1.0000 0.59957  0.07909  0.75010  Biso   1.000  C
  C272     1.0000 0.47338  0.97672  0.70078  Biso   1.000  C
  C273     1.0000 0.51227  0.05420  0.70559  Biso   1.000  C
  C274     1.0000 0.64688  0.82489  0.83190  Biso   1.000  C
  C275     1.0000 0.71528  0.87771  0.85509  Biso   1.000  C
  C276     1.0000 0.72775  0.96949  0.84230  Biso   1.000  C
  O90      1.0000 0.66767  0.05761  0.83209  Biso   1.000  O
  H271     1.0000 0.60386  0.08950  0.72379  Biso   1.000  H
  H272     1.0000 0.61405  0.10571  0.77098  Biso   1.000  H
  N183     1.0000 0.54787  0.07569  0.74308  Biso   1.000  N
  O91      1.0000 0.46457  0.93221  0.69279  Biso   1.000  O
  N184     1.0000 0.44367  0.00951  0.71180  Biso   1.000  N
  H273     1.0000 0.51246  0.07239  0.68009  Biso   1.000  H
  C277     1.0000 0.46126  0.06150  0.71268  Biso   1.000  C
  N185     1.0000 0.66096  0.82280  0.87329  Biso   1.000  N
  O92      1.0000 0.61435  0.80041  0.80559  Biso   1.000  O
  C278     1.0000 0.70576  0.85252  0.89258  Biso   1.000  C
  H274     1.0000 0.74798  0.86730  0.85350  Biso   1.000  H
  N186     1.0000 0.71477  0.93101  0.86449  Biso   1.000  N
  H275     1.0000 0.73957  0.99869  0.86099  Biso   1.000  H
  H276     1.0000 0.75565  0.95789  0.83390  Biso   1.000  H
  C279     1.0000 0.52656  0.09489  0.76970  Biso   1.000  C
  C280     1.0000 0.39309  0.99820  0.70931  Biso   1.000  C
  H277     1.0000 0.43747  0.08291  0.69070  Biso   1.000  H
  N187     1.0000 0.47647  0.08460  0.75419  Biso   1.000  N
  C281     1.0000 0.64405  0.78510  0.89348  Biso   1.000  C
  H278     1.0000 0.73448  0.83099  0.90899  Biso   1.000  H
  N188     1.0000 0.69977  0.89440  0.91730  Biso   1.000  N
  C282     1.0000 0.71186  0.93809  0.90310  Biso   1.000  C
  O93      1.0000 0.54786  0.11948  0.80100  Biso   1.000  O
  H279     1.0000 0.38228  0.96650  0.69370  Biso   1.000  H
  N189     1.0000 0.38816  0.99341  0.75010  Biso   1.000  N
  H280     1.0000 0.37058  0.02512  0.69348  Biso   1.000  H
  C283     1.0000 0.44118  0.10290  0.77229  Biso   1.000  C
  H281     1.0000 0.62596  0.75961  0.87279  Biso   1.000  H
  H282     1.0000 0.67307  0.76859  0.91439  Biso   1.000  H
  N190     1.0000 0.60994  0.80520  0.91508  Biso   1.000  N
  C284     1.0000 0.69536  0.89029  0.95840  Biso   1.000  C
  O94      1.0000 0.71908  0.97900  0.92329  Biso   1.000  O
  C285     1.0000 0.37855  0.94879  0.76399  Biso   1.000  C
  C286     1.0000 0.37968  0.03429  0.77329  Biso   1.000  C
  H283     1.0000 0.41216  0.11720  0.74988  Biso   1.000  H
  H284     1.0000 0.45687  0.13030  0.79208  Biso   1.000  H
  N191     1.0000 0.42388  0.06551  0.79389  Biso   1.000  N
  C287     1.0000 0.56005  0.79910  0.89947  Biso   1.000  C
  C288     1.0000 0.62627  0.82770  0.95409  Biso   1.000  C
  H285     1.0000 0.70587  0.92240  0.97338  Biso   1.000  H
  H286     1.0000 0.71855  0.86401  0.97438  Biso   1.000  H
  N192     1.0000 0.64607  0.87838  0.95759  Biso   1.000  N
  N193     1.0000 0.37066  0.95722  0.80060  Biso   1.000  N
  O95      1.0000 0.37656  0.90679  0.74779  Biso   1.000  O
  H287     1.0000 0.35068  0.05499  0.75618  Biso   1.000  H
  C289     1.0000 0.36977  0.00951  0.80999  Biso   1.000  C
  C290     1.0000 0.43826  0.06259  0.83608  Biso   1.000  C
  N194     1.0000 0.53865  0.81819  0.92469  Biso   1.000  N
  O96      1.0000 0.53777  0.77702  0.86608  Biso   1.000  O
  C291     1.0000 0.57567  0.83601  0.96199  Biso   1.000  C
  H288     1.0000 0.64917  0.80520  0.97569  Biso   1.000  H
  C292     1.0000 0.61754  0.91308  0.96858  Biso   1.000  C
  C293     1.0000 0.35918  0.91769  0.82529  Biso   1.000  C
  H289     1.0000 0.33675  0.01969  0.81108  Biso   1.000  H
  N195     1.0000 0.40986  0.02691  0.84598  Biso   1.000  N
  O97      1.0000 0.47105  0.08800  0.86109  Biso   1.000  O
  C294     1.0000 0.48695  0.81112  0.91920  Biso   1.000  C
  H290     1.0000 0.57527  0.81598  0.98659  Biso   1.000  H
  N196     1.0000 0.57457  0.89029  0.97039  Biso   1.000  N
  O98      1.0000 0.62757  0.95722  0.97800  Biso   1.000  O
  H291     1.0000 0.34798  0.88770  0.80750  Biso   1.000  H
  H292     1.0000 0.33106  0.92899  0.83368  Biso   1.000  H
  N197     1.0000 0.39937  0.90399  0.86168  Biso   1.000  N
  C295     1.0000 0.40976  0.02119  0.88790  Biso   1.000  C
  H293     1.0000 0.48434  0.80049  0.94607  Biso   1.000  H
  H294     1.0000 0.47327  0.78379  0.89879  Biso   1.000  H
  N198     1.0000 0.45837  0.85450  0.90519  Biso   1.000  N
  C296     1.0000 0.53756  0.91439  0.98477  Biso   1.000  C
  C297     1.0000 0.42506  0.85940  0.86558  Biso   1.000  C
  C298     1.0000 0.41147  0.92660  0.90359  Biso   1.000  C
  N199     1.0000 0.43386  0.97612  0.90778  Biso   1.000  N
  H295     1.0000 0.37498  0.02119  0.88699  Biso   1.000  H
  H296     1.0000 0.42686  0.05031  0.90478  Biso   1.000  H
  C299     1.0000 0.45126  0.89238  0.93250  Biso   1.000  C
  N200     1.0000 0.49297  0.92761  0.95038  Biso   1.000  N
  H297     1.0000 0.55219  0.94501  0.00069  Biso   1.000  H
  H298     1.0000 0.52882  0.89141  0.00391  Biso   1.000  H
  O99      1.0000 0.41905  0.82931  0.83708  Biso   1.000  O
  H299     1.0000 0.38137  0.92719  0.91190  Biso   1.000  H
  C300     1.0000 0.48146  0.97601  0.93818  Biso   1.000  C
  H300     1.0000 0.44027  0.87748  0.95459  Biso   1.000  H
  O100     1.0000 0.50674  0.01209  0.95197  Biso   1.000  O
  C301     1.0000 0.85510  0.55811  0.23889  Biso   1.000  C
  N201     1.0000 0.83648  0.53790  0.19691  Biso   1.000  N
  C302     1.0000 0.89781  0.52031  0.26211  Biso   1.000  C
  H301     1.0000 0.82857  0.55931  0.25169  Biso   1.000  H
  N202     1.0000 0.88109  0.60502  0.24320  Biso   1.000  N
  C303     1.0000 0.78980  0.55561  0.16570  Biso   1.000  C
  C304     1.0000 0.85589  0.49178  0.19388  Biso   1.000  C
  N203     1.0000 0.89357  0.48291  0.23009  Biso   1.000  N
  H302     1.0000 0.89320  0.50548  0.28739  Biso   1.000  H
  N204     1.0000 0.94229  0.55119  0.27279  Biso   1.000  N
  C305     1.0000 0.93088  0.60011  0.26398  Biso   1.000  C
  C306     1.0000 0.85560  0.65192  0.23099  Biso   1.000  C
  H303     1.0000 0.77398  0.52772  0.14660  Biso   1.000  H
  H304     1.0000 0.76670  0.56579  0.17999  Biso   1.000  H
  N205     1.0000 0.79728  0.59809  0.14120  Biso   1.000  N
  O101     1.0000 0.84110  0.46401  0.16380  Biso   1.000  O
  C307     1.0000 0.91827  0.43470  0.23948  Biso   1.000  C
  C308     1.0000 0.98908  0.53472  0.30200  Biso   1.000  C
  O102     1.0000 0.96168  0.63541  0.27413  Biso   1.000  O
  N206     1.0000 0.84431  0.66431  0.18811  Biso   1.000  N
  H305     1.0000 0.87640  0.67891  0.24841  Biso   1.000  H
  H306     1.0000 0.82417  0.65068  0.23689  Biso   1.000  H
  C309     1.0000 0.79981  0.64919  0.15509  Biso   1.000  C
  C310     1.0000 0.79338  0.59360  0.10081  Biso   1.000  C
  H307     1.0000 0.91830  0.42321  0.26711  Biso   1.000  H
  H308     1.0000 0.89917  0.41011  0.21829  Biso   1.000  H
  N207     1.0000 0.97049  0.43638  0.24029  Biso   1.000  N
  H309     1.0000 0.98279  0.51480  0.32410  Biso   1.000  H
  H310     1.0000 0.00868  0.56451  0.31539  Biso   1.000  H
  N208     1.0000 0.01840  0.50481  0.28390  Biso   1.000  N
  C311     1.0000 0.86987  0.70080  0.17519  Biso   1.000  C
  H311     1.0000 0.76948  0.65828  0.16171  Biso   1.000  H
  C312     1.0000 0.80169  0.67891  0.11660  Biso   1.000  C
  N209     1.0000 0.80071  0.64110  0.08730  Biso   1.000  N
  O103     1.0000 0.78440  0.55561  0.08031  Biso   1.000  O
  C313     1.0000 0.98529  0.41160  0.21171  Biso   1.000  C
  C314     1.0000 0.01199  0.45169  0.27681  Biso   1.000  C
  C315     1.0000 0.06339  0.52072  0.28168  Biso   1.000  C
  N210     1.0000 0.84751  0.70679  0.13290  Biso   1.000  N
  O104     1.0000 0.90678  0.72341  0.19860  Biso   1.000  O
  H312     1.0000 0.77240  0.70182  0.10549  Biso   1.000  H
  C316     1.0000 0.79701  0.65008  0.04479  Biso   1.000  C
  O105     1.0000 0.95790  0.39139  0.17993  Biso   1.000  O
  N211     1.0000 0.03589  0.41351  0.22500  Biso   1.000  N
  C317     1.0000 0.05819  0.43620  0.26589  Biso   1.000  C
  H313     1.0000 0.01138  0.43399  0.30231  Biso   1.000  H
  N212     1.0000 0.08357  0.48261  0.26739  Biso   1.000  N
  O106     1.0000 0.08097  0.56309  0.29114  Biso   1.000  O
  C318     1.0000 0.86529  0.74220  0.10971  Biso   1.000  C
  H314     1.0000 0.77940  0.62171  0.02718  Biso   1.000  H
  H315     1.0000 0.77681  0.68059  0.03449  Biso   1.000  H
  N213     1.0000 0.84529  0.65660  0.04011  Biso   1.000  N
  C319     1.0000 0.06518  0.39259  0.20191  Biso   1.000  C
  H316     1.0000 0.07951  0.41172  0.28671  Biso   1.000  H
  C320     1.0000 0.13148  0.48632  0.26239  Biso   1.000  C
  H317     1.0000 0.88628  0.76728  0.12940  Biso   1.000  H
  H318     1.0000 0.83639  0.76021  0.09001  Biso   1.000  H
  N214     1.0000 0.89351  0.72038  0.08670  Biso   1.000  N
  C321     1.0000 0.87101  0.70260  0.04441  Biso   1.000  C
  C322     1.0000 0.86631  0.61980  0.02491  Biso   1.000  C
  H319     1.0000 0.04611  0.36489  0.18421  Biso   1.000  H
  H320     1.0000 0.09610  0.37821  0.22191  Biso   1.000  H
  N215     1.0000 0.07860  0.42811  0.17559  Biso   1.000  N
  H321     1.0000 0.15069  0.51379  0.28018  Biso   1.000  H
  H322     1.0000 0.15008  0.45480  0.27219  Biso   1.000  H
  N216     1.0000 0.12790  0.49549  0.21910  Biso   1.000  N
  C323     1.0000 0.94509  0.72162  0.10069  Biso   1.000  C
  H323     1.0000 0.84981  0.72899  0.02581  Biso   1.000  H
  C324     1.0000 0.91702  0.68969  0.03221  Biso   1.000  C
  N217     1.0000 0.91078  0.63698  0.02228  Biso   1.000  N
  O107     1.0000 0.84950  0.57750  0.01380  Biso   1.000  O
  C325     1.0000 0.12400  0.45559  0.18889  Biso   1.000  C
  C326     1.0000 0.05219  0.43459  0.13449  Biso   1.000  C
  C327     1.0000 0.13278  0.54048  0.20440  Biso   1.000  C
  N218     1.0000 0.95868  0.70152  0.06969  Biso   1.000  N
  O108     1.0000 0.97220  0.73711  0.13421  Biso   1.000  O
  H324     1.0000 0.91760  0.71001  0.00780  Biso   1.000  H
  C328     1.0000 0.93700  0.61101  0.00041  Biso   1.000  C
  C329     1.0000 0.12250  0.48411  0.14981  Biso   1.000  C
  H325     1.0000 0.15348  0.43279  0.19869  Biso   1.000  H
  N219     1.0000 0.07461  0.47041  0.11979  Biso   1.000  N
  O109     1.0000 0.01259  0.41280  0.11420  Biso   1.000  O
  N220     1.0000 0.12619  0.53610  0.16298  Biso   1.000  N
  O110     1.0000 0.14217  0.57960  0.22388  Biso   1.000  O
  C330     1.0000 0.00909  0.70032  0.07210  Biso   1.000  C
  N221     1.0000 0.98470  0.59001  0.02790  Biso   1.000  N
  H326     1.0000 0.91575  0.58342  0.98427  Biso   1.000  H
  H327     1.0000 0.94333  0.63410  0.98018  Biso   1.000  H
  H328     1.0000 0.15038  0.47430  0.14020  Biso   1.000  H
  C331     1.0000 0.05970  0.48299  0.07600  Biso   1.000  C
  C332     1.0000 0.13729  0.57642  0.13898  Biso   1.000  C
  H329     1.0000 0.01100  0.71402  0.04579  Biso   1.000  H
  H330     1.0000 0.02881  0.72259  0.09510  Biso   1.000  H
  N222     1.0000 0.03209  0.65091  0.07900  Biso   1.000  N
  C333     1.0000 0.99102  0.54000  0.03951  Biso   1.000  C
  C334     1.0000 0.03048  0.61759  0.04569  Biso   1.000  C
  N223     1.0000 0.03798  0.53318  0.06639  Biso   1.000  N
  H331     1.0000 0.08901  0.48082  0.06720  Biso   1.000  H
  H332     1.0000 0.03501  0.45809  0.05961  Biso   1.000  H
  N224     1.0000 0.09418  0.59760  0.10830  Biso   1.000  N
  H333     1.0000 0.15969  0.56339  0.12491  Biso   1.000  H
  H334     1.0000 0.15551  0.60318  0.15840  Biso   1.000  H
  C335     1.0000 0.07280  0.64219  0.11420  Biso   1.000  C
  O111     1.0000 0.95870  0.50792  0.02650  Biso   1.000  O
  H335     1.0000 0.03970  0.63519  0.02360  Biso   1.000  H
  C336     1.0000 0.06899  0.57732  0.06760  Biso   1.000  C
  O112     1.0000 0.08809  0.66850  0.14513  Biso   1.000  O
  H336     1.0000 0.09259  0.57099  0.05240  Biso   1.000  H
  C337     1.0000 0.14487  0.44189  0.76108  Biso   1.000  C
  N225     1.0000 0.11887  0.39498  0.75678  Biso   1.000  N
  C338     1.0000 0.10216  0.47969  0.73789  Biso   1.000  C
  H337     1.0000 0.17135  0.44069  0.74829  Biso   1.000  H
  N226     1.0000 0.16346  0.46210  0.80309  Biso   1.000  N
  C339     1.0000 0.14436  0.34808  0.76898  Biso   1.000  C
  C340     1.0000 0.06905  0.39989  0.73599  Biso   1.000  C
  N227     1.0000 0.05767  0.44881  0.72719  Biso   1.000  N
  H338     1.0000 0.10676  0.49452  0.71258  Biso   1.000  H
  N228     1.0000 0.10636  0.51709  0.76989  Biso   1.000  N
  C341     1.0000 0.14407  0.50822  0.80609  Biso   1.000  C
  C342     1.0000 0.21016  0.44439  0.83427  Biso   1.000  C
  H339     1.0000 0.12358  0.32109  0.75160  Biso   1.000  H
  H340     1.0000 0.17575  0.34932  0.76308  Biso   1.000  H
  N229     1.0000 0.15566  0.33569  0.81190  Biso   1.000  N
  O113     1.0000 0.03825  0.36459  0.72585  Biso   1.000  O
  C343     1.0000 0.01085  0.46528  0.69798  Biso   1.000  C
  C344     1.0000 0.08165  0.56530  0.76049  Biso   1.000  C
  O114     1.0000 0.15887  0.53599  0.83618  Biso   1.000  O
  N230     1.0000 0.20264  0.40191  0.85878  Biso   1.000  N
  H341     1.0000 0.22594  0.47228  0.85338  Biso   1.000  H
  H342     1.0000 0.23326  0.43421  0.81998  Biso   1.000  H
  C345     1.0000 0.13005  0.29920  0.82479  Biso   1.000  C
  C346     1.0000 0.20016  0.35081  0.84489  Biso   1.000  C
  H343     1.0000 0.01717  0.48520  0.67588  Biso   1.000  H
  H344     1.0000 0.99128  0.43549  0.68459  Biso   1.000  H
  N231     1.0000 0.98156  0.49519  0.71608  Biso   1.000  N
  H345     1.0000 0.08167  0.57679  0.73290  Biso   1.000  H
  H346     1.0000 0.10075  0.58989  0.78168  Biso   1.000  H
  N232     1.0000 0.02947  0.56362  0.75968  Biso   1.000  N
  C347     1.0000 0.20656  0.40640  0.89919  Biso   1.000  C
  N233     1.0000 0.15246  0.29321  0.86708  Biso   1.000  N
  O115     1.0000 0.09315  0.27659  0.80138  Biso   1.000  O
  H347     1.0000 0.23046  0.34172  0.83830  Biso   1.000  H
  C348     1.0000 0.19825  0.32109  0.88340  Biso   1.000  C
  C349     1.0000 0.93657  0.47928  0.71829  Biso   1.000  C
  C350     1.0000 0.98798  0.54831  0.72319  Biso   1.000  C
  C351     1.0000 0.01468  0.58840  0.78830  Biso   1.000  C
  N234     1.0000 0.19925  0.35890  0.91268  Biso   1.000  N
  O116     1.0000 0.21557  0.44439  0.91970  Biso   1.000  O
  C352     1.0000 0.13468  0.25780  0.89030  Biso   1.000  C
  H348     1.0000 0.22756  0.29818  0.89448  Biso   1.000  H
  N235     1.0000 0.91636  0.51739  0.73259  Biso   1.000  N
  O117     1.0000 0.91895  0.43691  0.70884  Biso   1.000  O
  C353     1.0000 0.94177  0.56380  0.73409  Biso   1.000  C
  H349     1.0000 0.98856  0.56601  0.69769  Biso   1.000  H
  N236     1.0000 0.96409  0.58649  0.77500  Biso   1.000  N
  O118     1.0000 0.04206  0.60861  0.82004  Biso   1.000  O
  C354     1.0000 0.20296  0.34992  0.95519  Biso   1.000  C
  H350     1.0000 0.11365  0.23272  0.87057  Biso   1.000  H
  H351     1.0000 0.16355  0.23979  0.90999  Biso   1.000  H
  N237     1.0000 0.10646  0.27962  0.91330  Biso   1.000  N
  C355     1.0000 0.86848  0.51368  0.73758  Biso   1.000  C
  H352     1.0000 0.92047  0.58828  0.71330  Biso   1.000  H
  C356     1.0000 0.93476  0.60741  0.79810  Biso   1.000  C
  H353     1.0000 0.22056  0.37829  0.97279  Biso   1.000  H
  H354     1.0000 0.22315  0.31941  0.96549  Biso   1.000  H
  N238     1.0000 0.15465  0.34340  0.95990  Biso   1.000  N
  C357     1.0000 0.05487  0.27838  0.89929  Biso   1.000  C
  C358     1.0000 0.12897  0.29740  0.95559  Biso   1.000  C
  H355     1.0000 0.84927  0.48621  0.71979  Biso   1.000  H
  H356     1.0000 0.84985  0.54520  0.72778  Biso   1.000  H
  N239     1.0000 0.87207  0.50451  0.78090  Biso   1.000  N
  H357     1.0000 0.95386  0.63511  0.81580  Biso   1.000  H
  H358     1.0000 0.90388  0.62179  0.77809  Biso   1.000  H
  N240     1.0000 0.92136  0.57189  0.82438  Biso   1.000  N
  C359     1.0000 0.13366  0.38020  0.97510  Biso   1.000  C
  N241     1.0000 0.04124  0.29848  0.93028  Biso   1.000  N
  O119     1.0000 0.02777  0.26289  0.86580  Biso   1.000  O
  H359     1.0000 0.15016  0.27101  0.97419  Biso   1.000  H
  C360     1.0000 0.08296  0.31031  0.96780  Biso   1.000  C
  C361     1.0000 0.86716  0.45952  0.79560  Biso   1.000  C
  C362     1.0000 0.87596  0.54441  0.81108  Biso   1.000  C
  C363     1.0000 0.94777  0.56541  0.86549  Biso   1.000  C
  N242     1.0000 0.08914  0.36302  0.97769  Biso   1.000  N
  O120     1.0000 0.15047  0.42250  0.98621  Biso   1.000  O
  C364     1.0000 0.99084  0.29968  0.92788  Biso   1.000  C
  H360     1.0000 0.08236  0.28999  0.99217  Biso   1.000  H
  N243     1.0000 0.87377  0.46390  0.83699  Biso   1.000  N
  O121     1.0000 0.85776  0.42040  0.77610  Biso   1.000  O
  C365     1.0000 0.87748  0.51589  0.85019  Biso   1.000  C
  H361     1.0000 0.84645  0.56721  0.80128  Biso   1.000  H
  N244     1.0000 0.92535  0.52959  0.88019  Biso   1.000  N
  O122     1.0000 0.98735  0.58720  0.88580  Biso   1.000  O
  C366     1.0000 0.06298  0.38899  0.99960  Biso   1.000  C
  H362     1.0000 0.98896  0.28598  0.95419  Biso   1.000  H
  H363     1.0000 0.97116  0.27741  0.90487  Biso   1.000  H
  N245     1.0000 0.96784  0.34909  0.92098  Biso   1.000  N
  C367     1.0000 0.86267  0.42358  0.86099  Biso   1.000  C
  H364     1.0000 0.84954  0.52570  0.85977  Biso   1.000  H
  C368     1.0000 0.94026  0.51701  0.92398  Biso   1.000  C
  N246     1.0000 0.01526  0.40999  0.97207  Biso   1.000  N
  H365     1.0000 0.08421  0.41658  0.01571  Biso   1.000  H
  H366     1.0000 0.05659  0.36590  0.01979  Biso   1.000  H
  C369     1.0000 0.92716  0.35781  0.88577  Biso   1.000  C
  C370     1.0000 0.96944  0.38241  0.95428  Biso   1.000  C
  N247     1.0000 0.90576  0.40240  0.89170  Biso   1.000  N
  H367     1.0000 0.84025  0.43661  0.87510  Biso   1.000  H
  H368     1.0000 0.84445  0.39682  0.84158  Biso   1.000  H
  N248     1.0000 0.96195  0.46682  0.93359  Biso   1.000  N
  H369     1.0000 0.91095  0.51918  0.93278  Biso   1.000  H
  H370     1.0000 0.96497  0.54191  0.94039  Biso   1.000  H
  C371     1.0000 0.00896  0.46000  0.96049  Biso   1.000  C
  O123     1.0000 0.91185  0.33150  0.85487  Biso   1.000  O
  H371     1.0000 0.96026  0.36481  0.97638  Biso   1.000  H
  C372     1.0000 0.93095  0.42268  0.93240  Biso   1.000  C
  O124     1.0000 0.04126  0.49208  0.97348  Biso   1.000  O
  H372     1.0000 0.90735  0.42901  0.94760  Biso   1.000  H
  C373     1.0000 0.70179  0.28520  0.15431  Biso   1.000  C
  N249     1.0000 0.66339  0.25881  0.12129  Biso   1.000  N
  H373     1.0000 0.68938  0.29680  0.17669  Biso   1.000  H
  C374     1.0000 0.74230  0.24660  0.17041  Biso   1.000  C
  N250     1.0000 0.72550  0.32618  0.13911  Biso   1.000  N
  C375     1.0000 0.61349  0.27681  0.10340  Biso   1.000  C
  C376     1.0000 0.67618  0.20969  0.11770  Biso   1.000  C
  N251     1.0000 0.72348  0.20311  0.14438  Biso   1.000  N
  H374     1.0000 0.74961  0.23912  0.20059  Biso   1.000  H
  N252     1.0000 0.78531  0.26959  0.16311  Biso   1.000  N
  C377     1.0000 0.70530  0.37642  0.13190  Biso   1.000  C
  C378     1.0000 0.77520  0.31709  0.14750  Biso   1.000  C
  H375     1.0000 0.60310  0.29130  0.12569  Biso   1.000  H
  H376     1.0000 0.59120  0.24829  0.09101  Biso   1.000  H
  N253     1.0000 0.60778  0.31469  0.07129  Biso   1.000  N
  O125     1.0000 0.64840  0.17881  0.09501  Biso   1.000  O
  C379     1.0000 0.74551  0.15471  0.15131  Biso   1.000  C
  C380     1.0000 0.83578  0.25319  0.18580  Biso   1.000  C
  N254     1.0000 0.66821  0.38282  0.09101  Biso   1.000  N
  H377     1.0000 0.69027  0.38450  0.15318  Biso   1.000  H
  H378     1.0000 0.73280  0.40041  0.13530  Biso   1.000  H
  O126     1.0000 0.80489  0.34599  0.14279  Biso   1.000  O
  C381     1.0000 0.61702  0.36841  0.08021  Biso   1.000  C
  C382     1.0000 0.58039  0.30668  0.03009  Biso   1.000  C
  H379     1.0000 0.72020  0.13000  0.13561  Biso   1.000  H
  H380     1.0000 0.75498  0.14651  0.18140  Biso   1.000  H
  N255     1.0000 0.78938  0.14920  0.13939  Biso   1.000  N
  H381     1.0000 0.83789  0.24140  0.21380  Biso   1.000  H
  H382     1.0000 0.85850  0.28220  0.18970  Biso   1.000  H
  N256     1.0000 0.85278  0.21329  0.16498  Biso   1.000  N
  C383     1.0000 0.67591  0.41479  0.06270  Biso   1.000  C
  C384     1.0000 0.59080  0.39289  0.03730  Biso   1.000  C
  H383     1.0000 0.60269  0.38020  0.10150  Biso   1.000  H
  N257     1.0000 0.57371  0.35111  0.00949  Biso   1.000  N
  O127     1.0000 0.56559  0.26539  0.01551  Biso   1.000  O
  C385     1.0000 0.83921  0.16118  0.16570  Biso   1.000  C
  C386     1.0000 0.78840  0.11480  0.10899  Biso   1.000  C
  C387     1.0000 0.88290  0.22100  0.14360  Biso   1.000  C
  N258     1.0000 0.63129  0.42149  0.03049  Biso   1.000  N
  O128     1.0000 0.71519  0.43440  0.06601  Biso   1.000  O
  H384     1.0000 0.56280  0.41509  0.03739  Biso   1.000  H
  C388     1.0000 0.54075  0.35448  0.96589  Biso   1.000  C
  H385     1.0000 0.84637  0.14902  0.19488  Biso   1.000  H
  C389     1.0000 0.87171  0.13562  0.14560  Biso   1.000  C
  N259     1.0000 0.83709  0.10601  0.11239  Biso   1.000  N
  O129     1.0000 0.75152  0.09530  0.08371  Biso   1.000  O
  N260     1.0000 0.89468  0.17529  0.13099  Biso   1.000  N
  O130     1.0000 0.89899  0.26131  0.13720  Biso   1.000  O
  C390     1.0000 0.62376  0.45708  0.99878  Biso   1.000  C
  H386     1.0000 0.52226  0.32270  0.95768  Biso   1.000  H
  H387     1.0000 0.51625  0.38158  0.96308  Biso   1.000  H
  N261     1.0000 0.56763  0.36440  0.93817  Biso   1.000  N
  H388     1.0000 0.89711  0.11379  0.16601  Biso   1.000  H
  C391     1.0000 0.85019  0.06869  0.08739  Biso   1.000  C
  C392     1.0000 0.93488  0.16829  0.11489  Biso   1.000  C
  H389     1.0000 0.65030  0.48280  0.00840  Biso   1.000  H
  H390     1.0000 0.59146  0.47400  0.99388  Biso   1.000  H
  N262     1.0000 0.62395  0.43560  0.95908  Biso   1.000  N
  C393     1.0000 0.58075  0.41490  0.92868  Biso   1.000  C
  C394     1.0000 0.56716  0.33090  0.90849  Biso   1.000  C
  H391     1.0000 0.88060  0.05098  0.10521  Biso   1.000  H
  H392     1.0000 0.82310  0.04380  0.07781  Biso   1.000  H
  N263     1.0000 0.85901  0.08901  0.05159  Biso   1.000  N
  H393     1.0000 0.95560  0.13958  0.12918  Biso   1.000  H
  H394     1.0000 0.95630  0.19850  0.12110  Biso   1.000  H
  N264     1.0000 0.91631  0.15931  0.06991  Biso   1.000  N
  C395     1.0000 0.66323  0.43710  0.94629  Biso   1.000  C
  C396     1.0000 0.59735  0.40591  0.89129  Biso   1.000  C
  H395     1.0000 0.55175  0.43829  0.92160  Biso   1.000  H
  N265     1.0000 0.58295  0.35459  0.87968  Biso   1.000  N
  O131     1.0000 0.55485  0.28591  0.90699  Biso   1.000  O
  C397     1.0000 0.90741  0.11050  0.05268  Biso   1.000  C
  C398     1.0000 0.82660  0.08538  0.01230  Biso   1.000  C
  C399     1.0000 0.91951  0.19401  0.04160  Biso   1.000  C
  N266     1.0000 0.65004  0.41471  0.90818  Biso   1.000  N
  O132     1.0000 0.70463  0.45461  0.96561  Biso   1.000  O
  H396     1.0000 0.58057  0.42950  0.86788  Biso   1.000  H
  C400     1.0000 0.58474  0.33120  0.84198  Biso   1.000  C
  H397     1.0000 0.93591  0.08740  0.06651  Biso   1.000  H
  C401     1.0000 0.89902  0.11769  0.00630  Biso   1.000  C
  O133     1.0000 0.78430  0.06712  0.00150  Biso   1.000  O
  N267     1.0000 0.84776  0.10361  0.98558  Biso   1.000  N
  N268     1.0000 0.90850  0.17151  0.00421  Biso   1.000  N
  O134     1.0000 0.93079  0.23811  0.04891  Biso   1.000  O
  C402     1.0000 0.68007  0.42220  0.88149  Biso   1.000  C
  H398     1.0000 0.57384  0.35579  0.81888  Biso   1.000  H
  H399     1.0000 0.56104  0.30290  0.83458  Biso   1.000  H
  N269     1.0000 0.63417  0.31271  0.84588  Biso   1.000  N
  H400     1.0000 0.92214  0.09680  0.99707  Biso   1.000  H
  C403     1.0000 0.82494  0.09949  0.94139  Biso   1.000  C
  C404     1.0000 0.91843  0.19379  0.96948  Biso   1.000  C
  H401     1.0000 0.65943  0.43900  0.85537  Biso   1.000  H
  H402     1.0000 0.70833  0.44451  0.89607  Biso   1.000  H
  N270     1.0000 0.69895  0.37642  0.87129  Biso   1.000  N
  C405     1.0000 0.67135  0.34411  0.83758  Biso   1.000  C
  C406     1.0000 0.64697  0.26348  0.85050  Biso   1.000  C
  H403     1.0000 0.79486  0.07820  0.93489  Biso   1.000  H
  H404     1.0000 0.84826  0.08239  0.93027  Biso   1.000  H
  N271     1.0000 0.81063  0.14718  0.91997  Biso   1.000  N
  H405     1.0000 0.94066  0.22298  0.97987  Biso   1.000  H
  H406     1.0000 0.93647  0.16919  0.95849  Biso   1.000  H
  N272     1.0000 0.87555  0.20981  0.93627  Biso   1.000  N
  C407     1.0000 0.74875  0.36440  0.88567  Biso   1.000  C
  C408     1.0000 0.71026  0.30470  0.83549  Biso   1.000  C
  H407     1.0000 0.65696  0.36290  0.81080  Biso   1.000  H
  N273     1.0000 0.69176  0.25869  0.84488  Biso   1.000  N
  O135     1.0000 0.62137  0.22908  0.85580  Biso   1.000  O
  C409     1.0000 0.76136  0.15901  0.90109  Biso   1.000  C
  C410     1.0000 0.84306  0.17672  0.90587  Biso   1.000  C
  C411     1.0000 0.86515  0.25922  0.92647  Biso   1.000  C
  N274     1.0000 0.75625  0.32252  0.86757  Biso   1.000  N
  O136     1.0000 0.78115  0.38881  0.91333  Biso   1.000  O
  H408     1.0000 0.71336  0.30391  0.80727  Biso   1.000  H
  C412     1.0000 0.71244  0.21041  0.84148  Biso   1.000  C
  N275     1.0000 0.75826  0.19899  0.87547  Biso   1.000  N
  O137     1.0000 0.72615  0.13779  0.90627  Biso   1.000  O
  C413     1.0000 0.80634  0.21250  0.87438  Biso   1.000  C
  H409     1.0000 0.86186  0.15572  0.89220  Biso   1.000  H
  N276     1.0000 0.82306  0.26120  0.89039  Biso   1.000  N
  O138     1.0000 0.88854  0.29571  0.94532  Biso   1.000  O
  C414     1.0000 0.80505  0.30810  0.86888  Biso   1.000  C
  H410     1.0000 0.71894  0.20898  0.81489  Biso   1.000  H
  H411     1.0000 0.68755  0.18432  0.84039  Biso   1.000  H
  H412     1.0000 0.80757  0.20809  0.84569  Biso   1.000  H
  H413     1.0000 0.82876  0.33502  0.88290  Biso   1.000  H
  H414     1.0000 0.80466  0.30530  0.83989  Biso   1.000  H
  C415     1.0000 0.29818  0.71480  0.84570  Biso   1.000  C
  N277     1.0000 0.27448  0.67382  0.86090  Biso   1.000  N
  H415     1.0000 0.31058  0.70320  0.82329  Biso   1.000  H
  C416     1.0000 0.25767  0.75340  0.82959  Biso   1.000  C
  N278     1.0000 0.33657  0.74119  0.87869  Biso   1.000  N
  C417     1.0000 0.29466  0.62358  0.86808  Biso   1.000  C
  C418     1.0000 0.22478  0.68291  0.85250  Biso   1.000  C
  N279     1.0000 0.21467  0.73041  0.83690  Biso   1.000  N
  H416     1.0000 0.25036  0.76088  0.79938  Biso   1.000  H
  N280     1.0000 0.27645  0.79689  0.85559  Biso   1.000  N
  C419     1.0000 0.38645  0.72319  0.89660  Biso   1.000  C
  C420     1.0000 0.32374  0.79031  0.88228  Biso   1.000  C
  H417     1.0000 0.30966  0.61550  0.84679  Biso   1.000  H
  H418     1.0000 0.26717  0.59959  0.86467  Biso   1.000  H
  N281     1.0000 0.33177  0.61718  0.90899  Biso   1.000  N
  O139     1.0000 0.19508  0.65401  0.85718  Biso   1.000  O
  C421     1.0000 0.16414  0.74681  0.81417  Biso   1.000  C
  C422     1.0000 0.25446  0.84529  0.84869  Biso   1.000  C
  N282     1.0000 0.39215  0.68531  0.92869  Biso   1.000  N
  H419     1.0000 0.39686  0.70870  0.87429  Biso   1.000  H
  H420     1.0000 0.40878  0.75171  0.90899  Biso   1.000  H
  O140     1.0000 0.35157  0.82119  0.90500  Biso   1.000  O
  C423     1.0000 0.32406  0.58521  0.93730  Biso   1.000  C
  C424     1.0000 0.38296  0.63159  0.91979  Biso   1.000  C
  H421     1.0000 0.16207  0.75860  0.78618  Biso   1.000  H
  H422     1.0000 0.14147  0.71780  0.81030  Biso   1.000  H
  N283     1.0000 0.14718  0.78671  0.83499  Biso   1.000  N
  H423     1.0000 0.27977  0.87000  0.86439  Biso   1.000  H
  H424     1.0000 0.24495  0.85349  0.81858  Biso   1.000  H
  N284     1.0000 0.21055  0.85080  0.86059  Biso   1.000  N
  C425     1.0000 0.41957  0.69332  0.96989  Biso   1.000  C
  N285     1.0000 0.36867  0.57851  0.96948  Biso   1.000  N
  O141     1.0000 0.28475  0.56560  0.93399  Biso   1.000  O
  C426     1.0000 0.40917  0.60711  0.96268  Biso   1.000  C
  H425     1.0000 0.39724  0.61980  0.89848  Biso   1.000  H
  C427     1.0000 0.11707  0.77900  0.85640  Biso   1.000  C
  C428     1.0000 0.16076  0.83882  0.83427  Biso   1.000  C
  C429     1.0000 0.21156  0.88520  0.89099  Biso   1.000  C
  N286     1.0000 0.42625  0.64889  0.99049  Biso   1.000  N
  O142     1.0000 0.43435  0.73461  0.98449  Biso   1.000  O
  C430     1.0000 0.37620  0.54292  0.00119  Biso   1.000  C
  H426     1.0000 0.43716  0.58491  0.96258  Biso   1.000  H
  N287     1.0000 0.10524  0.82471  0.86898  Biso   1.000  N
  O143     1.0000 0.10095  0.73869  0.86280  Biso   1.000  O
  H427     1.0000 0.15355  0.85098  0.80509  Biso   1.000  H
  C431     1.0000 0.12825  0.86438  0.85437  Biso   1.000  C
  N288     1.0000 0.16287  0.89399  0.88758  Biso   1.000  N
  O144     1.0000 0.24846  0.90470  0.91630  Biso   1.000  O
  C432     1.0000 0.45922  0.64552  0.03412  Biso   1.000  C
  H428     1.0000 0.34966  0.51720  0.99158  Biso   1.000  H
  H429     1.0000 0.40851  0.52600  0.00609  Biso   1.000  H
  N289     1.0000 0.37601  0.56440  0.04089  Biso   1.000  N
  C433     1.0000 0.06504  0.83171  0.88509  Biso   1.000  C
  H430     1.0000 0.10287  0.88621  0.83399  Biso   1.000  H
  C434     1.0000 0.14974  0.93131  0.91258  Biso   1.000  C
  H431     1.0000 0.47770  0.67730  0.04230  Biso   1.000  H
  H432     1.0000 0.48371  0.61842  0.03690  Biso   1.000  H
  N290     1.0000 0.43230  0.63560  0.06180  Biso   1.000  N
  C435     1.0000 0.33671  0.56290  0.05372  Biso   1.000  C
  C436     1.0000 0.41921  0.58510  0.07129  Biso   1.000  C
  H433     1.0000 0.04436  0.86042  0.87079  Biso   1.000  H
  H434     1.0000 0.04366  0.80150  0.87888  Biso   1.000  H
  N291     1.0000 0.08367  0.84069  0.93009  Biso   1.000  N
  H435     1.0000 0.11937  0.94902  0.89479  Biso   1.000  H
  H436     1.0000 0.17687  0.95620  0.92220  Biso   1.000  H
  N292     1.0000 0.14095  0.91099  0.94838  Biso   1.000  N
  C437     1.0000 0.43282  0.66910  0.09152  Biso   1.000  C
  N293     1.0000 0.34989  0.58529  0.09180  Biso   1.000  N
  O145     1.0000 0.29529  0.54539  0.03437  Biso   1.000  O
  C438     1.0000 0.40263  0.59409  0.10871  Biso   1.000  C
  H437     1.0000 0.44819  0.56171  0.07841  Biso   1.000  H
  C439     1.0000 0.08046  0.80599  0.95840  Biso   1.000  C
  C440     1.0000 0.09256  0.88950  0.94729  Biso   1.000  C
  C441     1.0000 0.17336  0.91462  0.98768  Biso   1.000  C
  N294     1.0000 0.41701  0.64541  0.12029  Biso   1.000  N
  O146     1.0000 0.44512  0.71409  0.09302  Biso   1.000  O
  C442     1.0000 0.31991  0.57780  0.11851  Biso   1.000  C
  H438     1.0000 0.41940  0.57050  0.13209  Biso   1.000  H
  N295     1.0000 0.09144  0.82849  0.99579  Biso   1.000  N
  O147     1.0000 0.06915  0.76189  0.95110  Biso   1.000  O
  H439     1.0000 0.06406  0.91260  0.93349  Biso   1.000  H
  C443     1.0000 0.10096  0.88231  0.99370  Biso   1.000  C
  N296     1.0000 0.15220  0.89639  0.01439  Biso   1.000  N
  O148     1.0000 0.21567  0.93288  0.99848  Biso   1.000  O
  C444     1.0000 0.41519  0.66880  0.15800  Biso   1.000  C
  H440     1.0000 0.34050  0.56100  0.14461  Biso   1.000  H
  H441     1.0000 0.29160  0.55549  0.10391  Biso   1.000  H
  N297     1.0000 0.30101  0.62358  0.12869  Biso   1.000  N
  C445     1.0000 0.08150  0.80621  0.03050  Biso   1.000  C
  H442     1.0000 0.07782  0.90320  0.00291  Biso   1.000  H
  C446     1.0000 0.17500  0.90051  0.05862  Biso   1.000  C
  H443     1.0000 0.42609  0.64421  0.18109  Biso   1.000  H
  H444     1.0000 0.43888  0.69710  0.16539  Biso   1.000  H
  N298     1.0000 0.36580  0.68729  0.15410  Biso   1.000  N
  C447     1.0000 0.25121  0.63560  0.11430  Biso   1.000  C
  C448     1.0000 0.32861  0.65589  0.16240  Biso   1.000  C
  H445     1.0000 0.05931  0.77702  0.02011  Biso   1.000  H
  H446     1.0000 0.06351  0.83081  0.04152  Biso   1.000  H
  N299     1.0000 0.12441  0.79019  0.06371  Biso   1.000  N
  H447     1.0000 0.20511  0.92180  0.06511  Biso   1.000  H
  H448     1.0000 0.15170  0.91761  0.06970  Biso   1.000  H
  N300     1.0000 0.18929  0.85282  0.08000  Biso   1.000  N
  C449     1.0000 0.35300  0.73652  0.14951  Biso   1.000  C
  N301     1.0000 0.24371  0.67748  0.13240  Biso   1.000  N
  O149     1.0000 0.21881  0.61119  0.08665  Biso   1.000  O
  C450     1.0000 0.28971  0.69530  0.16449  Biso   1.000  C
  H449     1.0000 0.34302  0.63710  0.18921  Biso   1.000  H
  C451     1.0000 0.13481  0.74078  0.07351  Biso   1.000  C
  C452     1.0000 0.15691  0.82328  0.09411  Biso   1.000  C
  C453     1.0000 0.23861  0.84099  0.09891  Biso   1.000  C
  N302     1.0000 0.30820  0.74131  0.15509  Biso   1.000  N
  O150     1.0000 0.37859  0.77092  0.14417  Biso   1.000  O
  C454     1.0000 0.19491  0.69190  0.13109  Biso   1.000  C
  H450     1.0000 0.28660  0.69609  0.19270  Biso   1.000  H
  N303     1.0000 0.17691  0.73880  0.10962  Biso   1.000  N
  O151     1.0000 0.11140  0.70429  0.05469  Biso   1.000  O
  C455     1.0000 0.19359  0.78750  0.12560  Biso   1.000  C
  H451     1.0000 0.13812  0.84428  0.10781  Biso   1.000  H
  N304     1.0000 0.24170  0.80101  0.12451  Biso   1.000  N
  O152     1.0000 0.27381  0.86221  0.09370  Biso   1.000  O
  C456     1.0000 0.28748  0.78959  0.15850  Biso   1.000  C
  H452     1.0000 0.17122  0.66498  0.11711  Biso   1.000  H
  H453     1.0000 0.19532  0.69470  0.16012  Biso   1.000  H
  H454     1.0000 0.19240  0.79191  0.15431  Biso   1.000  H
  H455     1.0000 0.28098  0.79102  0.18509  Biso   1.000  H
  H456     1.0000 0.31241  0.81568  0.15959  Biso   1.000  H
