data_image0
_cell_length_a       12.109
_cell_length_b       12.2
_cell_length_c       12.804
_cell_angle_alpha    106.92
_cell_angle_beta     112.57
_cell_angle_gamma    92.56

_symmetry_space_group_name_H-M    "P 1"
_symmetry_int_tables_number       1

loop_
  _symmetry_equiv_pos_as_xyz
  'x, y, z'

loop_
  _atom_site_label
  _atom_site_occupancy
  _atom_site_fract_x
  _atom_site_fract_y
  _atom_site_fract_z
  _atom_site_thermal_displace_type
  _atom_site_B_iso_or_equiv
  _atom_site_type_symbol
  O1       1.0000 0.40544  0.07608  0.69472  Biso   1.000  O
  C1       1.0000 0.36779  0.15332  0.75026  Biso   1.000  C
  C2       1.0000 0.36778  0.15324  0.75026  Biso   1.000  C
  N1       1.0000 0.34877  0.15687  0.84933  Biso   1.000  N
  N2       1.0000 0.33659  0.25121  0.72218  Biso   1.000  N
  O2       1.0000 0.40552  0.07608  0.69472  Biso   1.000  O
  C3       1.0000 0.38334  0.07399  0.91134  Biso   1.000  C
  C4       1.0000 0.38342  0.07399  0.91134  Biso   1.000  C
  C5       1.0000 0.31570  0.26597  0.90165  Biso   1.000  C
  C6       1.0000 0.30863  0.33186  0.81281  Biso   1.000  C
  C7       1.0000 0.30871  0.33186  0.81281  Biso   1.000  C
  C8       1.0000 0.37351  0.28785  0.64079  Biso   1.000  C
  C9       1.0000 0.37359  0.28785  0.64079  Biso   1.000  C
  N3       1.0000 0.28218  0.98852  0.88684  Biso   1.000  N
  N4       1.0000 0.28217  0.98844  0.88684  Biso   1.000  N
  H1       1.0000 0.44336  0.03320  0.88774  Biso   1.000  H
  H2       1.0000 0.42348  0.11646  0.99883  Biso   1.000  H
  H3       1.0000 0.44344  0.03320  0.88774  Biso   1.000  H
  N5       1.0000 0.19427  0.25685  0.89707  Biso   1.000  N
  N6       1.0000 0.19435  0.25685  0.89707  Biso   1.000  N
  H4       1.0000 0.37812  0.30971  0.98447  Biso   1.000  H
  N7       1.0000 0.18480  0.35139  0.77028  Biso   1.000  N
  H5       1.0000 0.36797  0.40682  0.85346  Biso   1.000  H
  H6       1.0000 0.36797  0.40674  0.85346  Biso   1.000  H
  H7       1.0000 0.36805  0.40674  0.85346  Biso   1.000  H
  N8       1.0000 0.27264  0.28508  0.53275  Biso   1.000  N
  H8       1.0000 0.42780  0.23653  0.61889  Biso   1.000  H
  H9       1.0000 0.42047  0.36813  0.68269  Biso   1.000  H
  H10      1.0000 0.42788  0.23653  0.61889  Biso   1.000  H
  N9       1.0000 0.27272  0.28508  0.53275  Biso   1.000  N
  C10      1.0000 0.25160  0.88088  0.80105  Biso   1.000  C
  C11      1.0000 0.20386  0.00283  0.94947  Biso   1.000  C
  C12      1.0000 0.20393  0.00275  0.94947  Biso   1.000  C
  C13      1.0000 0.20394  0.00283  0.94947  Biso   1.000  C
  C14      1.0000 0.15851  0.21009  0.97227  Biso   1.000  C
  C15      1.0000 0.12151  0.31424  0.82681  Biso   1.000  C
  C16      1.0000 0.12159  0.31424  0.82681  Biso   1.000  C
  C17      1.0000 0.14457  0.42894  0.70324  Biso   1.000  C
  C18      1.0000 0.19914  0.37455  0.52324  Biso   1.000  C
  C19      1.0000 0.24912  0.20415  0.42354  Biso   1.000  C
  C20      1.0000 0.24920  0.20415  0.42354  Biso   1.000  C
  C21      1.0000 0.19922  0.37455  0.52324  Biso   1.000  C
  N10      1.0000 0.14922  0.82287  0.79370  Biso   1.000  N
  N11      1.0000 0.14930  0.82287  0.79370  Biso   1.000  N
  O3       1.0000 0.30892  0.84359  0.74192  Biso   1.000  O
  O4       1.0000 0.30900  0.84359  0.74192  Biso   1.000  O
  C22      1.0000 0.11566  0.88348  0.89007  Biso   1.000  C
  C23      1.0000 0.11574  0.88348  0.89007  Biso   1.000  C
  N12      1.0000 0.12109  0.08504  0.92668  Biso   1.000  N
  N13      1.0000 0.12109  0.08496  0.92668  Biso   1.000  N
  H11      1.0000 0.25123  0.01924  0.03732  Biso   1.000  H
  H12      1.0000 0.25115  0.01924  0.03732  Biso   1.000  H
  H13      1.0000 0.09056  0.24657  0.98330  Biso   1.000  H
  H14      1.0000 0.22747  0.23200  0.05204  Biso   1.000  H
  H15      1.0000 0.22739  0.23200  0.05204  Biso   1.000  H
  O5       1.0000 0.02004  0.33094  0.81730  Biso   1.000  O
  N14      1.0000 0.11158  0.37646  0.57546  Biso   1.000  N
  H16      1.0000 0.07347  0.45761  0.71473  Biso   1.000  H
  H17      1.0000 0.21015  0.49716  0.73600  Biso   1.000  H
  H18      1.0000 0.07347  0.45753  0.71473  Biso   1.000  H
  C24      1.0000 0.11710  0.33588  0.38621  Biso   1.000  C
  C25      1.0000 0.11718  0.33580  0.38621  Biso   1.000  C
  C26      1.0000 0.11718  0.33588  0.38621  Biso   1.000  C
  H19      1.0000 0.25029  0.45309  0.55267  Biso   1.000  H
  N15      1.0000 0.14991  0.22516  0.33875  Biso   1.000  N
  N16      1.0000 0.15000  0.22516  0.33875  Biso   1.000  N
  O6       1.0000 0.30674  0.12664  0.40542  Biso   1.000  O
  C27      1.0000 0.11107  0.69911  0.72828  Biso   1.000  C
  H20      1.0000 0.12685  0.84056  0.94804  Biso   1.000  H
  H21      1.0000 0.12693  0.84056  0.94804  Biso   1.000  H
  N17      1.0000 0.99632  0.91478  0.84996  Biso   1.000  N
  N18      1.0000 0.99640  0.91478  0.84996  Biso   1.000  N
  C28      1.0000 0.00078  0.03258  0.87392  Biso   1.000  C
  C29      1.0000 0.99441  0.36122  0.49174  Biso   1.000  C
  C30      1.0000 0.99449  0.36122  0.49174  Biso   1.000  C
  N19      1.0000 0.99660  0.32944  0.38101  Biso   1.000  N
  N20      1.0000 0.99668  0.32944  0.38101  Biso   1.000  N
  H22      1.0000 0.13371  0.39352  0.35014  Biso   1.000  H
  H23      1.0000 0.13379  0.39352  0.35014  Biso   1.000  H
  C31      1.0000 0.11465  0.16785  0.21078  Biso   1.000  C
  C32      1.0000 0.11464  0.16777  0.21078  Biso   1.000  C
  N21      1.0000 0.00345  0.67069  0.61907  Biso   1.000  N
  N22      1.0000 0.00353  0.67069  0.61907  Biso   1.000  N
  H24      1.0000 0.17786  0.66825  0.70926  Biso   1.000  H
  H25      1.0000 0.09622  0.65975  0.78050  Biso   1.000  H
  H26      1.0000 0.09631  0.65975  0.78050  Biso   1.000  H
  C33      1.0000 0.88545  0.83225  0.78921  Biso   1.000  C
  O7       1.0000 0.91408  0.08234  0.85480  Biso   1.000  O
  O8       1.0000 0.90506  0.37637  0.51265  Biso   1.000  O
  C34      1.0000 0.88898  0.30102  0.27180  Biso   1.000  C
  C35      1.0000 0.88906  0.30102  0.27180  Biso   1.000  C
  N23      1.0000 0.00373  0.08534  0.15012  Biso   1.000  N
  H27      1.0000 0.18074  0.12745  0.20029  Biso   1.000  H
  H28      1.0000 0.10678  0.22810  0.17211  Biso   1.000  H
  H29      1.0000 0.10686  0.22810  0.17211  Biso   1.000  H
  C36      1.0000 0.00564  0.63882  0.50834  Biso   1.000  C
  C37      1.0000 0.88296  0.66425  0.61387  Biso   1.000  C
  N24      1.0000 0.85014  0.77497  0.66134  Biso   1.000  N
  N25      1.0000 0.85022  0.77497  0.66134  Biso   1.000  N
  H30      1.0000 0.81935  0.87265  0.79971  Biso   1.000  H
  H31      1.0000 0.89327  0.77195  0.82797  Biso   1.000  H
  N26      1.0000 0.85080  0.17723  0.20630  Biso   1.000  N
  N27      1.0000 0.85088  0.17723  0.20630  Biso   1.000  N
  H32      1.0000 0.82220  0.33188  0.29083  Biso   1.000  H
  H33      1.0000 0.90379  0.34035  0.21949  Biso   1.000  H
  H34      1.0000 0.82228  0.33180  0.29083  Biso   1.000  H
  H35      1.0000 0.82228  0.33188  0.29083  Biso   1.000  H
  H36      1.0000 0.90388  0.34035  0.21949  Biso   1.000  H
  C38      1.0000 0.99932  0.96752  0.12608  Biso   1.000  C
  C39      1.0000 0.88439  0.11665  0.11001  Biso   1.000  C
  C40      1.0000 0.88448  0.11665  0.11001  Biso   1.000  C
  O9       1.0000 0.09508  0.62376  0.48743  Biso   1.000  O
  O10      1.0000 0.09500  0.62376  0.48743  Biso   1.000  O
  N28      1.0000 0.88848  0.62367  0.42462  Biso   1.000  N
  N29      1.0000 0.88856  0.62367  0.42462  Biso   1.000  N
  C41      1.0000 0.80091  0.62558  0.47685  Biso   1.000  C
  C42      1.0000 0.80100  0.62558  0.47685  Biso   1.000  C
  H37      1.0000 0.86635  0.60660  0.64994  Biso   1.000  H
  H38      1.0000 0.86634  0.60652  0.64994  Biso   1.000  H
  C43      1.0000 0.75093  0.79598  0.57654  Biso   1.000  C
  C44      1.0000 0.75102  0.79598  0.57654  Biso   1.000  C
  C45      1.0000 0.74853  0.11924  0.19903  Biso   1.000  C
  N30      1.0000 0.87896  0.91509  0.07340  Biso   1.000  N
  N31      1.0000 0.87905  0.91509  0.07340  Biso   1.000  N
  O11      1.0000 0.08602  0.91776  0.14519  Biso   1.000  O
  O12      1.0000 0.08602  0.91768  0.14519  Biso   1.000  O
  C46      1.0000 0.79620  0.99730  0.05061  Biso   1.000  C
  H39      1.0000 0.87320  0.15956  0.05205  Biso   1.000  H
  H40      1.0000 0.87320  0.15948  0.05205  Biso   1.000  H
  H41      1.0000 0.87328  0.15948  0.05205  Biso   1.000  H
  C47      1.0000 0.85548  0.57118  0.29684  Biso   1.000  C
  C48      1.0000 0.85556  0.57110  0.29684  Biso   1.000  C
  C49      1.0000 0.85556  0.57118  0.29684  Biso   1.000  C
  N32      1.0000 0.72742  0.71505  0.46733  Biso   1.000  N
  H42      1.0000 0.74984  0.54704  0.44741  Biso   1.000  H
  N33      1.0000 0.72750  0.71505  0.46733  Biso   1.000  N
  O13      1.0000 0.69332  0.87348  0.59467  Biso   1.000  O
  O14      1.0000 0.69340  0.87348  0.59467  Biso   1.000  O
  N34      1.0000 0.71788  0.01161  0.11324  Biso   1.000  N
  N35      1.0000 0.71796  0.01161  0.11324  Biso   1.000  N
  O15      1.0000 0.69109  0.15651  0.25807  Biso   1.000  O
  C50      1.0000 0.84162  0.79004  0.02782  Biso   1.000  C
  H43      1.0000 0.74886  0.98078  0.96267  Biso   1.000  H
  H44      1.0000 0.74895  0.98078  0.96267  Biso   1.000  H
  N36      1.0000 0.81533  0.64874  0.22981  Biso   1.000  N
  H45      1.0000 0.92666  0.54252  0.28535  Biso   1.000  H
  H46      1.0000 0.78986  0.50294  0.26400  Biso   1.000  H
  H47      1.0000 0.78994  0.50294  0.26400  Biso   1.000  H
  C51      1.0000 0.62651  0.71225  0.35920  Biso   1.000  C
  C52      1.0000 0.61671  0.92613  0.08875  Biso   1.000  C
  N37      1.0000 0.80578  0.74319  0.10301  Biso   1.000  N
  N38      1.0000 0.80587  0.74319  0.10301  Biso   1.000  N
  H48      1.0000 0.77271  0.76810  0.94795  Biso   1.000  H
  H49      1.0000 0.77263  0.76810  0.94795  Biso   1.000  H
  H50      1.0000 0.90946  0.75353  0.01669  Biso   1.000  H
  H51      1.0000 0.90954  0.75353  0.01669  Biso   1.000  H
  C53      1.0000 0.87851  0.68585  0.17319  Biso   1.000  C
  C54      1.0000 0.69139  0.66824  0.18718  Biso   1.000  C
  C55      1.0000 0.87850  0.68577  0.17319  Biso   1.000  C
  N39      1.0000 0.66354  0.74892  0.27791  Biso   1.000  N
  H52      1.0000 0.57221  0.76357  0.38110  Biso   1.000  H
  H53      1.0000 0.57963  0.63197  0.31730  Biso   1.000  H
  H54      1.0000 0.57221  0.76349  0.38110  Biso   1.000  H
  H55      1.0000 0.57962  0.63188  0.31730  Biso   1.000  H
  N40      1.0000 0.65124  0.84323  0.15066  Biso   1.000  N
  N41      1.0000 0.65133  0.84323  0.15066  Biso   1.000  N
  H56      1.0000 0.55669  0.96693  0.11235  Biso   1.000  H
  H57      1.0000 0.57653  0.88364  0.00117  Biso   1.000  H
  H58      1.0000 0.55678  0.96693  0.11235  Biso   1.000  H
  H59      1.0000 0.57661  0.88355  0.00117  Biso   1.000  H
  H60      1.0000 0.57662  0.88364  0.00117  Biso   1.000  H
  C56      1.0000 0.68443  0.73416  0.09844  Biso   1.000  C
  C57      1.0000 0.68443  0.73408  0.09844  Biso   1.000  C
  O16      1.0000 0.97997  0.66916  0.18270  Biso   1.000  O
  O17      1.0000 0.98005  0.66908  0.18270  Biso   1.000  O
  O18      1.0000 0.98005  0.66916  0.18270  Biso   1.000  O
  H61      1.0000 0.63208  0.59331  0.14663  Biso   1.000  H
  H62      1.0000 0.63216  0.59331  0.14663  Biso   1.000  H
  C58      1.0000 0.63227  0.84681  0.24982  Biso   1.000  C
  C59      1.0000 0.63235  0.84681  0.24982  Biso   1.000  C
  H63      1.0000 0.62201  0.69042  0.01561  Biso   1.000  H
  O19      1.0000 0.59458  0.92402  0.30527  Biso   1.000  O
  O20      1.0000 0.59466  0.92402  0.30527  Biso   1.000  O
  O21      1.0000 0.40544  0.07608  0.69472  Biso   1.000  O
  C60      1.0000 0.36779  0.15332  0.75026  Biso   1.000  C
  C61      1.0000 0.36778  0.15324  0.75026  Biso   1.000  C
  N42      1.0000 0.34877  0.15687  0.84933  Biso   1.000  N
  N43      1.0000 0.33659  0.25121  0.72218  Biso   1.000  N
  O22      1.0000 0.40552  0.07608  0.69472  Biso   1.000  O
  C62      1.0000 0.38334  0.07399  0.91134  Biso   1.000  C
  C63      1.0000 0.38342  0.07399  0.91134  Biso   1.000  C
  C64      1.0000 0.31570  0.26597  0.90165  Biso   1.000  C
  C65      1.0000 0.30863  0.33186  0.81281  Biso   1.000  C
  C66      1.0000 0.30871  0.33186  0.81281  Biso   1.000  C
  C67      1.0000 0.37351  0.28785  0.64079  Biso   1.000  C
  C68      1.0000 0.37359  0.28785  0.64079  Biso   1.000  C
  N44      1.0000 0.28218  0.98852  0.88684  Biso   1.000  N
  N45      1.0000 0.28217  0.98844  0.88684  Biso   1.000  N
  H64      1.0000 0.44336  0.03320  0.88774  Biso   1.000  H
  H65      1.0000 0.42348  0.11646  0.99883  Biso   1.000  H
  H66      1.0000 0.44344  0.03320  0.88774  Biso   1.000  H
  N46      1.0000 0.19427  0.25685  0.89707  Biso   1.000  N
  N47      1.0000 0.19435  0.25685  0.89707  Biso   1.000  N
  H67      1.0000 0.37812  0.30971  0.98447  Biso   1.000  H
  N48      1.0000 0.18480  0.35139  0.77028  Biso   1.000  N
  H68      1.0000 0.36797  0.40682  0.85346  Biso   1.000  H
  H69      1.0000 0.36797  0.40674  0.85346  Biso   1.000  H
  H70      1.0000 0.36805  0.40674  0.85346  Biso   1.000  H
  N49      1.0000 0.27264  0.28508  0.53275  Biso   1.000  N
  H71      1.0000 0.42780  0.23653  0.61889  Biso   1.000  H
  H72      1.0000 0.42047  0.36813  0.68269  Biso   1.000  H
  H73      1.0000 0.42788  0.23653  0.61889  Biso   1.000  H
  N50      1.0000 0.27272  0.28508  0.53275  Biso   1.000  N
  C69      1.0000 0.25160  0.88088  0.80105  Biso   1.000  C
  C70      1.0000 0.20386  0.00283  0.94947  Biso   1.000  C
  C71      1.0000 0.20393  0.00275  0.94947  Biso   1.000  C
  C72      1.0000 0.20394  0.00283  0.94947  Biso   1.000  C
  C73      1.0000 0.15851  0.21009  0.97227  Biso   1.000  C
  C74      1.0000 0.12151  0.31424  0.82681  Biso   1.000  C
  C75      1.0000 0.12159  0.31424  0.82681  Biso   1.000  C
  C76      1.0000 0.14457  0.42894  0.70324  Biso   1.000  C
  C77      1.0000 0.19914  0.37455  0.52324  Biso   1.000  C
  C78      1.0000 0.24912  0.20415  0.42354  Biso   1.000  C
  C79      1.0000 0.24920  0.20415  0.42354  Biso   1.000  C
  C80      1.0000 0.19922  0.37455  0.52324  Biso   1.000  C
  N51      1.0000 0.14922  0.82287  0.79370  Biso   1.000  N
  N52      1.0000 0.14930  0.82287  0.79370  Biso   1.000  N
  O23      1.0000 0.30892  0.84359  0.74192  Biso   1.000  O
  O24      1.0000 0.30900  0.84359  0.74192  Biso   1.000  O
  C81      1.0000 0.11566  0.88348  0.89007  Biso   1.000  C
  C82      1.0000 0.11574  0.88348  0.89007  Biso   1.000  C
  N53      1.0000 0.12109  0.08504  0.92668  Biso   1.000  N
  N54      1.0000 0.12109  0.08496  0.92668  Biso   1.000  N
  H74      1.0000 0.25123  0.01924  0.03732  Biso   1.000  H
  H75      1.0000 0.25115  0.01924  0.03732  Biso   1.000  H
  H76      1.0000 0.09056  0.24657  0.98330  Biso   1.000  H
  H77      1.0000 0.22747  0.23200  0.05204  Biso   1.000  H
  H78      1.0000 0.22739  0.23200  0.05204  Biso   1.000  H
  O25      1.0000 0.02004  0.33094  0.81730  Biso   1.000  O
  N55      1.0000 0.11158  0.37646  0.57546  Biso   1.000  N
  H79      1.0000 0.07347  0.45761  0.71473  Biso   1.000  H
  H80      1.0000 0.21015  0.49716  0.73600  Biso   1.000  H
  H81      1.0000 0.07347  0.45753  0.71473  Biso   1.000  H
  C83      1.0000 0.11710  0.33588  0.38621  Biso   1.000  C
  C84      1.0000 0.11718  0.33580  0.38621  Biso   1.000  C
  C85      1.0000 0.11718  0.33588  0.38621  Biso   1.000  C
  H82      1.0000 0.25029  0.45309  0.55267  Biso   1.000  H
  N56      1.0000 0.14991  0.22516  0.33875  Biso   1.000  N
  N57      1.0000 0.15000  0.22516  0.33875  Biso   1.000  N
  O26      1.0000 0.30674  0.12664  0.40542  Biso   1.000  O
  C86      1.0000 0.11107  0.69911  0.72828  Biso   1.000  C
  H83      1.0000 0.12685  0.84056  0.94804  Biso   1.000  H
  N58      1.0000 0.99632  0.91478  0.84996  Biso   1.000  N
  N59      1.0000 0.99640  0.91478  0.84996  Biso   1.000  N
  H84      1.0000 0.12693  0.84056  0.94804  Biso   1.000  H
  C87      1.0000 0.00078  0.03258  0.87392  Biso   1.000  C
  C88      1.0000 0.99441  0.36122  0.49174  Biso   1.000  C
  C89      1.0000 0.99449  0.36122  0.49174  Biso   1.000  C
  N60      1.0000 0.99660  0.32944  0.38101  Biso   1.000  N
  N61      1.0000 0.99668  0.32944  0.38101  Biso   1.000  N
  H85      1.0000 0.13371  0.39352  0.35014  Biso   1.000  H
  H86      1.0000 0.13379  0.39352  0.35014  Biso   1.000  H
  C90      1.0000 0.11465  0.16785  0.21078  Biso   1.000  C
  C91      1.0000 0.11464  0.16777  0.21078  Biso   1.000  C
  N62      1.0000 0.00345  0.67069  0.61907  Biso   1.000  N
  N63      1.0000 0.00353  0.67069  0.61907  Biso   1.000  N
  H87      1.0000 0.17786  0.66825  0.70926  Biso   1.000  H
  H88      1.0000 0.09622  0.65975  0.78050  Biso   1.000  H
  H89      1.0000 0.09631  0.65975  0.78050  Biso   1.000  H
  C92      1.0000 0.88545  0.83225  0.78921  Biso   1.000  C
  O27      1.0000 0.91408  0.08234  0.85480  Biso   1.000  O
  O28      1.0000 0.90506  0.37637  0.51265  Biso   1.000  O
  C93      1.0000 0.88898  0.30102  0.27180  Biso   1.000  C
  C94      1.0000 0.88906  0.30102  0.27180  Biso   1.000  C
  N64      1.0000 0.00373  0.08534  0.15012  Biso   1.000  N
  H90      1.0000 0.18074  0.12745  0.20029  Biso   1.000  H
  H91      1.0000 0.10678  0.22810  0.17211  Biso   1.000  H
  H92      1.0000 0.10686  0.22810  0.17211  Biso   1.000  H
  C95      1.0000 0.00564  0.63882  0.50834  Biso   1.000  C
  C96      1.0000 0.88296  0.66425  0.61387  Biso   1.000  C
  N65      1.0000 0.85014  0.77497  0.66134  Biso   1.000  N
  N66      1.0000 0.85022  0.77497  0.66134  Biso   1.000  N
  H93      1.0000 0.81935  0.87265  0.79971  Biso   1.000  H
  H94      1.0000 0.89327  0.77195  0.82797  Biso   1.000  H
  N67      1.0000 0.85080  0.17723  0.20630  Biso   1.000  N
  N68      1.0000 0.85088  0.17723  0.20630  Biso   1.000  N
  H95      1.0000 0.82220  0.33188  0.29083  Biso   1.000  H
  H96      1.0000 0.90379  0.34035  0.21949  Biso   1.000  H
  H97      1.0000 0.82228  0.33180  0.29083  Biso   1.000  H
  H98      1.0000 0.82228  0.33188  0.29083  Biso   1.000  H
  H99      1.0000 0.90388  0.34035  0.21949  Biso   1.000  H
  C97      1.0000 0.99932  0.96752  0.12608  Biso   1.000  C
  C98      1.0000 0.88439  0.11665  0.11001  Biso   1.000  C
  C99      1.0000 0.88448  0.11665  0.11001  Biso   1.000  C
  O29      1.0000 0.09508  0.62376  0.48743  Biso   1.000  O
  N69      1.0000 0.88848  0.62367  0.42462  Biso   1.000  N
  N70      1.0000 0.88856  0.62367  0.42462  Biso   1.000  N
  O30      1.0000 0.09500  0.62376  0.48743  Biso   1.000  O
  C100     1.0000 0.80091  0.62558  0.47685  Biso   1.000  C
  C101     1.0000 0.80100  0.62558  0.47685  Biso   1.000  C
  H100     1.0000 0.86635  0.60660  0.64994  Biso   1.000  H
  H101     1.0000 0.86634  0.60652  0.64994  Biso   1.000  H
  C102     1.0000 0.75093  0.79598  0.57654  Biso   1.000  C
  C103     1.0000 0.75102  0.79598  0.57654  Biso   1.000  C
  C104     1.0000 0.74853  0.11924  0.19903  Biso   1.000  C
  N71      1.0000 0.87896  0.91509  0.07340  Biso   1.000  N
  N72      1.0000 0.87905  0.91509  0.07340  Biso   1.000  N
  O31      1.0000 0.08602  0.91776  0.14519  Biso   1.000  O
  O32      1.0000 0.08602  0.91768  0.14519  Biso   1.000  O
  C105     1.0000 0.79620  0.99730  0.05061  Biso   1.000  C
  H102     1.0000 0.87320  0.15956  0.05205  Biso   1.000  H
  H103     1.0000 0.87320  0.15948  0.05205  Biso   1.000  H
  H104     1.0000 0.87328  0.15948  0.05205  Biso   1.000  H
  C106     1.0000 0.85548  0.57118  0.29684  Biso   1.000  C
  C107     1.0000 0.85556  0.57110  0.29684  Biso   1.000  C
  C108     1.0000 0.85556  0.57118  0.29684  Biso   1.000  C
  N73      1.0000 0.72742  0.71505  0.46733  Biso   1.000  N
  H105     1.0000 0.74984  0.54704  0.44741  Biso   1.000  H
  N74      1.0000 0.72750  0.71505  0.46733  Biso   1.000  N
  O33      1.0000 0.69332  0.87348  0.59467  Biso   1.000  O
  O34      1.0000 0.69340  0.87348  0.59467  Biso   1.000  O
  N75      1.0000 0.71788  0.01161  0.11324  Biso   1.000  N
  N76      1.0000 0.71796  0.01161  0.11324  Biso   1.000  N
  O35      1.0000 0.69109  0.15651  0.25807  Biso   1.000  O
  C109     1.0000 0.84162  0.79004  0.02782  Biso   1.000  C
  H106     1.0000 0.74886  0.98078  0.96267  Biso   1.000  H
  H107     1.0000 0.74895  0.98078  0.96267  Biso   1.000  H
  N77      1.0000 0.81533  0.64874  0.22981  Biso   1.000  N
  H108     1.0000 0.92666  0.54252  0.28535  Biso   1.000  H
  H109     1.0000 0.78986  0.50294  0.26400  Biso   1.000  H
  H110     1.0000 0.78994  0.50294  0.26400  Biso   1.000  H
  C110     1.0000 0.62651  0.71225  0.35920  Biso   1.000  C
  C111     1.0000 0.61671  0.92613  0.08875  Biso   1.000  C
  N78      1.0000 0.80578  0.74319  0.10301  Biso   1.000  N
  N79      1.0000 0.80587  0.74319  0.10301  Biso   1.000  N
  H111     1.0000 0.77271  0.76810  0.94795  Biso   1.000  H
  H112     1.0000 0.77263  0.76810  0.94795  Biso   1.000  H
  H113     1.0000 0.90946  0.75353  0.01669  Biso   1.000  H
  H114     1.0000 0.90954  0.75353  0.01669  Biso   1.000  H
  C112     1.0000 0.87851  0.68585  0.17319  Biso   1.000  C
  C113     1.0000 0.69139  0.66824  0.18718  Biso   1.000  C
  C114     1.0000 0.87850  0.68577  0.17319  Biso   1.000  C
  N80      1.0000 0.66354  0.74892  0.27791  Biso   1.000  N
  H115     1.0000 0.57221  0.76357  0.38110  Biso   1.000  H
  H116     1.0000 0.57963  0.63197  0.31730  Biso   1.000  H
  H117     1.0000 0.57221  0.76349  0.38110  Biso   1.000  H
  H118     1.0000 0.57962  0.63188  0.31730  Biso   1.000  H
  N81      1.0000 0.65124  0.84323  0.15066  Biso   1.000  N
  N82      1.0000 0.65133  0.84323  0.15066  Biso   1.000  N
  H119     1.0000 0.55669  0.96693  0.11235  Biso   1.000  H
  H120     1.0000 0.57653  0.88364  0.00117  Biso   1.000  H
  H121     1.0000 0.55678  0.96693  0.11235  Biso   1.000  H
  H122     1.0000 0.57661  0.88355  0.00117  Biso   1.000  H
  H123     1.0000 0.57662  0.88364  0.00117  Biso   1.000  H
  C115     1.0000 0.68443  0.73416  0.09844  Biso   1.000  C
  C116     1.0000 0.68443  0.73408  0.09844  Biso   1.000  C
  O36      1.0000 0.97997  0.66916  0.18270  Biso   1.000  O
  O37      1.0000 0.98005  0.66908  0.18270  Biso   1.000  O
  O38      1.0000 0.98005  0.66916  0.18270  Biso   1.000  O
  H124     1.0000 0.63208  0.59331  0.14663  Biso   1.000  H
  H125     1.0000 0.63216  0.59331  0.14663  Biso   1.000  H
  C117     1.0000 0.63227  0.84681  0.24982  Biso   1.000  C
  C118     1.0000 0.63235  0.84681  0.24982  Biso   1.000  C
  H126     1.0000 0.62201  0.69042  0.01561  Biso   1.000  H
  O39      1.0000 0.59458  0.92402  0.30527  Biso   1.000  O
  O40      1.0000 0.59466  0.92402  0.30527  Biso   1.000  O
  O41      1.0000 0.40544  0.07608  0.69472  Biso   1.000  O
  C119     1.0000 0.36779  0.15332  0.75026  Biso   1.000  C
  C120     1.0000 0.36778  0.15324  0.75026  Biso   1.000  C
  N83      1.0000 0.34877  0.15687  0.84933  Biso   1.000  N
  N84      1.0000 0.33659  0.25121  0.72218  Biso   1.000  N
  O42      1.0000 0.40552  0.07608  0.69472  Biso   1.000  O
  C121     1.0000 0.38334  0.07399  0.91134  Biso   1.000  C
  C122     1.0000 0.38342  0.07399  0.91134  Biso   1.000  C
  C123     1.0000 0.31570  0.26597  0.90165  Biso   1.000  C
  C124     1.0000 0.30863  0.33186  0.81281  Biso   1.000  C
  C125     1.0000 0.30871  0.33186  0.81281  Biso   1.000  C
  C126     1.0000 0.37351  0.28785  0.64079  Biso   1.000  C
  C127     1.0000 0.37359  0.28785  0.64079  Biso   1.000  C
  N85      1.0000 0.28218  0.98852  0.88684  Biso   1.000  N
  N86      1.0000 0.28217  0.98844  0.88684  Biso   1.000  N
  H127     1.0000 0.44336  0.03320  0.88774  Biso   1.000  H
  H128     1.0000 0.42348  0.11646  0.99883  Biso   1.000  H
  H129     1.0000 0.44344  0.03320  0.88774  Biso   1.000  H
  N87      1.0000 0.19427  0.25685  0.89707  Biso   1.000  N
  N88      1.0000 0.19435  0.25685  0.89707  Biso   1.000  N
  H130     1.0000 0.37812  0.30971  0.98447  Biso   1.000  H
  N89      1.0000 0.18480  0.35139  0.77028  Biso   1.000  N
  H131     1.0000 0.36797  0.40682  0.85346  Biso   1.000  H
  H132     1.0000 0.36797  0.40674  0.85346  Biso   1.000  H
  H133     1.0000 0.36805  0.40674  0.85346  Biso   1.000  H
  N90      1.0000 0.27264  0.28508  0.53275  Biso   1.000  N
  H134     1.0000 0.42780  0.23653  0.61889  Biso   1.000  H
  H135     1.0000 0.42047  0.36813  0.68269  Biso   1.000  H
  H136     1.0000 0.42788  0.23653  0.61889  Biso   1.000  H
  N91      1.0000 0.27272  0.28508  0.53275  Biso   1.000  N
  C128     1.0000 0.25160  0.88088  0.80105  Biso   1.000  C
  C129     1.0000 0.20386  0.00283  0.94947  Biso   1.000  C
  C130     1.0000 0.20393  0.00275  0.94947  Biso   1.000  C
  C131     1.0000 0.20394  0.00283  0.94947  Biso   1.000  C
  C132     1.0000 0.15851  0.21009  0.97227  Biso   1.000  C
  C133     1.0000 0.12151  0.31424  0.82681  Biso   1.000  C
  C134     1.0000 0.12159  0.31424  0.82681  Biso   1.000  C
  C135     1.0000 0.14457  0.42894  0.70324  Biso   1.000  C
  C136     1.0000 0.19914  0.37455  0.52324  Biso   1.000  C
  C137     1.0000 0.24912  0.20415  0.42354  Biso   1.000  C
  C138     1.0000 0.24920  0.20415  0.42354  Biso   1.000  C
  C139     1.0000 0.19922  0.37455  0.52324  Biso   1.000  C
  N92      1.0000 0.14922  0.82287  0.79370  Biso   1.000  N
  N93      1.0000 0.14930  0.82287  0.79370  Biso   1.000  N
  O43      1.0000 0.30892  0.84359  0.74192  Biso   1.000  O
  O44      1.0000 0.30900  0.84359  0.74192  Biso   1.000  O
  C140     1.0000 0.11566  0.88348  0.89007  Biso   1.000  C
  C141     1.0000 0.11574  0.88348  0.89007  Biso   1.000  C
  N94      1.0000 0.12109  0.08504  0.92668  Biso   1.000  N
  N95      1.0000 0.12109  0.08496  0.92668  Biso   1.000  N
  H137     1.0000 0.25123  0.01924  0.03732  Biso   1.000  H
  H138     1.0000 0.25115  0.01924  0.03732  Biso   1.000  H
  H139     1.0000 0.09056  0.24657  0.98330  Biso   1.000  H
  H140     1.0000 0.22747  0.23200  0.05204  Biso   1.000  H
  H141     1.0000 0.22739  0.23200  0.05204  Biso   1.000  H
  O45      1.0000 0.02004  0.33094  0.81730  Biso   1.000  O
  N96      1.0000 0.11158  0.37646  0.57546  Biso   1.000  N
  H142     1.0000 0.07347  0.45761  0.71473  Biso   1.000  H
  H143     1.0000 0.21015  0.49716  0.73600  Biso   1.000  H
  H144     1.0000 0.07347  0.45753  0.71473  Biso   1.000  H
  C142     1.0000 0.11710  0.33588  0.38621  Biso   1.000  C
  C143     1.0000 0.11718  0.33580  0.38621  Biso   1.000  C
  C144     1.0000 0.11718  0.33588  0.38621  Biso   1.000  C
  H145     1.0000 0.25029  0.45309  0.55267  Biso   1.000  H
  N97      1.0000 0.14991  0.22516  0.33875  Biso   1.000  N
  N98      1.0000 0.15000  0.22516  0.33875  Biso   1.000  N
  O46      1.0000 0.30674  0.12664  0.40542  Biso   1.000  O
  C145     1.0000 0.11107  0.69911  0.72828  Biso   1.000  C
  H146     1.0000 0.12685  0.84056  0.94804  Biso   1.000  H
  N99      1.0000 0.99632  0.91478  0.84996  Biso   1.000  N
  N100     1.0000 0.99640  0.91478  0.84996  Biso   1.000  N
  H147     1.0000 0.12693  0.84056  0.94804  Biso   1.000  H
  C146     1.0000 0.00078  0.03258  0.87392  Biso   1.000  C
  C147     1.0000 0.99441  0.36122  0.49174  Biso   1.000  C
  C148     1.0000 0.99449  0.36122  0.49174  Biso   1.000  C
  N101     1.0000 0.99660  0.32944  0.38101  Biso   1.000  N
  N102     1.0000 0.99668  0.32944  0.38101  Biso   1.000  N
  H148     1.0000 0.13371  0.39352  0.35014  Biso   1.000  H
  H149     1.0000 0.13379  0.39352  0.35014  Biso   1.000  H
  C149     1.0000 0.11465  0.16785  0.21078  Biso   1.000  C
  C150     1.0000 0.11464  0.16777  0.21078  Biso   1.000  C
  N103     1.0000 0.00345  0.67069  0.61907  Biso   1.000  N
  N104     1.0000 0.00353  0.67069  0.61907  Biso   1.000  N
  H150     1.0000 0.17786  0.66825  0.70926  Biso   1.000  H
  H151     1.0000 0.09622  0.65975  0.78050  Biso   1.000  H
  H152     1.0000 0.09631  0.65975  0.78050  Biso   1.000  H
  C151     1.0000 0.88545  0.83225  0.78921  Biso   1.000  C
  O47      1.0000 0.91408  0.08234  0.85480  Biso   1.000  O
  O48      1.0000 0.90506  0.37637  0.51265  Biso   1.000  O
  C152     1.0000 0.88898  0.30102  0.27180  Biso   1.000  C
  C153     1.0000 0.88906  0.30102  0.27180  Biso   1.000  C
  N105     1.0000 0.00373  0.08534  0.15012  Biso   1.000  N
  H153     1.0000 0.18074  0.12745  0.20029  Biso   1.000  H
  H154     1.0000 0.10678  0.22810  0.17211  Biso   1.000  H
  H155     1.0000 0.10686  0.22810  0.17211  Biso   1.000  H
  C154     1.0000 0.00564  0.63882  0.50834  Biso   1.000  C
  C155     1.0000 0.88296  0.66425  0.61387  Biso   1.000  C
  N106     1.0000 0.85014  0.77497  0.66134  Biso   1.000  N
  N107     1.0000 0.85022  0.77497  0.66134  Biso   1.000  N
  H156     1.0000 0.81935  0.87265  0.79971  Biso   1.000  H
  H157     1.0000 0.89327  0.77195  0.82797  Biso   1.000  H
  N108     1.0000 0.85080  0.17723  0.20630  Biso   1.000  N
  N109     1.0000 0.85088  0.17723  0.20630  Biso   1.000  N
  H158     1.0000 0.82220  0.33188  0.29083  Biso   1.000  H
  H159     1.0000 0.90379  0.34035  0.21949  Biso   1.000  H
  H160     1.0000 0.82228  0.33180  0.29083  Biso   1.000  H
  H161     1.0000 0.82228  0.33188  0.29083  Biso   1.000  H
  H162     1.0000 0.90388  0.34035  0.21949  Biso   1.000  H
  C156     1.0000 0.99932  0.96752  0.12608  Biso   1.000  C
  C157     1.0000 0.88439  0.11665  0.11001  Biso   1.000  C
  C158     1.0000 0.88448  0.11665  0.11001  Biso   1.000  C
  O49      1.0000 0.09508  0.62376  0.48743  Biso   1.000  O
  N110     1.0000 0.88848  0.62367  0.42462  Biso   1.000  N
  N111     1.0000 0.88856  0.62367  0.42462  Biso   1.000  N
  O50      1.0000 0.09500  0.62376  0.48743  Biso   1.000  O
  C159     1.0000 0.80091  0.62558  0.47685  Biso   1.000  C
  C160     1.0000 0.80100  0.62558  0.47685  Biso   1.000  C
  H163     1.0000 0.86635  0.60660  0.64994  Biso   1.000  H
  H164     1.0000 0.86634  0.60652  0.64994  Biso   1.000  H
  C161     1.0000 0.75093  0.79598  0.57654  Biso   1.000  C
  C162     1.0000 0.75102  0.79598  0.57654  Biso   1.000  C
  C163     1.0000 0.74853  0.11924  0.19903  Biso   1.000  C
  N112     1.0000 0.87896  0.91509  0.07340  Biso   1.000  N
  N113     1.0000 0.87905  0.91509  0.07340  Biso   1.000  N
  O51      1.0000 0.08602  0.91776  0.14519  Biso   1.000  O
  O52      1.0000 0.08602  0.91768  0.14519  Biso   1.000  O
  C164     1.0000 0.79620  0.99730  0.05061  Biso   1.000  C
  H165     1.0000 0.87320  0.15956  0.05205  Biso   1.000  H
  H166     1.0000 0.87320  0.15948  0.05205  Biso   1.000  H
  H167     1.0000 0.87328  0.15948  0.05205  Biso   1.000  H
  C165     1.0000 0.85548  0.57118  0.29684  Biso   1.000  C
  C166     1.0000 0.85556  0.57110  0.29684  Biso   1.000  C
  C167     1.0000 0.85556  0.57118  0.29684  Biso   1.000  C
  N114     1.0000 0.72742  0.71505  0.46733  Biso   1.000  N
  H168     1.0000 0.74984  0.54704  0.44741  Biso   1.000  H
  N115     1.0000 0.72750  0.71505  0.46733  Biso   1.000  N
  O53      1.0000 0.69332  0.87348  0.59467  Biso   1.000  O
  O54      1.0000 0.69340  0.87348  0.59467  Biso   1.000  O
  N116     1.0000 0.71788  0.01161  0.11324  Biso   1.000  N
  N117     1.0000 0.71796  0.01161  0.11324  Biso   1.000  N
  O55      1.0000 0.69109  0.15651  0.25807  Biso   1.000  O
  C168     1.0000 0.84162  0.79004  0.02782  Biso   1.000  C
  H169     1.0000 0.74886  0.98078  0.96267  Biso   1.000  H
  H170     1.0000 0.74895  0.98078  0.96267  Biso   1.000  H
  N118     1.0000 0.81533  0.64874  0.22981  Biso   1.000  N
  H171     1.0000 0.92666  0.54252  0.28535  Biso   1.000  H
  H172     1.0000 0.78986  0.50294  0.26400  Biso   1.000  H
  H173     1.0000 0.78994  0.50294  0.26400  Biso   1.000  H
  C169     1.0000 0.62651  0.71225  0.35920  Biso   1.000  C
  C170     1.0000 0.61671  0.92613  0.08875  Biso   1.000  C
  N119     1.0000 0.80578  0.74319  0.10301  Biso   1.000  N
  N120     1.0000 0.80587  0.74319  0.10301  Biso   1.000  N
  H174     1.0000 0.77271  0.76810  0.94795  Biso   1.000  H
  H175     1.0000 0.77263  0.76810  0.94795  Biso   1.000  H
  H176     1.0000 0.90946  0.75353  0.01669  Biso   1.000  H
  H177     1.0000 0.90954  0.75353  0.01669  Biso   1.000  H
  C171     1.0000 0.87851  0.68585  0.17319  Biso   1.000  C
  C172     1.0000 0.69139  0.66824  0.18718  Biso   1.000  C
  C173     1.0000 0.87850  0.68577  0.17319  Biso   1.000  C
  N121     1.0000 0.66354  0.74892  0.27791  Biso   1.000  N
  H178     1.0000 0.57221  0.76357  0.38110  Biso   1.000  H
  H179     1.0000 0.57963  0.63197  0.31730  Biso   1.000  H
  H180     1.0000 0.57221  0.76349  0.38110  Biso   1.000  H
  H181     1.0000 0.57962  0.63188  0.31730  Biso   1.000  H
  N122     1.0000 0.65124  0.84323  0.15066  Biso   1.000  N
  N123     1.0000 0.65133  0.84323  0.15066  Biso   1.000  N
  H182     1.0000 0.55669  0.96693  0.11235  Biso   1.000  H
  H183     1.0000 0.57653  0.88364  0.00117  Biso   1.000  H
  H184     1.0000 0.55678  0.96693  0.11235  Biso   1.000  H
  H185     1.0000 0.57661  0.88355  0.00117  Biso   1.000  H
  H186     1.0000 0.57662  0.88364  0.00117  Biso   1.000  H
  C174     1.0000 0.68443  0.73416  0.09844  Biso   1.000  C
  C175     1.0000 0.68443  0.73408  0.09844  Biso   1.000  C
  O56      1.0000 0.97997  0.66916  0.18270  Biso   1.000  O
  O57      1.0000 0.98005  0.66908  0.18270  Biso   1.000  O
  O58      1.0000 0.98005  0.66916  0.18270  Biso   1.000  O
  H187     1.0000 0.63208  0.59331  0.14663  Biso   1.000  H
  H188     1.0000 0.63216  0.59331  0.14663  Biso   1.000  H
  C176     1.0000 0.63227  0.84681  0.24982  Biso   1.000  C
  C177     1.0000 0.63235  0.84681  0.24982  Biso   1.000  C
  H189     1.0000 0.62201  0.69042  0.01561  Biso   1.000  H
  O59      1.0000 0.59458  0.92402  0.30527  Biso   1.000  O
  O60      1.0000 0.59466  0.92402  0.30527  Biso   1.000  O
  O61      1.0000 0.40544  0.07608  0.69472  Biso   1.000  O
  C178     1.0000 0.36779  0.15332  0.75026  Biso   1.000  C
  C179     1.0000 0.36778  0.15324  0.75026  Biso   1.000  C
  N124     1.0000 0.34877  0.15687  0.84933  Biso   1.000  N
  N125     1.0000 0.33659  0.25121  0.72218  Biso   1.000  N
  O62      1.0000 0.40552  0.07608  0.69472  Biso   1.000  O
  C180     1.0000 0.38334  0.07399  0.91134  Biso   1.000  C
  C181     1.0000 0.38342  0.07399  0.91134  Biso   1.000  C
  C182     1.0000 0.31570  0.26597  0.90165  Biso   1.000  C
  C183     1.0000 0.30863  0.33186  0.81281  Biso   1.000  C
  C184     1.0000 0.30871  0.33186  0.81281  Biso   1.000  C
  C185     1.0000 0.37351  0.28785  0.64079  Biso   1.000  C
  C186     1.0000 0.37359  0.28785  0.64079  Biso   1.000  C
  N126     1.0000 0.28218  0.98852  0.88684  Biso   1.000  N
  N127     1.0000 0.28217  0.98844  0.88684  Biso   1.000  N
  H190     1.0000 0.44336  0.03320  0.88774  Biso   1.000  H
  H191     1.0000 0.42348  0.11646  0.99883  Biso   1.000  H
  H192     1.0000 0.44344  0.03320  0.88774  Biso   1.000  H
  N128     1.0000 0.19427  0.25685  0.89707  Biso   1.000  N
  N129     1.0000 0.19435  0.25685  0.89707  Biso   1.000  N
  H193     1.0000 0.37812  0.30971  0.98447  Biso   1.000  H
  N130     1.0000 0.18480  0.35139  0.77028  Biso   1.000  N
  H194     1.0000 0.36797  0.40682  0.85346  Biso   1.000  H
  H195     1.0000 0.36797  0.40674  0.85346  Biso   1.000  H
  H196     1.0000 0.36805  0.40674  0.85346  Biso   1.000  H
  N131     1.0000 0.27264  0.28508  0.53275  Biso   1.000  N
  H197     1.0000 0.42780  0.23653  0.61889  Biso   1.000  H
  H198     1.0000 0.42047  0.36813  0.68269  Biso   1.000  H
  H199     1.0000 0.42788  0.23653  0.61889  Biso   1.000  H
  N132     1.0000 0.27272  0.28508  0.53275  Biso   1.000  N
  C187     1.0000 0.25160  0.88088  0.80105  Biso   1.000  C
  C188     1.0000 0.20386  0.00283  0.94947  Biso   1.000  C
  C189     1.0000 0.20393  0.00275  0.94947  Biso   1.000  C
  C190     1.0000 0.20394  0.00283  0.94947  Biso   1.000  C
  C191     1.0000 0.15851  0.21009  0.97227  Biso   1.000  C
  C192     1.0000 0.12151  0.31424  0.82681  Biso   1.000  C
  C193     1.0000 0.12159  0.31424  0.82681  Biso   1.000  C
  C194     1.0000 0.14457  0.42894  0.70324  Biso   1.000  C
  C195     1.0000 0.24912  0.20415  0.42354  Biso   1.000  C
  C196     1.0000 0.24920  0.20415  0.42354  Biso   1.000  C
  C197     1.0000 0.19914  0.37455  0.52324  Biso   1.000  C
  C198     1.0000 0.19922  0.37455  0.52324  Biso   1.000  C
  N133     1.0000 0.14922  0.82287  0.79370  Biso   1.000  N
  N134     1.0000 0.14930  0.82287  0.79370  Biso   1.000  N
  O63      1.0000 0.30892  0.84359  0.74192  Biso   1.000  O
  O64      1.0000 0.30900  0.84359  0.74192  Biso   1.000  O
  C199     1.0000 0.11566  0.88348  0.89007  Biso   1.000  C
  C200     1.0000 0.11574  0.88348  0.89007  Biso   1.000  C
  N135     1.0000 0.12109  0.08504  0.92668  Biso   1.000  N
  N136     1.0000 0.12109  0.08496  0.92668  Biso   1.000  N
  H200     1.0000 0.25123  0.01924  0.03732  Biso   1.000  H
  H201     1.0000 0.25115  0.01924  0.03732  Biso   1.000  H
  H202     1.0000 0.09056  0.24657  0.98330  Biso   1.000  H
  H203     1.0000 0.22747  0.23200  0.05204  Biso   1.000  H
  H204     1.0000 0.22739  0.23200  0.05204  Biso   1.000  H
  O65      1.0000 0.02004  0.33094  0.81730  Biso   1.000  O
  N137     1.0000 0.11158  0.37646  0.57546  Biso   1.000  N
  H205     1.0000 0.07347  0.45761  0.71473  Biso   1.000  H
  H206     1.0000 0.21015  0.49716  0.73600  Biso   1.000  H
  H207     1.0000 0.07347  0.45753  0.71473  Biso   1.000  H
  N138     1.0000 0.14991  0.22516  0.33875  Biso   1.000  N
  N139     1.0000 0.15000  0.22516  0.33875  Biso   1.000  N
  O66      1.0000 0.30674  0.12664  0.40542  Biso   1.000  O
  C201     1.0000 0.11710  0.33588  0.38621  Biso   1.000  C
  C202     1.0000 0.11718  0.33580  0.38621  Biso   1.000  C
  C203     1.0000 0.11718  0.33588  0.38621  Biso   1.000  C
  H208     1.0000 0.25029  0.45309  0.55267  Biso   1.000  H
  C204     1.0000 0.11107  0.69911  0.72828  Biso   1.000  C
  N140     1.0000 0.99632  0.91478  0.84996  Biso   1.000  N
  N141     1.0000 0.99640  0.91478  0.84996  Biso   1.000  N
  H209     1.0000 0.12685  0.84056  0.94804  Biso   1.000  H
  H210     1.0000 0.12693  0.84056  0.94804  Biso   1.000  H
  C205     1.0000 0.00078  0.03258  0.87392  Biso   1.000  C
  C206     1.0000 0.99441  0.36122  0.49174  Biso   1.000  C
  C207     1.0000 0.99449  0.36122  0.49174  Biso   1.000  C
  C208     1.0000 0.11465  0.16785  0.21078  Biso   1.000  C
  C209     1.0000 0.11464  0.16777  0.21078  Biso   1.000  C
  N142     1.0000 0.99660  0.32944  0.38101  Biso   1.000  N
  N143     1.0000 0.99668  0.32944  0.38101  Biso   1.000  N
  H211     1.0000 0.13371  0.39352  0.35014  Biso   1.000  H
  H212     1.0000 0.13379  0.39352  0.35014  Biso   1.000  H
  N144     1.0000 0.00345  0.67069  0.61907  Biso   1.000  N
  N145     1.0000 0.00353  0.67069  0.61907  Biso   1.000  N
  H213     1.0000 0.17786  0.66825  0.70926  Biso   1.000  H
  H214     1.0000 0.09622  0.65975  0.78050  Biso   1.000  H
  H215     1.0000 0.09631  0.65975  0.78050  Biso   1.000  H
  C210     1.0000 0.88545  0.83225  0.78921  Biso   1.000  C
  O67      1.0000 0.91408  0.08234  0.85480  Biso   1.000  O
  O68      1.0000 0.90506  0.37637  0.51265  Biso   1.000  O
  N146     1.0000 0.00373  0.08534  0.15012  Biso   1.000  N
  H216     1.0000 0.18074  0.12745  0.20029  Biso   1.000  H
  H217     1.0000 0.10678  0.22810  0.17211  Biso   1.000  H
  H218     1.0000 0.10686  0.22810  0.17211  Biso   1.000  H
  C211     1.0000 0.88898  0.30102  0.27180  Biso   1.000  C
  C212     1.0000 0.88906  0.30102  0.27180  Biso   1.000  C
  C213     1.0000 0.00564  0.63882  0.50834  Biso   1.000  C
  C214     1.0000 0.88296  0.66425  0.61387  Biso   1.000  C
  N147     1.0000 0.85014  0.77497  0.66134  Biso   1.000  N
  N148     1.0000 0.85022  0.77497  0.66134  Biso   1.000  N
  H219     1.0000 0.81935  0.87265  0.79971  Biso   1.000  H
  H220     1.0000 0.89327  0.77195  0.82797  Biso   1.000  H
  C215     1.0000 0.99932  0.96752  0.12608  Biso   1.000  C
  C216     1.0000 0.88439  0.11665  0.11001  Biso   1.000  C
  C217     1.0000 0.88448  0.11665  0.11001  Biso   1.000  C
  N149     1.0000 0.85080  0.17723  0.20630  Biso   1.000  N
  N150     1.0000 0.85088  0.17723  0.20630  Biso   1.000  N
  H221     1.0000 0.82220  0.33188  0.29083  Biso   1.000  H
  H222     1.0000 0.90379  0.34035  0.21949  Biso   1.000  H
  H223     1.0000 0.82228  0.33180  0.29083  Biso   1.000  H
  H224     1.0000 0.82228  0.33188  0.29083  Biso   1.000  H
  H225     1.0000 0.90388  0.34035  0.21949  Biso   1.000  H
  N151     1.0000 0.88848  0.62367  0.42462  Biso   1.000  N
  N152     1.0000 0.88856  0.62367  0.42462  Biso   1.000  N
  O69      1.0000 0.09500  0.62376  0.48743  Biso   1.000  O
  O70      1.0000 0.09508  0.62376  0.48743  Biso   1.000  O
  C218     1.0000 0.80091  0.62558  0.47685  Biso   1.000  C
  C219     1.0000 0.80100  0.62558  0.47685  Biso   1.000  C
  H226     1.0000 0.86635  0.60660  0.64994  Biso   1.000  H
  H227     1.0000 0.86634  0.60652  0.64994  Biso   1.000  H
  C220     1.0000 0.75093  0.79598  0.57654  Biso   1.000  C
  C221     1.0000 0.75102  0.79598  0.57654  Biso   1.000  C
  N153     1.0000 0.87896  0.91509  0.07340  Biso   1.000  N
  N154     1.0000 0.87905  0.91509  0.07340  Biso   1.000  N
  O71      1.0000 0.08602  0.91776  0.14519  Biso   1.000  O
  O72      1.0000 0.08602  0.91768  0.14519  Biso   1.000  O
  C222     1.0000 0.79620  0.99730  0.05061  Biso   1.000  C
  H228     1.0000 0.87320  0.15956  0.05205  Biso   1.000  H
  H229     1.0000 0.87320  0.15948  0.05205  Biso   1.000  H
  H230     1.0000 0.87328  0.15948  0.05205  Biso   1.000  H
  C223     1.0000 0.74853  0.11924  0.19903  Biso   1.000  C
  C224     1.0000 0.85548  0.57118  0.29684  Biso   1.000  C
  C225     1.0000 0.85556  0.57110  0.29684  Biso   1.000  C
  C226     1.0000 0.85556  0.57118  0.29684  Biso   1.000  C
  N155     1.0000 0.72742  0.71505  0.46733  Biso   1.000  N
  H231     1.0000 0.74984  0.54704  0.44741  Biso   1.000  H
  N156     1.0000 0.72750  0.71505  0.46733  Biso   1.000  N
  O73      1.0000 0.69332  0.87348  0.59467  Biso   1.000  O
  O74      1.0000 0.69340  0.87348  0.59467  Biso   1.000  O
  C227     1.0000 0.84162  0.79004  0.02782  Biso   1.000  C
  N157     1.0000 0.71788  0.01161  0.11324  Biso   1.000  N
  N158     1.0000 0.71796  0.01161  0.11324  Biso   1.000  N
  H232     1.0000 0.74886  0.98078  0.96267  Biso   1.000  H
  H233     1.0000 0.74895  0.98078  0.96267  Biso   1.000  H
  O75      1.0000 0.69109  0.15651  0.25807  Biso   1.000  O
  N159     1.0000 0.81533  0.64874  0.22981  Biso   1.000  N
  H234     1.0000 0.92666  0.54252  0.28535  Biso   1.000  H
  H235     1.0000 0.78986  0.50294  0.26400  Biso   1.000  H
  H236     1.0000 0.78994  0.50294  0.26400  Biso   1.000  H
  C228     1.0000 0.62651  0.71225  0.35920  Biso   1.000  C
  N160     1.0000 0.80578  0.74319  0.10301  Biso   1.000  N
  N161     1.0000 0.80587  0.74319  0.10301  Biso   1.000  N
  H237     1.0000 0.77271  0.76810  0.94795  Biso   1.000  H
  H238     1.0000 0.77263  0.76810  0.94795  Biso   1.000  H
  H239     1.0000 0.90946  0.75353  0.01669  Biso   1.000  H
  H240     1.0000 0.90954  0.75353  0.01669  Biso   1.000  H
  C229     1.0000 0.61671  0.92613  0.08875  Biso   1.000  C
  C230     1.0000 0.87851  0.68585  0.17319  Biso   1.000  C
  C231     1.0000 0.69139  0.66824  0.18718  Biso   1.000  C
  C232     1.0000 0.87850  0.68577  0.17319  Biso   1.000  C
  N162     1.0000 0.66354  0.74892  0.27791  Biso   1.000  N
  H241     1.0000 0.57221  0.76357  0.38110  Biso   1.000  H
  H242     1.0000 0.57963  0.63197  0.31730  Biso   1.000  H
  H243     1.0000 0.57221  0.76349  0.38110  Biso   1.000  H
  H244     1.0000 0.57962  0.63188  0.31730  Biso   1.000  H
  C233     1.0000 0.68443  0.73416  0.09844  Biso   1.000  C
  C234     1.0000 0.68443  0.73408  0.09844  Biso   1.000  C
  N163     1.0000 0.65124  0.84323  0.15066  Biso   1.000  N
  N164     1.0000 0.65133  0.84323  0.15066  Biso   1.000  N
  H245     1.0000 0.55669  0.96693  0.11235  Biso   1.000  H
  H246     1.0000 0.57653  0.88364  0.00117  Biso   1.000  H
  H247     1.0000 0.55678  0.96693  0.11235  Biso   1.000  H
  H248     1.0000 0.57661  0.88355  0.00117  Biso   1.000  H
  H249     1.0000 0.57662  0.88364  0.00117  Biso   1.000  H
  O76      1.0000 0.97997  0.66916  0.18270  Biso   1.000  O
  O77      1.0000 0.98005  0.66908  0.18270  Biso   1.000  O
  O78      1.0000 0.98005  0.66916  0.18270  Biso   1.000  O
  H250     1.0000 0.63208  0.59331  0.14663  Biso   1.000  H
  H251     1.0000 0.63216  0.59331  0.14663  Biso   1.000  H
  C235     1.0000 0.63227  0.84681  0.24982  Biso   1.000  C
  C236     1.0000 0.63235  0.84681  0.24982  Biso   1.000  C
  H252     1.0000 0.62201  0.69042  0.01561  Biso   1.000  H
  O79      1.0000 0.59458  0.92402  0.30527  Biso   1.000  O
  O80      1.0000 0.59466  0.92402  0.30527  Biso   1.000  O
