data_image0
_cell_length_a       14.262
_cell_length_b       14.262
_cell_length_c       44.914
_cell_angle_alpha    90
_cell_angle_beta     90
_cell_angle_gamma    120

_symmetry_space_group_name_H-M    "P 1"
_symmetry_int_tables_number       1

loop_
  _symmetry_equiv_pos_as_xyz
  'x, y, z'

loop_
  _atom_site_label
  _atom_site_occupancy
  _atom_site_fract_x
  _atom_site_fract_y
  _atom_site_fract_z
  _atom_site_thermal_displace_type
  _atom_site_B_iso_or_equiv
  _atom_site_type_symbol
  C1       1.0000 0.53253  0.44635  0.53507  Biso   1.000  C
  C2       1.0000 0.49343  0.35988  0.51567  Biso   1.000  C
  C3       1.0000 0.63926  0.54917  0.53106  Biso   1.000  C
  C4       1.0000 0.47333  0.43510  0.56127  Biso   1.000  C
  C5       1.0000 0.39773  0.26524  0.52186  Biso   1.000  C
  H1       1.0000 0.54493  0.37300  0.49597  Biso   1.000  H
  N1       1.0000 0.68781  0.55217  0.50187  Biso   1.000  N
  H2       1.0000 0.70362  0.56893  0.54927  Biso   1.000  H
  H3       1.0000 0.62825  0.61087  0.53177  Biso   1.000  H
  C6       1.0000 0.37920  0.33883  0.56786  Biso   1.000  C
  H4       1.0000 0.50864  0.49380  0.57528  Biso   1.000  H
  C7       1.0000 0.36410  0.16784  0.50136  Biso   1.000  C
  C8       1.0000 0.34138  0.25520  0.54787  Biso   1.000  C
  C9       1.0000 0.80371  0.63589  0.50136  Biso   1.000  C
  H5       1.0000 0.66234  0.58326  0.48746  Biso   1.000  H
  C10      1.0000 0.32565  0.32329  0.59848  Biso   1.000  C
  N2       1.0000 0.44788  0.13569  0.50187  Biso   1.000  N
  H6       1.0000 0.29162  0.10477  0.50677  Biso   1.000  H
  H7       1.0000 0.35832  0.18249  0.47747  Biso   1.000  H
  H8       1.0000 0.27265  0.19164  0.55286  Biso   1.000  H
  C11      1.0000 0.86754  0.60229  0.52186  Biso   1.000  C
  H9       1.0000 0.81316  0.70835  0.50677  Biso   1.000  H
  H10      1.0000 0.82411  0.64164  0.47747  Biso   1.000  H
  C12      1.0000 0.38403  0.28791  0.62016  Biso   1.000  C
  H11      1.0000 0.35463  0.38854  0.60346  Biso   1.000  H
  H12      1.0000 0.27757  0.27609  0.59267  Biso   1.000  H
  C13      1.0000 0.45085  0.09003  0.53106  Biso   1.000  C
  H13      1.0000 0.41678  0.07910  0.48746  Biso   1.000  H
  C14      1.0000 0.86646  0.50659  0.51567  Biso   1.000  C
  C15      1.0000 0.91381  0.65864  0.54787  Biso   1.000  C
  C16      1.0000 0.46671  0.36393  0.63826  Biso   1.000  C
  C17      1.0000 0.36173  0.18314  0.62208  Biso   1.000  C
  C18      1.0000 0.55359  0.08615  0.53507  Biso   1.000  C
  H14      1.0000 0.43101  0.13464  0.54927  Biso   1.000  H
  H15      1.0000 0.38916  0.01741  0.53177  Biso   1.000  H
  C19      1.0000 0.91387  0.46748  0.53507  Biso   1.000  C
  H16      1.0000 0.82802  0.45510  0.49597  Biso   1.000  H
  C20      1.0000 0.95965  0.62075  0.56786  Biso   1.000  C
  H17      1.0000 0.91901  0.72738  0.55286  Biso   1.000  H
  C21      1.0000 0.52860  0.33697  0.65648  Biso   1.000  C
  H18      1.0000 0.48771  0.42935  0.63617  Biso   1.000  H
  C22      1.0000 0.42022  0.15359  0.63987  Biso   1.000  C
  O1       1.0000 0.27715  0.11060  0.60458  Biso   1.000  O
  C23      1.0000 0.64014  0.13359  0.51567  Biso   1.000  C
  C24      1.0000 0.56493  0.03830  0.56127  Biso   1.000  C
  C25      1.0000 0.90995  0.36077  0.53106  Biso   1.000  C
  C26      1.0000 0.96176  0.52667  0.56127  Biso   1.000  C
  C27      1.0000 0.99760  0.67434  0.59848  Biso   1.000  C
  C28      1.0000 0.62052  0.42894  0.67487  Biso   1.000  C
  C29      1.0000 0.50586  0.23147  0.65677  Biso   1.000  C
  H19      1.0000 0.40320  0.08574  0.64327  Biso   1.000  H
  C30      1.0000 0.25910  0.00243  0.60206  Biso   1.000  C
  C31      1.0000 0.73472  0.13246  0.52186  Biso   1.000  C
  H20      1.0000 0.62700  0.17197  0.49597  Biso   1.000  H
  C32      1.0000 0.66113  0.04040  0.56786  Biso   1.000  C
  H21      1.0000 0.50626  0.01490  0.57528  Biso   1.000  H
  N3       1.0000 0.86434  0.31220  0.50187  Biso   1.000  N
  H22      1.0000 0.86535  0.29641  0.54927  Biso   1.000  H
  H23      1.0000 0.98262  0.37178  0.53177  Biso   1.000  H
  H24      1.0000 0.98513  0.49137  0.57528  Biso   1.000  H
  C33      1.0000 0.90383  0.61597  0.62016  Biso   1.000  C
  H25      1.0000 0.99851  0.72244  0.59267  Biso   1.000  H
  H26      1.0000 0.03394  0.64536  0.60346  Biso   1.000  H
  C34      1.0000 0.72564  0.49420  0.65677  Biso   1.000  C
  H27      1.0000 0.60114  0.45793  0.67427  Biso   1.000  H
  H28      1.0000 0.64126  0.39429  0.68776  Biso   1.000  H
  C35      1.0000 0.57103  0.19156  0.67487  Biso   1.000  C
  H29      1.0000 0.24526  0.96899  0.61867  Biso   1.000  H
  H30      1.0000 0.31430  0.99684  0.59667  Biso   1.000  H
  H31      1.0000 0.19383  0.96009  0.58527  Biso   1.000  H
  C36      1.0000 0.83211  0.19626  0.50136  Biso   1.000  C
  C37      1.0000 0.74480  0.08615  0.54787  Biso   1.000  C
  C38      1.0000 0.67675  0.00235  0.59848  Biso   1.000  C
  H32      1.0000 0.92092  0.33770  0.48746  Biso   1.000  H
  C39      1.0000 0.89728  0.53331  0.63826  Biso   1.000  C
  C40      1.0000 0.82143  0.63823  0.62208  Biso   1.000  C
  C41      1.0000 0.80833  0.47137  0.65648  Biso   1.000  C
  C42      1.0000 0.73331  0.57978  0.63987  Biso   1.000  C
  C43      1.0000 0.66299  0.19164  0.65648  Biso   1.000  C
  H33      1.0000 0.54205  0.14314  0.67427  Biso   1.000  H
  H34      1.0000 0.60573  0.24694  0.68776  Biso   1.000  H
  H35      1.0000 0.89521  0.18686  0.50677  Biso   1.000  H
  H36      1.0000 0.81756  0.17585  0.47747  Biso   1.000  H
  H37      1.0000 0.80833  0.08096  0.55286  Biso   1.000  H
  C44      1.0000 0.71216  0.09618  0.62016  Biso   1.000  C
  H38      1.0000 0.72391  0.00146  0.59267  Biso   1.000  H
  H39      1.0000 0.61142  0.96608  0.60346  Biso   1.000  H
  H40      1.0000 0.94166  0.51226  0.63617  Biso   1.000  H
  O2       1.0000 0.83344  0.72284  0.60458  Biso   1.000  O
  C45      1.0000 0.80844  0.37948  0.67487  Biso   1.000  C
  H41      1.0000 0.68256  0.59678  0.64327  Biso   1.000  H
  C46      1.0000 0.63600  0.10274  0.63826  Biso   1.000  C
  C47      1.0000 0.76852  0.27439  0.65677  Biso   1.000  C
  C48      1.0000 0.81683  0.17861  0.62208  Biso   1.000  C
  C49      1.0000 0.74333  0.74090  0.60206  Biso   1.000  C
  H42      1.0000 0.85686  0.39891  0.67427  Biso   1.000  H
  H43      1.0000 0.75300  0.35875  0.68776  Biso   1.000  H
  H44      1.0000 0.57063  0.05837  0.63617  Biso   1.000  H
  C50      1.0000 0.84643  0.26669  0.63987  Biso   1.000  C
  O3       1.0000 0.88940  0.16654  0.60458  Biso   1.000  O
  H45      1.0000 0.72375  0.75474  0.61867  Biso   1.000  H
  H46      1.0000 0.68255  0.68568  0.59667  Biso   1.000  H
  H47      1.0000 0.76621  0.80615  0.58527  Biso   1.000  H
  H48      1.0000 0.91423  0.31746  0.64327  Biso   1.000  H
  C51      1.0000 0.99756  0.25665  0.60206  Biso   1.000  C
  H49      1.0000 0.03106  0.27625  0.61867  Biso   1.000  H
  H50      1.0000 0.00314  0.31746  0.59667  Biso   1.000  H
  H51      1.0000 0.03995  0.23374  0.58527  Biso   1.000  H
  C52      1.0000 0.46746  0.55363  0.46493  Biso   1.000  C
  C53      1.0000 0.52670  0.56496  0.43873  Biso   1.000  C
  C54      1.0000 0.36073  0.45080  0.46894  Biso   1.000  C
  C55      1.0000 0.50656  0.64010  0.48433  Biso   1.000  C
  C56      1.0000 0.62079  0.66115  0.43214  Biso   1.000  C
  H52      1.0000 0.49139  0.50626  0.42472  Biso   1.000  H
  N4       1.0000 0.31218  0.44781  0.49813  Biso   1.000  N
  H53      1.0000 0.29637  0.43105  0.45073  Biso   1.000  H
  H54      1.0000 0.37174  0.38911  0.46823  Biso   1.000  H
  C57      1.0000 0.60226  0.73474  0.47814  Biso   1.000  C
  H55      1.0000 0.45510  0.62706  0.50403  Biso   1.000  H
  C58      1.0000 0.67438  0.67677  0.40152  Biso   1.000  C
  C59      1.0000 0.65865  0.74486  0.45213  Biso   1.000  C
  C60      1.0000 0.19632  0.36417  0.49864  Biso   1.000  C
  H56      1.0000 0.33765  0.41672  0.51254  Biso   1.000  H
  C61      1.0000 0.63589  0.83214  0.49864  Biso   1.000  C
  C62      1.0000 0.61600  0.71215  0.37984  Biso   1.000  C
  H57      1.0000 0.64536  0.61144  0.39654  Biso   1.000  H
  H58      1.0000 0.72242  0.72389  0.40733  Biso   1.000  H
  H59      1.0000 0.72734  0.80834  0.44714  Biso   1.000  H
  C63      1.0000 0.13249  0.39777  0.47814  Biso   1.000  C
  H60      1.0000 0.18683  0.29163  0.49323  Biso   1.000  H
  H61      1.0000 0.17588  0.35834  0.52253  Biso   1.000  H
  N5       1.0000 0.55215  0.86437  0.49813  Biso   1.000  N
  H62      1.0000 0.70837  0.89521  0.49323  Biso   1.000  H
  H63      1.0000 0.64171  0.81757  0.52253  Biso   1.000  H
  C64      1.0000 0.53328  0.63605  0.36174  Biso   1.000  C
  C65      1.0000 0.63826  0.81684  0.37792  Biso   1.000  C
  C66      1.0000 0.08618  0.34134  0.45213  Biso   1.000  C
  C67      1.0000 0.13357  0.49347  0.48433  Biso   1.000  C
  C68      1.0000 0.54914  0.90995  0.46894  Biso   1.000  C
  H64      1.0000 0.58325  0.92096  0.51254  Biso   1.000  H
  C69      1.0000 0.47139  0.66301  0.34352  Biso   1.000  C
  H65      1.0000 0.51228  0.57063  0.36383  Biso   1.000  H
  C70      1.0000 0.57981  0.84647  0.36013  Biso   1.000  C
  O4       1.0000 0.72288  0.88946  0.39542  Biso   1.000  O
  C71      1.0000 0.04034  0.37923  0.43214  Biso   1.000  C
  H66      1.0000 0.08098  0.27260  0.44714  Biso   1.000  H
  C72      1.0000 0.08612  0.53250  0.46493  Biso   1.000  C
  H67      1.0000 0.17201  0.54496  0.50403  Biso   1.000  H
  C73      1.0000 0.44640  0.91383  0.46493  Biso   1.000  C
  H68      1.0000 0.56897  0.86534  0.45073  Biso   1.000  H
  H69      1.0000 0.61088  0.98265  0.46823  Biso   1.000  H
  C74      1.0000 0.37947  0.57104  0.32513  Biso   1.000  C
  C75      1.0000 0.49412  0.76850  0.34323  Biso   1.000  C
  H70      1.0000 0.59679  0.91424  0.35673  Biso   1.000  H
  C76      1.0000 0.74089  0.99755  0.39794  Biso   1.000  C
  C77      1.0000 0.00239  0.32563  0.40152  Biso   1.000  C
  C78      1.0000 0.03823  0.47331  0.43873  Biso   1.000  C
  C79      1.0000 0.09004  0.63921  0.46894  Biso   1.000  C
  C80      1.0000 0.43510  0.96176  0.43873  Biso   1.000  C
  C81      1.0000 0.35989  0.86647  0.48433  Biso   1.000  C
  C82      1.0000 0.27439  0.50586  0.34323  Biso   1.000  C
  H71      1.0000 0.39885  0.54205  0.32573  Biso   1.000  H
  H72      1.0000 0.35877  0.60577  0.31224  Biso   1.000  H
  C83      1.0000 0.42896  0.80842  0.32513  Biso   1.000  C
  H73      1.0000 0.75477  0.03107  0.38133  Biso   1.000  H
  H74      1.0000 0.68569  0.00314  0.40333  Biso   1.000  H
  H75      1.0000 0.80616  0.03989  0.41473  Biso   1.000  H
  C84      1.0000 0.09616  0.38401  0.37984  Biso   1.000  C
  H76      1.0000 0.00148  0.27754  0.40733  Biso   1.000  H
  H77      1.0000 0.96605  0.35462  0.39654  Biso   1.000  H
  H78      1.0000 0.01486  0.50861  0.42472  Biso   1.000  H
  N6       1.0000 0.13569  0.68787  0.49813  Biso   1.000  N
  H79      1.0000 0.13468  0.70365  0.45073  Biso   1.000  H
  H80      1.0000 0.01737  0.62820  0.46823  Biso   1.000  H
  C85      1.0000 0.33890  0.95966  0.43214  Biso   1.000  C
  H81      1.0000 0.49377  0.98516  0.42472  Biso   1.000  H
  C86      1.0000 0.26527  0.86752  0.47814  Biso   1.000  C
  H82      1.0000 0.37299  0.82801  0.50403  Biso   1.000  H
  C87      1.0000 0.19166  0.52861  0.34352  Biso   1.000  C
  C88      1.0000 0.26668  0.42020  0.36013  Biso   1.000  C
  C89      1.0000 0.33700  0.80834  0.34352  Biso   1.000  C
  H83      1.0000 0.45794  0.85684  0.32573  Biso   1.000  H
  H84      1.0000 0.39426  0.75304  0.31224  Biso   1.000  H
  C90      1.0000 0.10275  0.46675  0.36174  Biso   1.000  C
  C91      1.0000 0.17856  0.36174  0.37792  Biso   1.000  C
  H85      1.0000 0.07911  0.66236  0.51254  Biso   1.000  H
  C92      1.0000 0.16788  0.80372  0.49864  Biso   1.000  C
  C93      1.0000 0.32324  0.99763  0.40152  Biso   1.000  C
  C94      1.0000 0.25519  0.91383  0.45213  Biso   1.000  C
  C95      1.0000 0.19154  0.62050  0.32513  Biso   1.000  C
  H86      1.0000 0.31743  0.40320  0.35673  Biso   1.000  H
  C96      1.0000 0.23147  0.72559  0.34323  Biso   1.000  C
  C97      1.0000 0.36399  0.89724  0.36174  Biso   1.000  C
  H87      1.0000 0.05833  0.48772  0.36383  Biso   1.000  H
  O5       1.0000 0.16655  0.27714  0.39542  Biso   1.000  O
  H88      1.0000 0.10478  0.81312  0.49323  Biso   1.000  H
  H89      1.0000 0.18243  0.82413  0.52253  Biso   1.000  H
  C98      1.0000 0.28783  0.90379  0.37984  Biso   1.000  C
  H90      1.0000 0.27608  0.99852  0.40733  Biso   1.000  H
  H91      1.0000 0.38857  0.03390  0.39654  Biso   1.000  H
  H92      1.0000 0.19166  0.91902  0.44714  Biso   1.000  H
  H93      1.0000 0.14317  0.60115  0.32573  Biso   1.000  H
  H94      1.0000 0.24699  0.64123  0.31224  Biso   1.000  H
  C99      1.0000 0.15360  0.73337  0.36013  Biso   1.000  C
  H95      1.0000 0.42936  0.94160  0.36383  Biso   1.000  H
  C100     1.0000 0.25670  0.25916  0.39794  Biso   1.000  C
  C101     1.0000 0.18320  0.82146  0.37792  Biso   1.000  C
  H96      1.0000 0.08576  0.68252  0.35673  Biso   1.000  H
  H97      1.0000 0.27624  0.24524  0.38133  Biso   1.000  H
  H98      1.0000 0.31744  0.31430  0.40333  Biso   1.000  H
  H99      1.0000 0.23378  0.19383  0.41473  Biso   1.000  H
  O6       1.0000 0.11059  0.83344  0.39542  Biso   1.000  O
  C102     1.0000 0.00243  0.74333  0.39794  Biso   1.000  C
  H100     1.0000 0.96893  0.72373  0.38133  Biso   1.000  H
  H101     1.0000 0.99685  0.68252  0.40333  Biso   1.000  H
  H102     1.0000 0.96004  0.76624  0.41473  Biso   1.000  H
  C103     1.0000 0.09563  0.14177  0.65846  Biso   1.000  C
  C104     1.0000 0.00367  0.14169  0.67687  Biso   1.000  C
  C105     1.0000 0.16080  0.10185  0.67656  Biso   1.000  C
  H103     1.0000 0.12461  0.19018  0.65906  Biso   1.000  H
  H104     1.0000 0.06093  0.08639  0.64557  Biso   1.000  H
  C106     1.0000 0.03066  0.23058  0.69506  Biso   1.000  C
  C107     1.0000 0.89814  0.05894  0.67656  Biso   1.000  C
  C108     1.0000 0.89818  0.05902  0.67656  Biso   1.000  C
  C109     1.0000 0.13806  0.99636  0.67687  Biso   1.000  C
  C110     1.0000 0.24648  0.17982  0.69346  Biso   1.000  C
  H105     1.0000 0.09604  0.27495  0.69718  Biso   1.000  H
  C111     1.0000 0.95450  0.23714  0.71316  Biso   1.000  C
  C112     1.0000 0.95454  0.23722  0.71316  Biso   1.000  C
  C113     1.0000 0.85822  0.95385  0.65846  Biso   1.000  C
  C114     1.0000 0.82023  0.06663  0.69346  Biso   1.000  C
  C115     1.0000 0.82027  0.06671  0.69346  Biso   1.000  C
  C116     1.0000 0.04615  0.90438  0.65846  Biso   1.000  C
  C117     1.0000 0.19996  0.96940  0.69506  Biso   1.000  C
  C118     1.0000 0.30494  0.15019  0.71127  Biso   1.000  C
  H106     1.0000 0.26346  0.24759  0.69007  Biso   1.000  H
  C119     1.0000 0.84987  0.15480  0.71127  Biso   1.000  C
  C120     1.0000 0.98992  0.33098  0.73487  Biso   1.000  C
  C121     1.0000 0.85834  0.86196  0.67687  Biso   1.000  C
  H107     1.0000 0.80984  0.93450  0.65906  Biso   1.000  H
  H108     1.0000 0.91367  0.97458  0.64557  Biso   1.000  H
  H109     1.0000 0.75243  0.01587  0.69007  Biso   1.000  H
  C122     1.0000 0.94106  0.83921  0.67656  Biso   1.000  C
  H110     1.0000 0.06552  0.87540  0.65906  Biso   1.000  H
  H111     1.0000 0.02540  0.93903  0.64557  Biso   1.000  H
  H112     1.0000 0.02544  0.93912  0.64557  Biso   1.000  H
  C123     1.0000 0.28267  0.04550  0.71316  Biso   1.000  C
  H113     1.0000 0.17896  0.90398  0.69718  Biso   1.000  H
  O7       1.0000 0.38956  0.22281  0.72877  Biso   1.000  O
  O8       1.0000 0.77726  0.16678  0.72877  Biso   1.000  O
  C124     1.0000 0.00557  0.29301  0.76546  Biso   1.000  C
  H114     1.0000 0.05524  0.36725  0.72986  Biso   1.000  H
  H115     1.0000 0.94275  0.33187  0.74066  Biso   1.000  H
  C125     1.0000 0.76942  0.80010  0.69506  Biso   1.000  C
  C126     1.0000 0.93336  0.75355  0.69346  Biso   1.000  C
  C127     1.0000 0.34102  0.01004  0.73487  Biso   1.000  C
  C128     1.0000 0.34106  0.01012  0.73487  Biso   1.000  C
  C129     1.0000 0.40756  0.33090  0.73126  Biso   1.000  C
  C130     1.0000 0.66910  0.07667  0.73126  Biso   1.000  C
  C131     1.0000 0.92187  0.24718  0.78546  Biso   1.000  C
  C132     1.0000 0.10177  0.29511  0.77208  Biso   1.000  C
  C133     1.0000 0.76283  0.71736  0.71316  Biso   1.000  C
  H116     1.0000 0.72501  0.82107  0.69718  Biso   1.000  H
  C134     1.0000 0.84523  0.69509  0.71127  Biso   1.000  C
  H117     1.0000 0.98415  0.73663  0.69007  Biso   1.000  H
  C135     1.0000 0.28746  0.99449  0.76546  Biso   1.000  C
  H118     1.0000 0.31204  0.94478  0.72986  Biso   1.000  H
  H119     1.0000 0.38909  0.05724  0.74066  Biso   1.000  H
  H120     1.0000 0.38913  0.05732  0.74066  Biso   1.000  H
  H121     1.0000 0.35237  0.33648  0.73667  Biso   1.000  H
  H122     1.0000 0.42140  0.36434  0.71468  Biso   1.000  H
  H123     1.0000 0.42145  0.36442  0.71468  Biso   1.000  H
  H124     1.0000 0.47288  0.37332  0.74807  Biso   1.000  H
  H125     1.0000 0.63561  0.05708  0.71468  Biso   1.000  H
  H126     1.0000 0.66352  0.01587  0.73667  Biso   1.000  H
  H127     1.0000 0.62671  0.09959  0.74807  Biso   1.000  H
  C136     1.0000 0.93195  0.20087  0.81146  Biso   1.000  C
  H128     1.0000 0.85834  0.25236  0.78047  Biso   1.000  H
  C137     1.0000 0.11307  0.24718  0.79826  Biso   1.000  C
  H129     1.0000 0.16041  0.31843  0.75807  Biso   1.000  H
  H130     1.0000 0.16045  0.31851  0.75807  Biso   1.000  H
  C138     1.0000 0.66906  0.65898  0.73487  Biso   1.000  C
  O9       1.0000 0.83322  0.61048  0.72877  Biso   1.000  O
  C139     1.0000 0.19337  0.89831  0.77208  Biso   1.000  C
  C140     1.0000 0.32528  0.07813  0.78546  Biso   1.000  C
  C141     1.0000 0.32532  0.07821  0.78546  Biso   1.000  C
  C142     1.0000 0.83456  0.13707  0.83197  Biso   1.000  C
  C143     1.0000 0.02657  0.19982  0.81767  Biso   1.000  C
  C144     1.0000 0.21581  0.24330  0.80227  Biso   1.000  C
  C145     1.0000 0.70701  0.71258  0.76546  Biso   1.000  C
  H131     1.0000 0.63272  0.68797  0.72986  Biso   1.000  H
  H132     1.0000 0.66816  0.61089  0.74066  Biso   1.000  H
  C146     1.0000 0.92338  0.59251  0.73126  Biso   1.000  C
  C147     1.0000 0.13413  0.88698  0.79826  Biso   1.000  C
  H133     1.0000 0.15806  0.83961  0.75807  Biso   1.000  H
  C148     1.0000 0.26894  0.06809  0.81146  Biso   1.000  C
  H134     1.0000 0.39401  0.14169  0.78047  Biso   1.000  H
  N7       1.0000 0.80232  0.02113  0.83146  Biso   1.000  N
  H135     1.0000 0.77145  0.14646  0.82656  Biso   1.000  H
  H136     1.0000 0.84911  0.15747  0.85586  Biso   1.000  H
  N8       1.0000 0.80236  0.02121  0.83146  Biso   1.000  N
  H137     1.0000 0.03966  0.16136  0.83736  Biso   1.000  H
  H138     1.0000 0.23565  0.19868  0.78408  Biso   1.000  H
  H139     1.0000 0.27755  0.31600  0.80158  Biso   1.000  H
  N9       1.0000 0.21879  0.19763  0.83146  Biso   1.000  N
  N10      1.0000 0.21883  0.19771  0.83146  Biso   1.000  N
  C149     1.0000 0.70490  0.80666  0.77208  Biso   1.000  C
  C150     1.0000 0.75285  0.67469  0.78546  Biso   1.000  C
  H140     1.0000 0.94292  0.57859  0.71468  Biso   1.000  H
  H141     1.0000 0.98411  0.64765  0.73667  Biso   1.000  H
  H142     1.0000 0.90045  0.52717  0.74807  Biso   1.000  H
  C151     1.0000 0.02740  0.78415  0.80227  Biso   1.000  C
  C152     1.0000 0.17323  0.97344  0.81767  Biso   1.000  C
  C153     1.0000 0.17327  0.97352  0.81767  Biso   1.000  C
  C154     1.0000 0.30256  0.16549  0.83197  Biso   1.000  C
  C155     1.0000 0.75672  0.97255  0.80227  Biso   1.000  C
  H143     1.0000 0.74575  0.99563  0.84586  Biso   1.000  H
  H144     1.0000 0.74579  0.99571  0.84586  Biso   1.000  H
  H145     1.0000 0.24993  0.25431  0.84586  Biso   1.000  H
  C156     1.0000 0.75279  0.86584  0.79826  Biso   1.000  C
  H146     1.0000 0.68153  0.84196  0.75807  Biso   1.000  H
  C157     1.0000 0.75283  0.86592  0.79826  Biso   1.000  C
  H147     1.0000 0.74765  0.60595  0.78047  Biso   1.000  H
  C158     1.0000 0.79916  0.73112  0.81146  Biso   1.000  C
  N11      1.0000 0.97885  0.78116  0.83146  Biso   1.000  N
  H148     1.0000 0.96304  0.76440  0.78408  Biso   1.000  H
  H149     1.0000 0.03841  0.72246  0.80158  Biso   1.000  H
  H150     1.0000 0.12173  0.96033  0.83736  Biso   1.000  H
  H151     1.0000 0.12177  0.96041  0.83736  Biso   1.000  H
  H152     1.0000 0.37504  0.22856  0.82656  Biso   1.000  H
  H153     1.0000 0.30834  0.15083  0.85586  Biso   1.000  H
  H154     1.0000 0.30838  0.15092  0.85586  Biso   1.000  H
  H155     1.0000 0.68404  0.96154  0.80158  Biso   1.000  H
  H156     1.0000 0.68408  0.96162  0.80158  Biso   1.000  H
  H157     1.0000 0.80135  0.03700  0.78408  Biso   1.000  H
  C159     1.0000 0.80020  0.82674  0.81767  Biso   1.000  C
  C160     1.0000 0.80024  0.82682  0.81767  Biso   1.000  C
  C161     1.0000 0.86299  0.69752  0.83197  Biso   1.000  C
  H158     1.0000 0.00433  0.75007  0.84586  Biso   1.000  H
  H159     1.0000 0.83864  0.87823  0.83736  Biso   1.000  H
  H160     1.0000 0.83868  0.87831  0.83736  Biso   1.000  H
  H161     1.0000 0.85351  0.62498  0.82656  Biso   1.000  H
  H162     1.0000 0.84255  0.69169  0.85586  Biso   1.000  H
  C162     1.0000 0.90436  0.85821  0.34154  Biso   1.000  C
  C163     1.0000 0.83919  0.89813  0.32344  Biso   1.000  C
  C164     1.0000 0.99632  0.85829  0.32313  Biso   1.000  C
  H163     1.0000 0.87538  0.80980  0.34094  Biso   1.000  H
  H164     1.0000 0.93910  0.91367  0.35443  Biso   1.000  H
  C165     1.0000 0.75355  0.82024  0.30654  Biso   1.000  C
  C166     1.0000 0.86193  0.00362  0.32313  Biso   1.000  C
  C167     1.0000 0.96933  0.76940  0.30494  Biso   1.000  C
  C168     1.0000 0.10185  0.94104  0.32344  Biso   1.000  C
  C169     1.0000 0.69510  0.84987  0.28873  Biso   1.000  C
  H165     1.0000 0.73652  0.75239  0.30993  Biso   1.000  H
  C170     1.0000 0.80003  0.03058  0.30494  Biso   1.000  C
  C171     1.0000 0.80007  0.03066  0.30494  Biso   1.000  C
  C172     1.0000 0.95384  0.09560  0.34154  Biso   1.000  C
  H166     1.0000 0.90395  0.72503  0.30282  Biso   1.000  H
  C173     1.0000 0.04549  0.76284  0.28684  Biso   1.000  C
  C174     1.0000 0.17976  0.93335  0.30654  Biso   1.000  C
  C175     1.0000 0.14177  0.04613  0.34154  Biso   1.000  C
  O10      1.0000 0.61047  0.77725  0.27123  Biso   1.000  O
  C176     1.0000 0.71736  0.95456  0.28684  Biso   1.000  C
  H167     1.0000 0.82103  0.09600  0.30282  Biso   1.000  H
  H168     1.0000 0.97459  0.06094  0.35443  Biso   1.000  H
  H169     1.0000 0.93451  0.12466  0.34094  Biso   1.000  H
  C177     1.0000 0.05897  0.16085  0.32344  Biso   1.000  C
  C178     1.0000 0.01007  0.66900  0.26513  Biso   1.000  C
  C179     1.0000 0.15016  0.84526  0.28873  Biso   1.000  C
  H170     1.0000 0.24756  0.98411  0.30993  Biso   1.000  H
  C180     1.0000 0.14165  0.13802  0.32313  Biso   1.000  C
  H171     1.0000 0.08632  0.02540  0.35443  Biso   1.000  H
  H172     1.0000 0.19019  0.06556  0.34094  Biso   1.000  H
  C181     1.0000 0.59243  0.66908  0.26874  Biso   1.000  C
  C182     1.0000 0.59247  0.66916  0.26874  Biso   1.000  C
  C183     1.0000 0.65897  0.98994  0.26513  Biso   1.000  C
  C184     1.0000 0.06663  0.24643  0.30654  Biso   1.000  C
  O11      1.0000 0.22273  0.83319  0.27123  Biso   1.000  O
  H173     1.0000 0.94475  0.63273  0.27014  Biso   1.000  H
  C185     1.0000 0.99442  0.70697  0.23454  Biso   1.000  C
  C186     1.0000 0.99446  0.70705  0.23454  Biso   1.000  C
  H174     1.0000 0.05724  0.66811  0.25934  Biso   1.000  H
  C187     1.0000 0.23061  0.19996  0.30494  Biso   1.000  C
  H175     1.0000 0.57858  0.63564  0.28532  Biso   1.000  H
  H176     1.0000 0.64762  0.66350  0.26333  Biso   1.000  H
  H177     1.0000 0.52715  0.62674  0.25193  Biso   1.000  H
  H178     1.0000 0.61090  0.94274  0.25934  Biso   1.000  H
  H179     1.0000 0.68795  0.05520  0.27014  Biso   1.000  H
  C188     1.0000 0.71257  0.00557  0.23454  Biso   1.000  C
  H180     1.0000 0.01588  0.26343  0.30993  Biso   1.000  H
  C189     1.0000 0.15480  0.30497  0.28873  Biso   1.000  C
  C190     1.0000 0.33089  0.92331  0.26874  Biso   1.000  C
  C191     1.0000 0.89826  0.70495  0.22792  Biso   1.000  C
  C192     1.0000 0.07812  0.75280  0.21454  Biso   1.000  C
  C193     1.0000 0.23716  0.28262  0.28684  Biso   1.000  C
  H181     1.0000 0.27498  0.17891  0.30282  Biso   1.000  H
  C194     1.0000 0.67471  0.92185  0.21454  Biso   1.000  C
  C195     1.0000 0.80666  0.10175  0.22792  Biso   1.000  C
  O12      1.0000 0.16677  0.38949  0.27123  Biso   1.000  O
  H182     1.0000 0.36438  0.94290  0.28532  Biso   1.000  H
  H183     1.0000 0.33647  0.98411  0.26333  Biso   1.000  H
  H184     1.0000 0.37328  0.90039  0.25193  Biso   1.000  H
  C196     1.0000 0.88692  0.75280  0.20174  Biso   1.000  C
  H185     1.0000 0.83958  0.68155  0.24193  Biso   1.000  H
  C197     1.0000 0.06804  0.79911  0.18854  Biso   1.000  C
  H186     1.0000 0.14165  0.74762  0.21953  Biso   1.000  H
  C198     1.0000 0.33093  0.34100  0.26513  Biso   1.000  C
  H187     1.0000 0.60598  0.85829  0.21953  Biso   1.000  H
  C199     1.0000 0.73110  0.93197  0.18854  Biso   1.000  C
  C200     1.0000 0.86586  0.11300  0.20174  Biso   1.000  C
  H188     1.0000 0.84197  0.16045  0.24193  Biso   1.000  H
  C201     1.0000 0.07665  0.40755  0.26874  Biso   1.000  C
  C202     1.0000 0.78422  0.75677  0.19773  Biso   1.000  C
  C203     1.0000 0.97346  0.80024  0.18233  Biso   1.000  C
  C204     1.0000 0.16543  0.86291  0.16803  Biso   1.000  C
  C205     1.0000 0.29298  0.28740  0.23454  Biso   1.000  C
  H189     1.0000 0.36727  0.31201  0.27014  Biso   1.000  H
  H190     1.0000 0.33183  0.38909  0.25934  Biso   1.000  H
  H191     1.0000 0.33187  0.38917  0.25934  Biso   1.000  H
  C206     1.0000 0.69747  0.83457  0.16803  Biso   1.000  C
  C207     1.0000 0.82676  0.02654  0.18233  Biso   1.000  C
  C208     1.0000 0.97259  0.21583  0.19773  Biso   1.000  C
  H192     1.0000 0.05707  0.42139  0.28532  Biso   1.000  H
  H193     1.0000 0.01588  0.35233  0.26333  Biso   1.000  H
  H194     1.0000 0.09954  0.47281  0.25193  Biso   1.000  H
  N12      1.0000 0.78120  0.80235  0.16854  Biso   1.000  N
  H195     1.0000 0.76434  0.80130  0.21592  Biso   1.000  H
  H196     1.0000 0.72248  0.68406  0.19842  Biso   1.000  H
  H197     1.0000 0.96033  0.83862  0.16264  Biso   1.000  H
  N13      1.0000 0.19767  0.97885  0.16854  Biso   1.000  N
  H198     1.0000 0.22854  0.85352  0.17344  Biso   1.000  H
  H199     1.0000 0.15088  0.84251  0.14414  Biso   1.000  H
  C209     1.0000 0.24714  0.32529  0.21454  Biso   1.000  C
  C210     1.0000 0.24718  0.32537  0.21454  Biso   1.000  C
  C211     1.0000 0.29509  0.19332  0.22792  Biso   1.000  C
  H200     1.0000 0.62495  0.77142  0.17344  Biso   1.000  H
  H201     1.0000 0.69165  0.84914  0.14414  Biso   1.000  H
  H202     1.0000 0.87826  0.03965  0.16264  Biso   1.000  H
  H203     1.0000 0.96158  0.27752  0.19842  Biso   1.000  H
  N14      1.0000 0.02114  0.21882  0.16854  Biso   1.000  N
  H204     1.0000 0.03695  0.23558  0.21592  Biso   1.000  H
  H205     1.0000 0.03699  0.23566  0.21592  Biso   1.000  H
  H206     1.0000 0.75010  0.74575  0.15414  Biso   1.000  H
  C212     1.0000 0.24327  0.02743  0.19773  Biso   1.000  C
  H207     1.0000 0.25424  0.00435  0.15414  Biso   1.000  H
  C213     1.0000 0.20087  0.26894  0.18854  Biso   1.000  C
  H208     1.0000 0.25234  0.39403  0.21953  Biso   1.000  H
  C214     1.0000 0.24720  0.13414  0.20174  Biso   1.000  C
  H209     1.0000 0.31846  0.15802  0.24193  Biso   1.000  H
  H210     1.0000 0.99566  0.24991  0.15414  Biso   1.000  H
  C215     1.0000 0.13704  0.30254  0.16803  Biso   1.000  C
  H211     1.0000 0.19868  0.96306  0.21592  Biso   1.000  H
  H212     1.0000 0.31595  0.03844  0.19842  Biso   1.000  H
  C216     1.0000 0.19979  0.17324  0.18233  Biso   1.000  C
  H213     1.0000 0.14648  0.37500  0.17344  Biso   1.000  H
  H214     1.0000 0.15744  0.30829  0.14414  Biso   1.000  H
  H215     1.0000 0.15748  0.30837  0.14414  Biso   1.000  H
  H216     1.0000 0.16135  0.12175  0.16264  Biso   1.000  H
  C217     1.0000 0.49877  0.52958  0.83471  Biso   1.000  C
  N15      1.0000 0.53101  0.64552  0.83520  Biso   1.000  N
  C218     1.0000 0.40138  0.46578  0.85519  Biso   1.000  C
  H217     1.0000 0.56188  0.52019  0.84009  Biso   1.000  H
  H218     1.0000 0.48422  0.50918  0.81079  Biso   1.000  H
  C219     1.0000 0.57661  0.69410  0.86441  Biso   1.000  C
  H219     1.0000 0.58758  0.67102  0.82079  Biso   1.000  H
  C220     1.0000 0.30680  0.46692  0.84900  Biso   1.000  C
  C221     1.0000 0.41146  0.41947  0.88120  Biso   1.000  C
  C222     1.0000 0.58053  0.80081  0.86839  Biso   1.000  C
  H220     1.0000 0.53202  0.62973  0.88260  Biso   1.000  H
  H221     1.0000 0.64929  0.70511  0.86510  Biso   1.000  H
  C223     1.0000 0.22025  0.41947  0.86839  Biso   1.000  C
  H222     1.0000 0.29366  0.50529  0.82930  Biso   1.000  H
  C224     1.0000 0.32780  0.37373  0.90119  Biso   1.000  C
  H223     1.0000 0.47499  0.41429  0.88620  Biso   1.000  H
  C225     1.0000 0.53313  0.83991  0.84900  Biso   1.000  C
  C226     1.0000 0.62843  0.85999  0.89460  Biso   1.000  C
  C227     1.0000 0.23160  0.37162  0.89460  Biso   1.000  C
  C228     1.0000 0.11755  0.42344  0.86441  Biso   1.000  C
  C229     1.0000 0.34341  0.33567  0.93180  Biso   1.000  C
  C230     1.0000 0.53421  0.93561  0.85519  Biso   1.000  C
  H224     1.0000 0.49469  0.78842  0.82930  Biso   1.000  H
  C231     1.0000 0.62631  0.95407  0.90119  Biso   1.000  C
  H225     1.0000 0.65179  0.82469  0.90860  Biso   1.000  H
  H226     1.0000 0.17292  0.34822  0.90860  Biso   1.000  H
  N16      1.0000 0.11454  0.46902  0.83520  Biso   1.000  N
  H227     1.0000 0.09768  0.46797  0.88260  Biso   1.000  H
  H228     1.0000 0.05582  0.35073  0.86510  Biso   1.000  H
  C232     1.0000 0.37883  0.42951  0.95349  Biso   1.000  C
  H229     1.0000 0.27808  0.29940  0.93679  Biso   1.000  H
  H230     1.0000 0.39057  0.33478  0.92599  Biso   1.000  H
  C233     1.0000 0.58047  0.99196  0.88120  Biso   1.000  C
  C234     1.0000 0.47037  0.96921  0.83471  Biso   1.000  C
  C235     1.0000 0.66426  0.00767  0.93180  Biso   1.000  C
  C236     1.0000 0.03077  0.50116  0.83471  Biso   1.000  C
  H231     1.0000 0.08344  0.41243  0.82079  Biso   1.000  H
  C237     1.0000 0.30267  0.43607  0.97159  Biso   1.000  C
  C238     1.0000 0.48349  0.51193  0.95540  Biso   1.000  C
  H232     1.0000 0.58567  0.06070  0.88620  Biso   1.000  H
  H233     1.0000 0.49078  0.97496  0.81079  Biso   1.000  H
  N17      1.0000 0.35447  0.88550  0.83520  Biso   1.000  N
  H234     1.0000 0.47982  0.04168  0.84009  Biso   1.000  H
  C239     1.0000 0.57050  0.94930  0.95349  Biso   1.000  C
  H235     1.0000 0.70060  0.97869  0.93679  Biso   1.000  H
  H236     1.0000 0.66517  0.05576  0.92599  Biso   1.000  H
  C240     1.0000 0.06439  0.59856  0.85519  Biso   1.000  C
  H237     1.0000 0.02498  0.51582  0.81079  Biso   1.000  H
  H238     1.0000 0.95828  0.43809  0.84009  Biso   1.000  H
  C241     1.0000 0.32965  0.52497  0.98980  Biso   1.000  C
  H239     1.0000 0.23729  0.39170  0.96950  Biso   1.000  H
  C242     1.0000 0.51309  0.60002  0.97319  Biso   1.000  C
  O13      1.0000 0.55606  0.49987  0.93790  Biso   1.000  O
  C243     1.0000 0.30593  0.88250  0.86441  Biso   1.000  C
  H240     1.0000 0.32900  0.91659  0.82079  Biso   1.000  H
  C244     1.0000 0.48809  0.97156  0.95540  Biso   1.000  C
  C245     1.0000 0.56394  0.86663  0.97159  Biso   1.000  C
  C246     1.0000 0.16009  0.69321  0.84900  Biso   1.000  C
  C247     1.0000 0.00805  0.58852  0.88120  Biso   1.000  C
  C248     1.0000 0.43518  0.60771  0.99009  Biso   1.000  C
  C249     1.0000 0.23769  0.52489  0.00819  Biso   1.000  C
  H241     1.0000 0.58090  0.65078  0.97660  Biso   1.000  H
  C250     1.0000 0.66422  0.58998  0.93541  Biso   1.000  C
  C251     1.0000 0.19919  0.77968  0.86839  Biso   1.000  C
  H242     1.0000 0.37032  0.90234  0.88260  Biso   1.000  H
  H243     1.0000 0.29491  0.94420  0.86510  Biso   1.000  H
  C252     1.0000 0.39997  0.91311  0.97319  Biso   1.000  C
  O14      1.0000 0.50011  0.05617  0.93790  Biso   1.000  O
  C253     1.0000 0.47499  0.80470  0.98980  Biso   1.000  C
  H244     1.0000 0.60832  0.84558  0.96950  Biso   1.000  H
  H245     1.0000 0.21160  0.70633  0.82930  Biso   1.000  H
  C254     1.0000 0.04591  0.67224  0.90119  Biso   1.000  C
  H246     1.0000 0.93932  0.52497  0.88620  Biso   1.000  H
  C255     1.0000 0.47511  0.71280  0.00819  Biso   1.000  C
  C256     1.0000 0.17253  0.56480  0.99009  Biso   1.000  C
  H247     1.0000 0.20872  0.47647  0.00759  Biso   1.000  H
  H248     1.0000 0.27239  0.58026  0.02111  Biso   1.000  H
  H249     1.0000 0.69772  0.60957  0.95200  Biso   1.000  H
  H250     1.0000 0.66980  0.65078  0.93000  Biso   1.000  H
  H251     1.0000 0.70662  0.56707  0.91860  Biso   1.000  H
  C257     1.0000 0.14000  0.76842  0.89460  Biso   1.000  C
  C258     1.0000 0.39231  0.82753  0.99009  Biso   1.000  C
  H252     1.0000 0.34922  0.93011  0.97660  Biso   1.000  H
  C259     1.0000 0.40999  0.07422  0.93541  Biso   1.000  C
  C260     1.0000 0.99231  0.65661  0.93180  Biso   1.000  C
  H253     1.0000 0.52353  0.73223  0.00759  Biso   1.000  H
  H254     1.0000 0.41966  0.69208  0.02111  Biso   1.000  H
  C261     1.0000 0.19527  0.67030  0.98980  Biso   1.000  C
  C262     1.0000 0.08689  0.48691  0.97319  Biso   1.000  C
  H255     1.0000 0.17531  0.82712  0.90860  Biso   1.000  H
  C263     1.0000 0.28718  0.76227  0.00819  Biso   1.000  C
  H256     1.0000 0.39041  0.08807  0.95200  Biso   1.000  H
  H257     1.0000 0.34922  0.01901  0.93000  Biso   1.000  H
  H258     1.0000 0.43287  0.13948  0.91860  Biso   1.000  H
  C264     1.0000 0.05069  0.62123  0.95349  Biso   1.000  C
  H259     1.0000 0.02129  0.72187  0.93679  Biso   1.000  H
  H260     1.0000 0.94424  0.60941  0.92599  Biso   1.000  H
  C265     1.0000 0.13341  0.69734  0.97159  Biso   1.000  C
  C266     1.0000 0.02839  0.51647  0.95540  Biso   1.000  C
  H261     1.0000 0.06986  0.41907  0.97660  Biso   1.000  H
  H262     1.0000 0.26785  0.79134  0.00759  Biso   1.000  H
  H263     1.0000 0.30793  0.72762  0.02111  Biso   1.000  H
  H264     1.0000 0.15437  0.76268  0.96950  Biso   1.000  H
  O15      1.0000 0.94381  0.44392  0.93790  Biso   1.000  O
  C267     1.0000 0.92581  0.33584  0.93541  Biso   1.000  C
  H265     1.0000 0.91192  0.30232  0.95200  Biso   1.000  H
  H266     1.0000 0.98096  0.33017  0.93000  Biso   1.000  H
  H267     1.0000 0.86049  0.29341  0.91860  Biso   1.000  H
  C268     1.0000 0.50122  0.47040  0.16529  Biso   1.000  C
  N18      1.0000 0.46902  0.35454  0.16480  Biso   1.000  N
  C269     1.0000 0.59861  0.53420  0.14481  Biso   1.000  C
  H268     1.0000 0.43811  0.47979  0.15991  Biso   1.000  H
  H269     1.0000 0.51577  0.49080  0.18921  Biso   1.000  H
  C270     1.0000 0.42338  0.30588  0.13559  Biso   1.000  C
  H270     1.0000 0.41245  0.32904  0.17921  Biso   1.000  H
  C271     1.0000 0.69319  0.53306  0.15100  Biso   1.000  C
  C272     1.0000 0.58853  0.58051  0.11880  Biso   1.000  C
  C273     1.0000 0.41946  0.19917  0.13161  Biso   1.000  C
  H271     1.0000 0.46801  0.37033  0.11740  Biso   1.000  H
  H272     1.0000 0.35070  0.29487  0.13490  Biso   1.000  H
  C274     1.0000 0.77974  0.58051  0.13161  Biso   1.000  C
  H273     1.0000 0.70633  0.49469  0.17070  Biso   1.000  H
  C275     1.0000 0.67223  0.62633  0.09881  Biso   1.000  C
  H274     1.0000 0.52500  0.58569  0.11380  Biso   1.000  H
  C276     1.0000 0.46686  0.16006  0.15100  Biso   1.000  C
  C277     1.0000 0.37156  0.13999  0.10540  Biso   1.000  C
  C278     1.0000 0.76843  0.62844  0.10540  Biso   1.000  C
  C279     1.0000 0.88248  0.57662  0.13559  Biso   1.000  C
  C280     1.0000 0.65658  0.66431  0.06820  Biso   1.000  C
  C281     1.0000 0.46578  0.06437  0.14481  Biso   1.000  C
  H275     1.0000 0.50534  0.21164  0.17070  Biso   1.000  H
  C282     1.0000 0.37368  0.04591  0.09881  Biso   1.000  C
  H276     1.0000 0.34820  0.17529  0.09140  Biso   1.000  H
  H277     1.0000 0.82711  0.65184  0.09140  Biso   1.000  H
  N19      1.0000 0.88549  0.53104  0.16480  Biso   1.000  N
  H278     1.0000 0.90231  0.53201  0.11740  Biso   1.000  H
  H279     1.0000 0.94421  0.64933  0.13490  Biso   1.000  H
  C283     1.0000 0.62116  0.57047  0.04651  Biso   1.000  C
  H280     1.0000 0.72191  0.70058  0.06321  Biso   1.000  H
  H281     1.0000 0.60942  0.66520  0.07401  Biso   1.000  H
  C284     1.0000 0.41952  0.00802  0.11880  Biso   1.000  C
  C285     1.0000 0.52962  0.03077  0.16529  Biso   1.000  C
  C286     1.0000 0.33573  0.99231  0.06820  Biso   1.000  C
  C287     1.0000 0.96922  0.49882  0.16529  Biso   1.000  C
  H282     1.0000 0.91659  0.58763  0.17921  Biso   1.000  H
  C288     1.0000 0.69732  0.56391  0.02841  Biso   1.000  C
  C289     1.0000 0.51654  0.48813  0.04460  Biso   1.000  C
  H283     1.0000 0.41432  0.93928  0.11380  Biso   1.000  H
  H284     1.0000 0.50921  0.02502  0.18921  Biso   1.000  H
  N20      1.0000 0.64552  0.11448  0.16480  Biso   1.000  N
  H285     1.0000 0.52017  0.95830  0.15991  Biso   1.000  H
  C290     1.0000 0.42949  0.05068  0.04651  Biso   1.000  C
  H286     1.0000 0.29939  0.02129  0.06321  Biso   1.000  H
  H287     1.0000 0.33482  0.94422  0.07401  Biso   1.000  H
  C291     1.0000 0.93560  0.40142  0.14481  Biso   1.000  C
  H288     1.0000 0.97501  0.48416  0.18921  Biso   1.000  H
  H289     1.0000 0.04171  0.56189  0.15991  Biso   1.000  H
  C292     1.0000 0.67033  0.47501  0.01020  Biso   1.000  C
  H290     1.0000 0.76270  0.60828  0.03050  Biso   1.000  H
  C293     1.0000 0.48694  0.40004  0.02681  Biso   1.000  C
  O16      1.0000 0.44393  0.50011  0.06210  Biso   1.000  O
  C294     1.0000 0.69406  0.11748  0.13559  Biso   1.000  C
  H291     1.0000 0.67099  0.08339  0.17921  Biso   1.000  H
  C295     1.0000 0.51190  0.02842  0.04460  Biso   1.000  C
  C296     1.0000 0.43609  0.13343  0.02841  Biso   1.000  C
  C297     1.0000 0.83989  0.30677  0.15100  Biso   1.000  C
  C298     1.0000 0.99198  0.41154  0.11880  Biso   1.000  C
  C299     1.0000 0.56481  0.39227  0.00991  Biso   1.000  C
  C300     1.0000 0.76230  0.47509  0.99181  Biso   1.000  C
  H292     1.0000 0.41909  0.34920  0.02340  Biso   1.000  H
  C301     1.0000 0.33577  0.41000  0.06459  Biso   1.000  C
  C302     1.0000 0.80080  0.22030  0.13161  Biso   1.000  C
  H293     1.0000 0.62971  0.09772  0.11740  Biso   1.000  H
  H294     1.0000 0.70508  0.05578  0.13490  Biso   1.000  H
  C303     1.0000 0.60002  0.08687  0.02681  Biso   1.000  C
  O17      1.0000 0.49988  0.94381  0.06210  Biso   1.000  O
  C304     1.0000 0.52500  0.19528  0.01020  Biso   1.000  C
  H295     1.0000 0.39167  0.15440  0.03050  Biso   1.000  H
  H296     1.0000 0.78843  0.29374  0.17070  Biso   1.000  H
  C305     1.0000 0.95412  0.32782  0.09881  Biso   1.000  C
  H297     1.0000 0.06067  0.47501  0.11380  Biso   1.000  H
  C306     1.0000 0.52488  0.28718  0.99181  Biso   1.000  C
  C307     1.0000 0.82746  0.43518  0.00991  Biso   1.000  C
  H298     1.0000 0.79127  0.52351  0.99241  Biso   1.000  H
  H299     1.0000 0.72760  0.41971  0.97889  Biso   1.000  H
  H300     1.0000 0.30227  0.39041  0.04800  Biso   1.000  H
  H301     1.0000 0.33019  0.34920  0.07000  Biso   1.000  H
  H302     1.0000 0.29337  0.43291  0.08140  Biso   1.000  H
  C308     1.0000 0.86003  0.23164  0.10540  Biso   1.000  C
  C309     1.0000 0.60772  0.17253  0.00991  Biso   1.000  C
  H303     1.0000 0.65077  0.06987  0.02340  Biso   1.000  H
  C310     1.0000 0.59004  0.92584  0.06459  Biso   1.000  C
  C311     1.0000 0.00768  0.34337  0.06820  Biso   1.000  C
  H304     1.0000 0.47650  0.26783  0.99241  Biso   1.000  H
  H305     1.0000 0.58033  0.30790  0.97889  Biso   1.000  H
  C312     1.0000 0.80472  0.32968  0.01020  Biso   1.000  C
  C313     1.0000 0.91310  0.51307  0.02681  Biso   1.000  C
  H306     1.0000 0.82472  0.17294  0.09140  Biso   1.000  H
  C314     1.0000 0.71281  0.23771  0.99181  Biso   1.000  C
  H307     1.0000 0.60958  0.91191  0.04800  Biso   1.000  H
  H308     1.0000 0.65077  0.98097  0.07000  Biso   1.000  H
  H309     1.0000 0.56712  0.86050  0.08140  Biso   1.000  H
  C315     1.0000 0.94934  0.37883  0.04651  Biso   1.000  C
  H310     1.0000 0.97870  0.27811  0.06321  Biso   1.000  H
  H311     1.0000 0.05575  0.39057  0.07401  Biso   1.000  H
  C316     1.0000 0.86662  0.30272  0.02841  Biso   1.000  C
  C317     1.0000 0.97160  0.48351  0.04460  Biso   1.000  C
  H312     1.0000 0.93013  0.58091  0.02340  Biso   1.000  H
  H313     1.0000 0.73218  0.20872  0.99241  Biso   1.000  H
  H314     1.0000 0.69206  0.27236  0.97889  Biso   1.000  H
  H315     1.0000 0.84562  0.23730  0.03050  Biso   1.000  H
  O18      1.0000 0.05622  0.55614  0.06210  Biso   1.000  O
  C318     1.0000 0.07422  0.66422  0.06459  Biso   1.000  C
  H316     1.0000 0.08807  0.69766  0.04800  Biso   1.000  H
  H317     1.0000 0.01903  0.66981  0.07000  Biso   1.000  H
  H318     1.0000 0.13950  0.70657  0.08140  Biso   1.000  H
  Ne1      1.0000 0.66667  0.33334  0.08338  Biso   1.000  Ne
  He1      1.0000 0.66670  0.33334  0.17312  Biso   1.000  He
  He2      1.0000 0.41915  0.25444  0.06072  Biso   1.000  He
  He3      1.0000 0.69775  0.12272  0.07275  Biso   1.000  He
  He4      1.0000 0.87796  0.58169  0.07089  Biso   1.000  He
  Ar1      1.0000 0.66664  0.33332  0.08185  Biso   1.000  Ar
  Ne2      1.0000 0.33334  0.66667  0.41671  Biso   1.000  Ne
  He5      1.0000 0.33336  0.66667  0.50645  Biso   1.000  He
  He6      1.0000 0.08581  0.58777  0.39404  Biso   1.000  He
  He7      1.0000 0.36442  0.45605  0.40608  Biso   1.000  He
  He8      1.0000 0.54465  0.91509  0.40421  Biso   1.000  He
  Ar2      1.0000 0.33368  0.66698  0.41515  Biso   1.000  Ar
  Ne3      1.0000 0.99520  0.99717  0.25014  Biso   1.000  Ne
  He9      1.0000 0.91942  0.17161  0.27322  Biso   1.000  He
  He10     1.0000 0.24418  0.03333  0.26130  Biso   1.000  He
  He11     1.0000 0.81418  0.72600  0.27591  Biso   1.000  He
  He12     1.0000 0.99999  1.00000  0.16109  Biso   1.000  He
  Ar3      1.0000 0.00001  0.99999  0.25148  Biso   1.000  Ar
  Ne4      1.0000 0.66667  0.33333  0.58329  Biso   1.000  Ne
  He13     1.0000 0.58607  0.50492  0.60656  Biso   1.000  He
  He14     1.0000 0.91085  0.36665  0.59462  Biso   1.000  He
  He15     1.0000 0.48086  0.05934  0.60925  Biso   1.000  He
  He16     1.0000 0.66666  0.33334  0.49442  Biso   1.000  He
  Ar4      1.0000 0.66658  0.33327  0.58480  Biso   1.000  Ar
  Ne5      1.0000 0.00202  0.00577  0.75344  Biso   1.000  Ne
  He17     1.0000 0.00003  0.00001  0.83977  Biso   1.000  He
  He18     1.0000 0.21132  0.24844  0.73753  Biso   1.000  He
  He19     1.0000 0.75247  0.92107  0.72738  Biso   1.000  He
  He20     1.0000 0.03112  0.78942  0.73940  Biso   1.000  He
  Ar5      1.0000 0.00132  0.00073  0.74867  Biso   1.000  Ar
  Ne6      1.0000 0.33333  0.66667  0.91662  Biso   1.000  Ne
  He21     1.0000 0.29178  0.87854  0.93047  Biso   1.000  He
  He22     1.0000 0.57487  0.74351  0.93850  Biso   1.000  He
  He23     1.0000 0.16656  0.42197  0.93892  Biso   1.000  He
  He24     1.0000 0.33332  0.66667  0.82775  Biso   1.000  He
  Ar6      1.0000 0.33331  0.66685  0.91849  Biso   1.000  Ar
