data_image0
_cell_length_a       14.301
_cell_length_b       14.301
_cell_length_c       44.65
_cell_angle_alpha    90
_cell_angle_beta     90
_cell_angle_gamma    120

_symmetry_space_group_name_H-M    "P 1"
_symmetry_int_tables_number       1

loop_
  _symmetry_equiv_pos_as_xyz
  'x, y, z'

loop_
  _atom_site_label
  _atom_site_occupancy
  _atom_site_fract_x
  _atom_site_fract_y
  _atom_site_fract_z
  _atom_site_thermal_displace_type
  _atom_site_B_iso_or_equiv
  _atom_site_type_symbol
  C1       1.0000 0.19841  0.36633  0.50029  Biso   1.000  C
  C2       1.0000 0.13269  0.39992  0.47899  Biso   1.000  C
  N1       1.0000 0.31176  0.44828  0.49859  Biso   1.000  N
  H1       1.0000 0.18996  0.31587  0.49660  Biso   1.000  H
  C3       1.0000 0.08598  0.34090  0.45281  Biso   1.000  C
  C4       1.0000 0.13828  0.49697  0.48479  Biso   1.000  C
  C5       1.0000 0.35683  0.45200  0.46909  Biso   1.000  C
  H2       1.0000 0.33811  0.43149  0.51030  Biso   1.000  H
  C6       1.0000 0.04089  0.38022  0.43241  Biso   1.000  C
  H3       1.0000 0.08560  0.26629  0.44869  Biso   1.000  H
  C7       1.0000 0.08883  0.53274  0.46551  Biso   1.000  C
  H4       1.0000 0.17941  0.54259  0.50459  Biso   1.000  H
  C8       1.0000 0.46725  0.55607  0.46551  Biso   1.000  C
  H5       1.0000 0.37952  0.40969  0.46609  Biso   1.000  H
  C9       1.0000 0.00201  0.32483  0.40170  Biso   1.000  C
  C10      1.0000 0.04137  0.47461  0.43910  Biso   1.000  C
  C11      1.0000 0.09518  0.64320  0.46909  Biso   1.000  C
  C12      1.0000 0.52542  0.56681  0.43910  Biso   1.000  C
  C13      1.0000 0.50303  0.64134  0.48479  Biso   1.000  C
  C14      1.0000 0.09533  0.38393  0.37980  Biso   1.000  C
  H6       1.0000 0.98170  0.24142  0.40340  Biso   1.000  H
  H7       1.0000 0.93209  0.32862  0.39429  Biso   1.000  H
  H8       1.0000 0.00459  0.50480  0.42370  Biso   1.000  H
  N2       1.0000 0.13648  0.68817  0.49859  Biso   1.000  N
  H9       1.0000 0.03020  0.62051  0.46609  Biso   1.000  H
  C15      1.0000 0.61978  0.66072  0.43241  Biso   1.000  C
  H10      1.0000 0.49520  0.49980  0.42370  Biso   1.000  H
  C16      1.0000 0.60010  0.73282  0.47899  Biso   1.000  C
  H11      1.0000 0.45742  0.63682  0.50459  Biso   1.000  H
  C17      1.0000 0.10508  0.46693  0.36159  Biso   1.000  C
  C18      1.0000 0.18079  0.36423  0.37821  Biso   1.000  C
  C19      1.0000 0.16789  0.80161  0.50029  Biso   1.000  C
  H12      1.0000 0.09343  0.66193  0.51030  Biso   1.000  H
  C20      1.0000 0.67521  0.67719  0.40170  Biso   1.000  C
  C21      1.0000 0.65910  0.74509  0.45281  Biso   1.000  C
  C22      1.0000 0.63374  0.83213  0.50029  Biso   1.000  C
  C23      1.0000 0.19389  0.53169  0.34340  Biso   1.000  C
  H13      1.0000 0.03920  0.48341  0.36179  Biso   1.000  H
  C24      1.0000 0.26691  0.42333  0.36090  Biso   1.000  C
  O1       1.0000 0.16649  0.27759  0.39561  Biso   1.000  O
  C25      1.0000 0.26725  0.86734  0.47899  Biso   1.000  C
  H14      1.0000 0.12593  0.81001  0.49660  Biso   1.000  H
  C26      1.0000 0.61611  0.71142  0.37980  Biso   1.000  C
  H15      1.0000 0.75860  0.74033  0.40340  Biso   1.000  H
  H16      1.0000 0.67136  0.60347  0.39429  Biso   1.000  H
  H17      1.0000 0.73368  0.81930  0.44869  Biso   1.000  H
  N3       1.0000 0.55165  0.86346  0.49859  Biso   1.000  N
  H18      1.0000 0.68411  0.87412  0.49660  Biso   1.000  H
  C27      1.0000 0.27682  0.50819  0.34390  Biso   1.000  C
  C28      1.0000 0.19593  0.62220  0.32551  Biso   1.000  C
  H19      1.0000 0.33039  0.40331  0.36009  Biso   1.000  H
  C29      1.0000 0.25560  0.25918  0.39919  Biso   1.000  C
  C30      1.0000 0.25492  0.91401  0.45281  Biso   1.000  C
  C31      1.0000 0.35868  0.86169  0.48479  Biso   1.000  C
  C32      1.0000 0.53307  0.63819  0.36159  Biso   1.000  C
  C33      1.0000 0.63578  0.81663  0.37821  Biso   1.000  C
  C34      1.0000 0.54799  0.90480  0.46909  Biso   1.000  C
  H20      1.0000 0.56846  0.90658  0.51030  Biso   1.000  H
  C35      1.0000 0.37781  0.57368  0.32551  Biso   1.000  C
  C36      1.0000 0.23141  0.72321  0.34390  Biso   1.000  C
  H21      1.0000 0.25241  0.64118  0.30730  Biso   1.000  H
  H22      1.0000 0.11650  0.59661  0.31651  Biso   1.000  H
  H23      1.0000 0.21691  0.19104  0.41411  Biso   1.000  H
  H24      1.0000 0.28080  0.23561  0.37910  Biso   1.000  H
  H25      1.0000 0.32530  0.32418  0.40999  Biso   1.000  H
  C37      1.0000 0.33926  0.95906  0.43241  Biso   1.000  C
  H26      1.0000 0.18072  0.91441  0.44869  Biso   1.000  H
  C38      1.0000 0.44391  0.91118  0.46551  Biso   1.000  C
  H27      1.0000 0.36316  0.82059  0.50459  Biso   1.000  H
  C39      1.0000 0.46828  0.66217  0.34340  Biso   1.000  C
  H28      1.0000 0.51664  0.55583  0.36179  Biso   1.000  H
  C40      1.0000 0.57668  0.84360  0.36090  Biso   1.000  C
  O2       1.0000 0.72240  0.88890  0.39561  Biso   1.000  O
  H29      1.0000 0.59028  0.96980  0.46609  Biso   1.000  H
  H30      1.0000 0.35882  0.61122  0.30730  Biso   1.000  H
  H31      1.0000 0.40337  0.51990  0.31651  Biso   1.000  H
  C41      1.0000 0.33783  0.80613  0.34340  Biso   1.000  C
  C42      1.0000 0.15641  0.73306  0.36090  Biso   1.000  C
  C43      1.0000 0.32278  0.99798  0.40170  Biso   1.000  C
  C44      1.0000 0.43321  0.95858  0.43910  Biso   1.000  C
  C45      1.0000 0.49177  0.76859  0.34390  Biso   1.000  C
  H32      1.0000 0.59668  0.92709  0.36009  Biso   1.000  H
  C46      1.0000 0.74075  0.99636  0.39919  Biso   1.000  C
  C47      1.0000 0.42632  0.80412  0.32551  Biso   1.000  C
  C48      1.0000 0.36178  0.89487  0.36159  Biso   1.000  C
  C49      1.0000 0.18340  0.81921  0.37821  Biso   1.000  C
  H33      1.0000 0.07293  0.66960  0.36009  Biso   1.000  H
  C50      1.0000 0.28860  0.90472  0.37980  Biso   1.000  C
  H34      1.0000 0.25974  0.01833  0.40340  Biso   1.000  H
  H35      1.0000 0.39648  0.06790  0.39429  Biso   1.000  H
  H36      1.0000 0.50021  0.99540  0.42370  Biso   1.000  H
  H37      1.0000 0.80902  0.02592  0.41411  Biso   1.000  H
  H38      1.0000 0.76441  0.04521  0.37910  Biso   1.000  H
  H39      1.0000 0.67580  0.00113  0.40999  Biso   1.000  H
  H40      1.0000 0.38883  0.74760  0.30730  Biso   1.000  H
  H41      1.0000 0.48006  0.88349  0.31651  Biso   1.000  H
  H42      1.0000 0.44420  0.96084  0.36179  Biso   1.000  H
  O3       1.0000 0.11111  0.83351  0.39561  Biso   1.000  O
  C51      1.0000 0.00361  0.74437  0.39919  Biso   1.000  C
  H43      1.0000 0.97411  0.78312  0.41411  Biso   1.000  H
  H44      1.0000 0.95479  0.71917  0.37910  Biso   1.000  H
  H45      1.0000 0.99890  0.67469  0.40999  Biso   1.000  H
  C52      1.0000 0.36629  0.16786  0.49971  Biso   1.000  C
  N4       1.0000 0.44831  0.13654  0.50141  Biso   1.000  N
  C53      1.0000 0.39986  0.26718  0.52101  Biso   1.000  C
  H46      1.0000 0.31586  0.12588  0.50340  Biso   1.000  H
  C54      1.0000 0.45198  0.09520  0.53091  Biso   1.000  C
  H47      1.0000 0.43151  0.09342  0.48970  Biso   1.000  H
  C55      1.0000 0.34093  0.25490  0.54719  Biso   1.000  C
  C56      1.0000 0.49704  0.35874  0.51521  Biso   1.000  C
  C57      1.0000 0.55612  0.08882  0.53449  Biso   1.000  C
  H48      1.0000 0.40969  0.03020  0.53391  Biso   1.000  H
  H49      1.0000 0.26628  0.18070  0.55131  Biso   1.000  H
  C58      1.0000 0.38019  0.33928  0.56759  Biso   1.000  C
  C59      1.0000 0.53271  0.44392  0.53449  Biso   1.000  C
  H50      1.0000 0.54261  0.36318  0.49541  Biso   1.000  H
  C60      1.0000 0.56683  0.04142  0.56090  Biso   1.000  C
  C61      1.0000 0.64128  0.13831  0.51521  Biso   1.000  C
  C62      1.0000 0.47462  0.43318  0.56090  Biso   1.000  C
  C63      1.0000 0.32482  0.32281  0.59830  Biso   1.000  C
  C64      1.0000 0.64321  0.54800  0.53091  Biso   1.000  C
  H51      1.0000 0.49982  0.00460  0.57630  Biso   1.000  H
  C65      1.0000 0.66070  0.04094  0.56759  Biso   1.000  C
  C66      1.0000 0.73279  0.13266  0.52101  Biso   1.000  C
  H52      1.0000 0.63680  0.17941  0.49541  Biso   1.000  H
  H53      1.0000 0.50477  0.50020  0.57630  Biso   1.000  H
  C67      1.0000 0.38392  0.28857  0.62020  Biso   1.000  C
  H54      1.0000 0.24136  0.25967  0.59660  Biso   1.000  H
  H55      1.0000 0.32860  0.39653  0.60571  Biso   1.000  H
  N5       1.0000 0.68821  0.55171  0.50141  Biso   1.000  N
  H56      1.0000 0.62052  0.59031  0.53391  Biso   1.000  H
  C68      1.0000 0.74511  0.08599  0.54719  Biso   1.000  C
  C69      1.0000 0.67719  0.00202  0.59830  Biso   1.000  C
  C70      1.0000 0.83208  0.19838  0.49971  Biso   1.000  C
  C71      1.0000 0.36418  0.18337  0.62179  Biso   1.000  C
  C72      1.0000 0.46690  0.36181  0.63841  Biso   1.000  C
  C73      1.0000 0.80156  0.63367  0.49971  Biso   1.000  C
  H57      1.0000 0.66192  0.56851  0.48970  Biso   1.000  H
  H58      1.0000 0.81931  0.08559  0.55131  Biso   1.000  H
  C74      1.0000 0.71137  0.09528  0.62020  Biso   1.000  C
  H59      1.0000 0.74036  0.98167  0.59660  Biso   1.000  H
  H60      1.0000 0.60356  0.93210  0.60571  Biso   1.000  H
  H61      1.0000 0.87410  0.18999  0.50340  Biso   1.000  H
  N6       1.0000 0.86349  0.31183  0.50141  Biso   1.000  N
  C75      1.0000 0.42328  0.15640  0.63910  Biso   1.000  C
  O4       1.0000 0.27763  0.11110  0.60439  Biso   1.000  O
  C76      1.0000 0.53169  0.33783  0.65660  Biso   1.000  C
  H62      1.0000 0.48339  0.44417  0.63821  Biso   1.000  H
  C77      1.0000 0.86727  0.60008  0.52101  Biso   1.000  C
  H63      1.0000 0.81001  0.68413  0.50340  Biso   1.000  H
  C78      1.0000 0.81656  0.18078  0.62179  Biso   1.000  C
  C79      1.0000 0.63819  0.10513  0.63841  Biso   1.000  C
  C80      1.0000 0.90478  0.35680  0.53091  Biso   1.000  C
  H64      1.0000 0.90661  0.33807  0.48970  Biso   1.000  H
  C81      1.0000 0.50819  0.23141  0.65610  Biso   1.000  C
  H65      1.0000 0.40328  0.07291  0.63991  Biso   1.000  H
  C82      1.0000 0.25921  0.00363  0.60081  Biso   1.000  C
  C83      1.0000 0.62222  0.42632  0.67449  Biso   1.000  C
  C84      1.0000 0.86168  0.50303  0.51521  Biso   1.000  C
  C85      1.0000 0.91399  0.65910  0.54719  Biso   1.000  C
  O5       1.0000 0.88892  0.16649  0.60439  Biso   1.000  O
  C86      1.0000 0.84363  0.26694  0.63910  Biso   1.000  C
  H66      1.0000 0.55577  0.03916  0.63821  Biso   1.000  H
  C87      1.0000 0.66221  0.19386  0.65660  Biso   1.000  C
  C88      1.0000 0.91124  0.46734  0.53449  Biso   1.000  C
  H67      1.0000 0.96976  0.37949  0.53391  Biso   1.000  H
  C89      1.0000 0.57371  0.19588  0.67449  Biso   1.000  C
  H68      1.0000 0.19101  0.97408  0.58589  Biso   1.000  H
  H69      1.0000 0.23563  0.95478  0.62090  Biso   1.000  H
  H70      1.0000 0.32417  0.99887  0.59001  Biso   1.000  H
  C90      1.0000 0.72321  0.49180  0.65610  Biso   1.000  C
  H71      1.0000 0.64121  0.38878  0.69270  Biso   1.000  H
  H72      1.0000 0.59660  0.48010  0.68349  Biso   1.000  H
  H73      1.0000 0.82062  0.45741  0.49541  Biso   1.000  H
  C91      1.0000 0.95908  0.61978  0.56759  Biso   1.000  C
  H74      1.0000 0.91444  0.73371  0.55131  Biso   1.000  H
  C92      1.0000 0.99643  0.25563  0.60081  Biso   1.000  C
  C93      1.0000 0.76856  0.27679  0.65610  Biso   1.000  C
  H75      1.0000 0.92710  0.33040  0.63991  Biso   1.000  H
  C94      1.0000 0.95859  0.52539  0.56090  Biso   1.000  C
  H76      1.0000 0.61120  0.25240  0.69270  Biso   1.000  H
  H77      1.0000 0.51990  0.11651  0.68349  Biso   1.000  H
  C95      1.0000 0.80607  0.46831  0.65660  Biso   1.000  C
  C96      1.0000 0.73306  0.57666  0.63910  Biso   1.000  C
  C97      1.0000 0.99796  0.67517  0.59830  Biso   1.000  C
  H78      1.0000 0.02586  0.21687  0.58589  Biso   1.000  H
  H79      1.0000 0.04524  0.28082  0.62090  Biso   1.000  H
  H80      1.0000 0.00113  0.32531  0.59001  Biso   1.000  H
  C98      1.0000 0.80410  0.37779  0.67449  Biso   1.000  C
  H81      1.0000 0.99538  0.49519  0.57630  Biso   1.000  H
  C99      1.0000 0.89488  0.53306  0.63841  Biso   1.000  C
  C100     1.0000 0.81918  0.63577  0.62179  Biso   1.000  C
  H82      1.0000 0.66958  0.59669  0.63991  Biso   1.000  H
  C101     1.0000 0.90470  0.61607  0.62020  Biso   1.000  C
  H83      1.0000 0.01826  0.75858  0.59660  Biso   1.000  H
  H84      1.0000 0.06787  0.67138  0.60571  Biso   1.000  H
  H85      1.0000 0.74762  0.35882  0.69270  Biso   1.000  H
  H86      1.0000 0.88347  0.40339  0.68349  Biso   1.000  H
  H87      1.0000 0.96076  0.51659  0.63821  Biso   1.000  H
  O6       1.0000 0.83348  0.72240  0.60439  Biso   1.000  O
  C102     1.0000 0.74444  0.74081  0.60081  Biso   1.000  C
  H88      1.0000 0.78306  0.80896  0.58589  Biso   1.000  H
  H89      1.0000 0.71916  0.76439  0.62090  Biso   1.000  H
  H90      1.0000 0.67474  0.67582  0.59001  Biso   1.000  H
  C103     1.0000 0.13741  0.04449  0.34116  Biso   1.000  C
  C104     1.0000 0.13938  0.13500  0.32327  Biso   1.000  C
  H91      1.0000 0.08089  0.02543  0.35937  Biso   1.000  H
  C105     1.0000 0.10201  0.94348  0.32278  Biso   1.000  C
  C106     1.0000 0.10187  0.94348  0.32278  Biso   1.000  C
  H92      1.0000 0.21678  0.07008  0.35017  Biso   1.000  H
  C107     1.0000 0.22826  0.19976  0.30506  Biso   1.000  C
  C108     1.0000 0.22819  0.19976  0.30506  Biso   1.000  C
  C109     1.0000 0.05652  0.15850  0.32278  Biso   1.000  C
  C110     1.0000 0.99552  0.86056  0.32327  Biso   1.000  C
  C111     1.0000 0.17697  0.93355  0.30576  Biso   1.000  C
  C112     1.0000 0.23802  0.28276  0.28688  Biso   1.000  C
  H93      1.0000 0.29408  0.18329  0.30486  Biso   1.000  H
  C113     1.0000 0.06644  0.24336  0.30576  Biso   1.000  C
  C114     1.0000 0.06637  0.24336  0.30576  Biso   1.000  C
  C115     1.0000 0.95549  0.09293  0.34116  Biso   1.000  C
  C116     1.0000 0.97160  0.77174  0.30506  Biso   1.000  C
  C117     1.0000 0.90709  0.86258  0.34116  Biso   1.000  C
  C118     1.0000 0.97146  0.77174  0.30506  Biso   1.000  C
  C119     1.0000 0.15002  0.84748  0.28847  Biso   1.000  C
  H94      1.0000 0.26042  0.99709  0.30656  Biso   1.000  H
  C120     1.0000 0.14995  0.84748  0.28847  Biso   1.000  C
  C121     1.0000 0.15256  0.30246  0.28847  Biso   1.000  C
  C122     1.0000 0.15249  0.30246  0.28847  Biso   1.000  C
  C123     1.0000 0.33127  0.34186  0.26497  Biso   1.000  C
  H95      1.0000 0.00296  0.26338  0.30656  Biso   1.000  H
  H96      1.0000 0.00289  0.26338  0.30656  Biso   1.000  H
  C124     1.0000 0.86503  0.00444  0.32327  Biso   1.000  C
  H97      1.0000 0.97452  0.05547  0.35937  Biso   1.000  H
  C125     1.0000 0.86496  0.00444  0.32327  Biso   1.000  C
  H98      1.0000 0.92991  0.14679  0.35017  Biso   1.000  H
  H99      1.0000 0.88915  0.70585  0.30486  Biso   1.000  H
  H100     1.0000 0.88908  0.70585  0.30486  Biso   1.000  H
  C126     1.0000 0.04468  0.76197  0.28688  Biso   1.000  C
  C127     1.0000 0.84165  0.89810  0.32278  Biso   1.000  C
  C128     1.0000 0.84151  0.89810  0.32278  Biso   1.000  C
  H101     1.0000 0.94458  0.91910  0.35937  Biso   1.000  H
  H102     1.0000 0.85335  0.78321  0.35017  Biso   1.000  H
  H103     1.0000 0.85328  0.78321  0.35017  Biso   1.000  H
  O7       1.0000 0.22231  0.83319  0.27106  Biso   1.000  O
  O8       1.0000 0.16686  0.38910  0.27106  Biso   1.000  O
  O9       1.0000 0.16679  0.38910  0.27106  Biso   1.000  O
  H104     1.0000 0.40126  0.33807  0.27236  Biso   1.000  H
  C129     1.0000 0.29239  0.28647  0.23427  Biso   1.000  C
  H105     1.0000 0.35158  0.42527  0.26327  Biso   1.000  H
  H106     1.0000 0.40119  0.33807  0.27236  Biso   1.000  H
  C130     1.0000 0.80021  0.02850  0.30506  Biso   1.000  C
  C131     1.0000 0.01060  0.66863  0.26497  Biso   1.000  C
  C132     1.0000 0.01046  0.66863  0.26497  Biso   1.000  C
  C133     1.0000 0.75666  0.82309  0.30576  Biso   1.000  C
  C134     1.0000 0.75659  0.82309  0.30576  Biso   1.000  C
  C135     1.0000 0.32970  0.92224  0.26746  Biso   1.000  C
  C136     1.0000 0.07775  0.40751  0.26746  Biso   1.000  C
  C137     1.0000 0.29190  0.19209  0.22757  Biso   1.000  C
  C138     1.0000 0.24730  0.32580  0.21386  Biso   1.000  C
  C139     1.0000 0.71723  0.95527  0.28688  Biso   1.000  C
  H107     1.0000 0.81671  0.11086  0.30486  Biso   1.000  H
  C140     1.0000 0.99404  0.70755  0.23427  Biso   1.000  C
  H108     1.0000 0.93687  0.59879  0.27236  Biso   1.000  H
  H109     1.0000 0.07361  0.64837  0.26327  Biso   1.000  H
  C141     1.0000 0.69763  0.85006  0.28847  Biso   1.000  C
  H110     1.0000 0.73673  0.73960  0.30656  Biso   1.000  H
  C142     1.0000 0.69756  0.85006  0.28847  Biso   1.000  C
  H111     1.0000 0.73660  0.73960  0.30656  Biso   1.000  H
  H112     1.0000 0.35931  0.88357  0.25256  Biso   1.000  H
  H113     1.0000 0.37859  0.94744  0.28757  Biso   1.000  H
  H114     1.0000 0.33444  0.99201  0.25666  Biso   1.000  H
  H115     1.0000 0.35924  0.88357  0.25256  Biso   1.000  H
  H116     1.0000 0.00801  0.34243  0.25666  Biso   1.000  H
  H117     1.0000 0.11644  0.47565  0.25256  Biso   1.000  H
  H118     1.0000 0.11637  0.47565  0.25256  Biso   1.000  H
  H119     1.0000 0.05248  0.43108  0.28757  Biso   1.000  H
  C143     1.0000 0.24452  0.13395  0.20116  Biso   1.000  C
  H120     1.0000 0.32869  0.16189  0.24296  Biso   1.000  H
  H121     1.0000 0.24775  0.40040  0.21796  Biso   1.000  H
  C144     1.0000 0.20065  0.26677  0.18766  Biso   1.000  C
  C145     1.0000 0.20058  0.26677  0.18766  Biso   1.000  C
  C146     1.0000 0.65813  0.98950  0.26497  Biso   1.000  C
  C147     1.0000 0.07843  0.75269  0.21386  Biso   1.000  C
  C148     1.0000 0.90010  0.70803  0.22757  Biso   1.000  C
  O10      1.0000 0.61102  0.77780  0.27106  Biso   1.000  O
  C149     1.0000 0.19502  0.16964  0.18186  Biso   1.000  C
  C150     1.0000 0.23810  0.02350  0.19756  Biso   1.000  C
  C151     1.0000 0.19495  0.16964  0.18186  Biso   1.000  C
  C152     1.0000 0.13494  0.30036  0.16636  Biso   1.000  C
  C153     1.0000 0.13487  0.30036  0.16636  Biso   1.000  C
  H122     1.0000 0.57482  0.92636  0.26327  Biso   1.000  H
  H123     1.0000 0.57468  0.92636  0.26327  Biso   1.000  H
  H124     1.0000 0.66195  0.06314  0.27236  Biso   1.000  H
  C154     1.0000 0.71350  0.00597  0.23427  Biso   1.000  C
  H125     1.0000 0.66188  0.06314  0.27236  Biso   1.000  H
  C155     1.0000 0.06617  0.79935  0.18766  Biso   1.000  C
  H126     1.0000 0.15262  0.75228  0.21796  Biso   1.000  H
  C156     1.0000 0.88946  0.75543  0.20116  Biso   1.000  C
  H127     1.0000 0.83320  0.67130  0.24296  Biso   1.000  H
  C157     1.0000 0.59255  0.67025  0.26746  Biso   1.000  C
  C158     1.0000 0.59248  0.67025  0.26746  Biso   1.000  C
  N7       1.0000 0.19690  0.97844  0.16806  Biso   1.000  N
  N8       1.0000 0.19683  0.97844  0.16806  Biso   1.000  N
  H128     1.0000 0.30314  0.04618  0.20056  Biso   1.000  H
  H129     1.0000 0.30307  0.04618  0.20056  Biso   1.000  H
  H130     1.0000 0.15393  0.12410  0.16206  Biso   1.000  H
  N9       1.0000 0.02155  0.21833  0.16806  Biso   1.000  N
  H131     1.0000 0.14335  0.35075  0.17006  Biso   1.000  H
  N10      1.0000 0.02152  0.21841  0.16806  Biso   1.000  N
  H132     1.0000 0.14328  0.35075  0.17006  Biso   1.000  H
  C159     1.0000 0.80793  0.09988  0.22757  Biso   1.000  C
  C160     1.0000 0.67425  0.92160  0.21386  Biso   1.000  C
  C161     1.0000 0.97467  0.80501  0.18186  Biso   1.000  C
  C162     1.0000 0.16553  0.86508  0.16636  Biso   1.000  C
  C163     1.0000 0.16539  0.86508  0.16636  Biso   1.000  C
  C164     1.0000 0.78536  0.76189  0.19756  Biso   1.000  C
  H133     1.0000 0.65755  0.66556  0.25666  Biso   1.000  H
  H134     1.0000 0.52432  0.64078  0.25256  Biso   1.000  H
  H135     1.0000 0.56894  0.62148  0.28757  Biso   1.000  H
  H136     1.0000 0.23992  0.00476  0.15637  Biso   1.000  H
  C165     1.0000 0.97652  0.21469  0.19756  Biso   1.000  C
  H137     1.0000 0.99523  0.23520  0.15637  Biso   1.000  H
  C166     1.0000 0.86598  0.11054  0.20116  Biso   1.000  C
  H138     1.0000 0.83808  0.16690  0.24296  Biso   1.000  H
  C167     1.0000 0.73325  0.93387  0.18766  Biso   1.000  C
  H139     1.0000 0.59973  0.84740  0.21796  Biso   1.000  H
  H140     1.0000 0.59959  0.84740  0.21796  Biso   1.000  H
  H141     1.0000 0.97018  0.84610  0.16206  Biso   1.000  H
  H142     1.0000 0.97011  0.84610  0.16206  Biso   1.000  H
  H143     1.0000 0.20741  0.85668  0.17006  Biso   1.000  H
  N11      1.0000 0.78172  0.80315  0.16806  Biso   1.000  N
  H144     1.0000 0.74314  0.69689  0.20056  Biso   1.000  H
  N12      1.0000 0.78158  0.80315  0.16806  Biso   1.000  N
  H145     1.0000 0.74300  0.69689  0.20056  Biso   1.000  H
  H146     1.0000 0.95383  0.25700  0.20056  Biso   1.000  H
  C168     1.0000 0.83031  0.02535  0.18186  Biso   1.000  C
  C169     1.0000 0.69967  0.83456  0.16636  Biso   1.000  C
  H147     1.0000 0.76485  0.76003  0.15637  Biso   1.000  H
  H148     1.0000 0.87593  0.02987  0.16206  Biso   1.000  H
  H149     1.0000 0.64917  0.79257  0.17006  Biso   1.000  H
  C170     1.0000 0.09298  0.13742  0.65884  Biso   1.000  C
  C171     1.0000 0.15842  0.10190  0.67722  Biso   1.000  C
  C172     1.0000 0.00448  0.13944  0.67673  Biso   1.000  C
  H150     1.0000 0.05549  0.08090  0.64063  Biso   1.000  H
  C173     1.0000 0.00441  0.13944  0.67673  Biso   1.000  C
  H151     1.0000 0.05542  0.08090  0.64063  Biso   1.000  H
  H152     1.0000 0.14676  0.21687  0.64983  Biso   1.000  H
  C174     1.0000 0.24334  0.17691  0.69424  Biso   1.000  C
  C175     1.0000 0.13497  0.99556  0.67673  Biso   1.000  C
  C176     1.0000 0.09291  0.13742  0.65884  Biso   1.000  C
  C177     1.0000 0.02847  0.22826  0.69494  Biso   1.000  C
  C178     1.0000 0.89806  0.05652  0.67722  Biso   1.000  C
  C179     1.0000 0.30244  0.14994  0.71153  Biso   1.000  C
  H153     1.0000 0.26338  0.26048  0.69344  Biso   1.000  H
  C180     1.0000 0.04458  0.90707  0.65884  Biso   1.000  C
  C181     1.0000 0.19979  0.97150  0.69494  Biso   1.000  C
  C182     1.0000 0.04444  0.90707  0.65884  Biso   1.000  C
  H154     1.0000 0.11085  0.29415  0.69514  Biso   1.000  H
  C183     1.0000 0.95525  0.23803  0.71312  Biso   1.000  C
  C184     1.0000 0.86259  0.95551  0.65884  Biso   1.000  C
  C185     1.0000 0.82303  0.06645  0.69424  Biso   1.000  C
  C186     1.0000 0.28277  0.04473  0.71312  Biso   1.000  C
  O11      1.0000 0.38898  0.22220  0.72894  Biso   1.000  O
  C187     1.0000 0.28270  0.04473  0.71312  Biso   1.000  C
  C188     1.0000 0.94355  0.84150  0.67722  Biso   1.000  C
  C189     1.0000 0.94348  0.84150  0.67722  Biso   1.000  C
  H155     1.0000 0.02548  0.94453  0.64063  Biso   1.000  H
  H156     1.0000 0.07002  0.85321  0.64983  Biso   1.000  H
  H157     1.0000 0.02541  0.94453  0.64063  Biso   1.000  H
  H158     1.0000 0.18329  0.88914  0.69514  Biso   1.000  H
  H159     1.0000 0.18322  0.88914  0.69514  Biso   1.000  H
  C190     1.0000 0.85005  0.15252  0.71153  Biso   1.000  C
  C191     1.0000 0.98947  0.33137  0.73503  Biso   1.000  C
  C192     1.0000 0.86062  0.86500  0.67673  Biso   1.000  C
  H160     1.0000 0.91911  0.97457  0.64063  Biso   1.000  H
  H161     1.0000 0.78322  0.92992  0.64983  Biso   1.000  H
  H162     1.0000 0.91904  0.97457  0.64063  Biso   1.000  H
  H163     1.0000 0.73951  0.00291  0.69344  Biso   1.000  H
  C193     1.0000 0.40745  0.32975  0.73254  Biso   1.000  C
  C194     1.0000 0.34187  0.01050  0.73503  Biso   1.000  C
  C195     1.0000 0.34180  0.01050  0.73503  Biso   1.000  C
  C196     1.0000 0.93356  0.75664  0.69424  Biso   1.000  C
  O12      1.0000 0.77769  0.16681  0.72894  Biso   1.000  O
  C197     1.0000 0.00596  0.29245  0.76573  Biso   1.000  C
  H164     1.0000 0.06313  0.40121  0.72764  Biso   1.000  H
  H165     1.0000 0.92632  0.35163  0.73673  Biso   1.000  H
  C198     1.0000 0.77181  0.80024  0.69494  Biso   1.000  C
  H166     1.0000 0.34245  0.33444  0.74334  Biso   1.000  H
  H167     1.0000 0.47568  0.35922  0.74744  Biso   1.000  H
  H168     1.0000 0.43106  0.37852  0.71243  Biso   1.000  H
  H169     1.0000 0.47561  0.35922  0.74744  Biso   1.000  H
  H170     1.0000 0.43099  0.37852  0.71243  Biso   1.000  H
  H171     1.0000 0.42525  0.07364  0.73673  Biso   1.000  H
  C199     1.0000 0.28643  0.99403  0.76573  Biso   1.000  C
  H172     1.0000 0.33812  0.93686  0.72764  Biso   1.000  H
  C200     1.0000 0.84751  0.69754  0.71153  Biso   1.000  C
  H173     1.0000 0.99704  0.73662  0.69344  Biso   1.000  H
  C201     1.0000 0.67030  0.07776  0.73254  Biso   1.000  C
  C202     1.0000 0.67023  0.07776  0.73254  Biso   1.000  C
  C203     1.0000 0.92150  0.24731  0.78614  Biso   1.000  C
  C204     1.0000 0.09990  0.29197  0.77243  Biso   1.000  C
  C205     1.0000 0.09983  0.29197  0.77243  Biso   1.000  C
  C206     1.0000 0.76205  0.71724  0.71312  Biso   1.000  C
  H174     1.0000 0.70585  0.81671  0.69514  Biso   1.000  H
  C207     1.0000 0.76191  0.71724  0.71312  Biso   1.000  C
  C208     1.0000 0.19214  0.90012  0.77243  Biso   1.000  C
  C209     1.0000 0.19207  0.90012  0.77243  Biso   1.000  C
  C210     1.0000 0.32568  0.07840  0.78614  Biso   1.000  C
  O13      1.0000 0.83321  0.61090  0.72894  Biso   1.000  O
  H175     1.0000 0.64076  0.11643  0.74744  Biso   1.000  H
  H176     1.0000 0.62148  0.05256  0.71243  Biso   1.000  H
  H177     1.0000 0.66556  0.00799  0.74334  Biso   1.000  H
  H178     1.0000 0.62141  0.05256  0.71243  Biso   1.000  H
  H179     1.0000 0.66553  0.00807  0.74334  Biso   1.000  H
  C211     1.0000 0.93383  0.20065  0.81234  Biso   1.000  C
  H180     1.0000 0.84731  0.24772  0.78204  Biso   1.000  H
  C212     1.0000 0.11061  0.24457  0.79884  Biso   1.000  C
  C213     1.0000 0.11054  0.24457  0.79884  Biso   1.000  C
  H181     1.0000 0.16680  0.32870  0.75704  Biso   1.000  H
  C214     1.0000 0.66873  0.65814  0.73503  Biso   1.000  C
  C215     1.0000 0.13402  0.88946  0.79884  Biso   1.000  C
  H182     1.0000 0.16192  0.83310  0.75704  Biso   1.000  H
  C216     1.0000 0.26675  0.06613  0.81234  Biso   1.000  C
  H183     1.0000 0.40034  0.15260  0.78204  Biso   1.000  H
  C217     1.0000 0.92229  0.59257  0.73254  Biso   1.000  C
  C218     1.0000 0.83454  0.13492  0.83364  Biso   1.000  C
  C219     1.0000 0.02537  0.19507  0.81814  Biso   1.000  C
  C220     1.0000 0.21464  0.23811  0.80244  Biso   1.000  C
  C221     1.0000 0.70754  0.71353  0.76573  Biso   1.000  C
  H184     1.0000 0.64835  0.57473  0.73673  Biso   1.000  H
  H185     1.0000 0.59874  0.66193  0.72764  Biso   1.000  H
  C222     1.0000 0.02348  0.78531  0.80244  Biso   1.000  C
  C223     1.0000 0.16962  0.97465  0.81814  Biso   1.000  C
  C224     1.0000 0.30033  0.16544  0.83364  Biso   1.000  C
  H186     1.0000 0.88356  0.52435  0.74744  Biso   1.000  H
  H187     1.0000 0.94752  0.56892  0.71243  Biso   1.000  H
  H188     1.0000 0.99192  0.65757  0.74334  Biso   1.000  H
  N13      1.0000 0.80317  0.02156  0.83194  Biso   1.000  N
  H189     1.0000 0.79252  0.14332  0.82994  Biso   1.000  H
  H190     1.0000 0.02982  0.15390  0.83794  Biso   1.000  H
  N14      1.0000 0.21835  0.19685  0.83194  Biso   1.000  N
  H191     1.0000 0.25693  0.30311  0.79944  Biso   1.000  H
  C225     1.0000 0.70810  0.80791  0.77243  Biso   1.000  C
  C226     1.0000 0.75263  0.67420  0.78614  Biso   1.000  C
  H192     1.0000 0.04617  0.74300  0.79944  Biso   1.000  H
  N15      1.0000 0.97852  0.78167  0.83194  Biso   1.000  N
  H193     1.0000 0.12407  0.97013  0.83794  Biso   1.000  H
  H194     1.0000 0.35076  0.20743  0.82994  Biso   1.000  H
  H195     1.0000 0.76008  0.99524  0.84363  Biso   1.000  H
  C227     1.0000 0.76190  0.97650  0.80244  Biso   1.000  C
  H196     1.0000 0.23515  0.23997  0.84363  Biso   1.000  H
  C228     1.0000 0.75555  0.86605  0.79884  Biso   1.000  C
  H197     1.0000 0.67131  0.83811  0.75704  Biso   1.000  H
  C229     1.0000 0.75548  0.86605  0.79884  Biso   1.000  C
  C230     1.0000 0.79935  0.73323  0.81234  Biso   1.000  C
  H198     1.0000 0.75232  0.59960  0.78204  Biso   1.000  H
  H199     1.0000 0.75225  0.59960  0.78204  Biso   1.000  H
  H200     1.0000 0.00477  0.76480  0.84363  Biso   1.000  H
  C231     1.0000 0.86506  0.69964  0.83364  Biso   1.000  C
  H201     1.0000 0.69686  0.95382  0.79944  Biso   1.000  H
  C232     1.0000 0.80505  0.83036  0.81814  Biso   1.000  C
  H202     1.0000 0.85672  0.64925  0.82994  Biso   1.000  H
  H203     1.0000 0.84614  0.87590  0.83794  Biso   1.000  H
  H204     1.0000 0.84600  0.87590  0.83794  Biso   1.000  H
  N16      1.0000 0.46986  0.35486  0.16526  Biso   1.000  N
  C233     1.0000 0.50123  0.46823  0.16697  Biso   1.000  C
  C234     1.0000 0.42856  0.30989  0.13577  Biso   1.000  C
  H205     1.0000 0.42670  0.32854  0.17698  Biso   1.000  H
  C235     1.0000 0.60052  0.53395  0.14567  Biso   1.000  C
  H206     1.0000 0.45925  0.47670  0.16327  Biso   1.000  H
  C236     1.0000 0.42210  0.19935  0.13216  Biso   1.000  C
  H207     1.0000 0.36359  0.28720  0.13277  Biso   1.000  H
  C237     1.0000 0.58823  0.58070  0.11946  Biso   1.000  C
  C238     1.0000 0.69206  0.52838  0.15147  Biso   1.000  C
  C239     1.0000 0.37475  0.14130  0.10576  Biso   1.000  C
  C240     1.0000 0.47167  0.16367  0.15147  Biso   1.000  C
  H208     1.0000 0.51403  0.58110  0.11536  Biso   1.000  H
  C241     1.0000 0.67264  0.62576  0.09906  Biso   1.000  C
  C242     1.0000 0.77723  0.57788  0.13216  Biso   1.000  C
  H209     1.0000 0.69655  0.48728  0.17127  Biso   1.000  H
  H210     1.0000 0.33797  0.17150  0.09037  Biso   1.000  H
  C243     1.0000 0.37423  0.04683  0.09906  Biso   1.000  C
  C244     1.0000 0.46603  0.06653  0.14567  Biso   1.000  C
  H211     1.0000 0.51273  0.20928  0.17127  Biso   1.000  H
  C245     1.0000 0.76652  0.62527  0.10576  Biso   1.000  C
  C246     1.0000 0.65616  0.66467  0.06838  Biso   1.000  C
  C247     1.0000 0.88137  0.57150  0.13577  Biso   1.000  C
  C248     1.0000 0.41936  0.00759  0.11946  Biso   1.000  C
  C249     1.0000 0.33535  0.99144  0.06838  Biso   1.000  C
  C250     1.0000 0.53175  0.03294  0.16697  Biso   1.000  C
  H212     1.0000 0.83353  0.66209  0.09037  Biso   1.000  H
  C251     1.0000 0.62194  0.57133  0.04647  Biso   1.000  C
  H213     1.0000 0.59301  0.68494  0.07006  Biso   1.000  H
  H214     1.0000 0.72986  0.73460  0.06096  Biso   1.000  H
  N17      1.0000 0.88503  0.53016  0.16526  Biso   1.000  N
  H215     1.0000 0.92366  0.63649  0.13277  Biso   1.000  H
  H216     1.0000 0.41898  0.93298  0.11536  Biso   1.000  H
  C252     1.0000 0.42860  0.05054  0.04647  Biso   1.000  C
  H217     1.0000 0.31504  0.90803  0.07006  Biso   1.000  H
  H218     1.0000 0.26543  0.99524  0.06096  Biso   1.000  H
  N18      1.0000 0.64514  0.11498  0.16526  Biso   1.000  N
  H219     1.0000 0.52334  0.98256  0.16327  Biso   1.000  H
  C253     1.0000 0.51674  0.48583  0.04486  Biso   1.000  C
  C254     1.0000 0.69516  0.56157  0.02826  Biso   1.000  C
  H220     1.0000 0.90184  0.57327  0.17698  Biso   1.000  H
  C255     1.0000 0.96702  0.49875  0.16697  Biso   1.000  C
  C256     1.0000 0.43843  0.13355  0.02826  Biso   1.000  C
  C257     1.0000 0.51413  0.03084  0.04486  Biso   1.000  C
  C258     1.0000 0.69014  0.11869  0.13577  Biso   1.000  C
  H221     1.0000 0.67143  0.09818  0.17698  Biso   1.000  H
  O14      1.0000 0.44442  0.50020  0.06226  Biso   1.000  O
  C259     1.0000 0.48972  0.39976  0.02757  Biso   1.000  C
  H222     1.0000 0.77754  0.62745  0.02847  Biso   1.000  H
  C260     1.0000 0.67110  0.47275  0.01006  Biso   1.000  C
  C261     1.0000 0.93344  0.39943  0.14567  Biso   1.000  C
  H223     1.0000 0.01745  0.54073  0.16327  Biso   1.000  H
  C262     1.0000 0.52727  0.19838  0.01006  Biso   1.000  C
  H224     1.0000 0.37258  0.15010  0.02847  Biso   1.000  H
  C263     1.0000 0.60025  0.08995  0.02757  Biso   1.000  C
  O15      1.0000 0.49994  0.94429  0.06226  Biso   1.000  O
  C264     1.0000 0.80064  0.22277  0.13216  Biso   1.000  C
  H225     1.0000 0.71283  0.07638  0.13277  Biso   1.000  H
  C265     1.0000 0.33692  0.41106  0.06587  Biso   1.000  C
  C266     1.0000 0.56479  0.38991  0.01057  Biso   1.000  C
  H226     1.0000 0.40624  0.33629  0.02676  Biso   1.000  H
  C267     1.0000 0.75959  0.47073  0.99216  Biso   1.000  C
  C268     1.0000 0.99241  0.41179  0.11946  Biso   1.000  C
  C269     1.0000 0.83631  0.30795  0.15147  Biso   1.000  C
  C270     1.0000 0.61014  0.17489  0.01057  Biso   1.000  C
  C271     1.0000 0.52925  0.28890  0.99216  Biso   1.000  C
  H227     1.0000 0.66377  0.07000  0.02676  Biso   1.000  H
  C272     1.0000 0.58898  0.92588  0.06587  Biso   1.000  C
  C273     1.0000 0.85869  0.23343  0.10576  Biso   1.000  C
  H228     1.0000 0.30745  0.44974  0.08076  Biso   1.000  H
  H229     1.0000 0.28810  0.38587  0.04576  Biso   1.000  H
  H230     1.0000 0.33222  0.34138  0.07666  Biso   1.000  H
  C274     1.0000 0.82515  0.43528  0.01057  Biso   1.000  C
  H231     1.0000 0.72214  0.41429  0.97398  Biso   1.000  H
  H232     1.0000 0.81344  0.55018  0.98316  Biso   1.000  H
  C275     1.0000 0.95312  0.32733  0.09906  Biso   1.000  C
  H233     1.0000 0.06706  0.48599  0.11536  Biso   1.000  H
  H234     1.0000 0.79069  0.30343  0.17127  Biso   1.000  H
  C276     1.0000 0.71112  0.24037  0.99216  Biso   1.000  C
  H235     1.0000 0.58572  0.30787  0.97398  Biso   1.000  H
  H236     1.0000 0.44988  0.26330  0.98316  Biso   1.000  H
  H237     1.0000 0.55025  0.85765  0.08076  Biso   1.000  H
  H238     1.0000 0.61418  0.90230  0.04576  Biso   1.000  H
  H239     1.0000 0.65868  0.99088  0.07666  Biso   1.000  H
  H240     1.0000 0.82858  0.16649  0.09037  Biso   1.000  H
  C277     1.0000 0.91007  0.51029  0.02757  Biso   1.000  C
  C278     1.0000 0.80166  0.32886  0.01006  Biso   1.000  C
  C279     1.0000 0.00853  0.34388  0.06838  Biso   1.000  C
  H241     1.0000 0.69210  0.27784  0.97398  Biso   1.000  H
  H242     1.0000 0.73675  0.18660  0.98316  Biso   1.000  H
  C280     1.0000 0.96912  0.48324  0.04486  Biso   1.000  C
  H243     1.0000 0.93006  0.59378  0.02676  Biso   1.000  H
  C281     1.0000 0.86645  0.30488  0.02826  Biso   1.000  C
  C282     1.0000 0.94938  0.37804  0.04647  Biso   1.000  C
  H244     1.0000 0.09194  0.40694  0.07006  Biso   1.000  H
  H245     1.0000 0.00474  0.27016  0.06096  Biso   1.000  H
  O16      1.0000 0.05571  0.55559  0.06226  Biso   1.000  O
  H246     1.0000 0.84991  0.22245  0.02847  Biso   1.000  H
  C283     1.0000 0.07413  0.66306  0.06587  Biso   1.000  C
  H247     1.0000 0.14229  0.69253  0.08076  Biso   1.000  H
  H248     1.0000 0.09768  0.71183  0.04576  Biso   1.000  H
  H249     1.0000 0.00914  0.66774  0.07666  Biso   1.000  H
  N19      1.0000 0.11500  0.46984  0.83474  Biso   1.000  N
  C284     1.0000 0.11866  0.42850  0.86423  Biso   1.000  C
  H250     1.0000 0.09820  0.42672  0.82302  Biso   1.000  H
  C285     1.0000 0.03295  0.50125  0.83303  Biso   1.000  C
  C286     1.0000 0.22274  0.42212  0.86784  Biso   1.000  C
  H251     1.0000 0.07637  0.36350  0.86723  Biso   1.000  H
  C287     1.0000 0.06659  0.60056  0.85433  Biso   1.000  C
  H252     1.0000 0.98259  0.45926  0.83673  Biso   1.000  H
  C288     1.0000 0.30797  0.47162  0.84853  Biso   1.000  C
  C289     1.0000 0.23344  0.37473  0.89424  Biso   1.000  C
  C290     1.0000 0.00755  0.58821  0.88054  Biso   1.000  C
  C291     1.0000 0.16366  0.69205  0.84853  Biso   1.000  C
  C292     1.0000 0.39945  0.46605  0.85433  Biso   1.000  C
  H253     1.0000 0.30349  0.51272  0.82873  Biso   1.000  H
  C293     1.0000 0.32739  0.37424  0.90094  Biso   1.000  C
  H254     1.0000 0.16644  0.33791  0.90963  Biso   1.000  H
  C294     1.0000 0.04691  0.67267  0.90094  Biso   1.000  C
  H255     1.0000 0.93297  0.51401  0.88464  Biso   1.000  H
  C295     1.0000 0.19940  0.77723  0.86784  Biso   1.000  C
  H256     1.0000 0.20927  0.69657  0.82873  Biso   1.000  H
  C296     1.0000 0.49881  0.53177  0.83303  Biso   1.000  C
  C297     1.0000 0.41173  0.41930  0.88054  Biso   1.000  C
  C298     1.0000 0.34387  0.33532  0.93162  Biso   1.000  C
  C299     1.0000 0.14127  0.76657  0.89424  Biso   1.000  C
  C300     1.0000 0.99144  0.65611  0.93162  Biso   1.000  C
  C301     1.0000 0.30982  0.88131  0.86423  Biso   1.000  C
  H257     1.0000 0.54072  0.52329  0.83673  Biso   1.000  H
  N20      1.0000 0.53017  0.64513  0.83474  Biso   1.000  N
  H258     1.0000 0.48597  0.41897  0.88464  Biso   1.000  H
  C302     1.0000 0.37810  0.42866  0.95353  Biso   1.000  C
  H259     1.0000 0.40695  0.31506  0.92994  Biso   1.000  H
  H260     1.0000 0.27017  0.26540  0.93904  Biso   1.000  H
  H261     1.0000 0.17146  0.83351  0.90963  Biso   1.000  H
  C303     1.0000 0.05058  0.62196  0.95353  Biso   1.000  C
  H262     1.0000 0.90809  0.59305  0.92994  Biso   1.000  H
  H263     1.0000 0.99529  0.72983  0.93904  Biso   1.000  H
  N21      1.0000 0.35489  0.88502  0.83474  Biso   1.000  N
  H264     1.0000 0.28713  0.92362  0.86723  Biso   1.000  H
  C304     1.0000 0.57147  0.69011  0.86423  Biso   1.000  C
  H265     1.0000 0.57326  0.67146  0.82302  Biso   1.000  H
  C305     1.0000 0.48329  0.51417  0.95514  Biso   1.000  C
  C306     1.0000 0.30487  0.43843  0.97174  Biso   1.000  C
  C307     1.0000 0.03091  0.51675  0.95514  Biso   1.000  C
  C308     1.0000 0.13359  0.69511  0.97174  Biso   1.000  C
  C309     1.0000 0.46828  0.96705  0.83303  Biso   1.000  C
  H266     1.0000 0.32854  0.90181  0.82302  Biso   1.000  H
  C310     1.0000 0.57786  0.80064  0.86784  Biso   1.000  C
  H267     1.0000 0.63645  0.71280  0.86723  Biso   1.000  H
  O17      1.0000 0.55554  0.49980  0.93774  Biso   1.000  O
  C311     1.0000 0.51025  0.60024  0.97243  Biso   1.000  C
  H268     1.0000 0.22249  0.37255  0.97153  Biso   1.000  H
  C312     1.0000 0.32886  0.52725  0.98994  Biso   1.000  C
  C313     1.0000 0.08997  0.48970  0.97243  Biso   1.000  C
  O18      1.0000 0.94425  0.44441  0.93774  Biso   1.000  O
  C314     1.0000 0.19837  0.67113  0.98994  Biso   1.000  C
  H269     1.0000 0.15005  0.77755  0.97153  Biso   1.000  H
  C315     1.0000 0.53400  0.93347  0.85433  Biso   1.000  C
  H270     1.0000 0.47662  0.01744  0.83673  Biso   1.000  H
  C316     1.0000 0.62528  0.85870  0.89424  Biso   1.000  C
  C317     1.0000 0.52837  0.83633  0.84853  Biso   1.000  C
  C318     1.0000 0.66304  0.58894  0.93413  Biso   1.000  C
  C319     1.0000 0.43529  0.61017  0.98943  Biso   1.000  C
  H271     1.0000 0.59372  0.66370  0.97324  Biso   1.000  H
  C320     1.0000 0.24037  0.52927  0.00784  Biso   1.000  C
  C321     1.0000 0.17488  0.56471  0.98943  Biso   1.000  C
  H272     1.0000 0.06997  0.40622  0.97324  Biso   1.000  H
  C322     1.0000 0.92590  0.33694  0.93413  Biso   1.000  C
  C323     1.0000 0.28884  0.75963  0.00784  Biso   1.000  C
  C324     1.0000 0.58067  0.99241  0.88054  Biso   1.000  C
  H273     1.0000 0.66206  0.82850  0.90963  Biso   1.000  H
  C325     1.0000 0.62580  0.95317  0.90094  Biso   1.000  C
  H274     1.0000 0.48724  0.79071  0.82873  Biso   1.000  H
  H275     1.0000 0.69258  0.55026  0.91924  Biso   1.000  H
  H276     1.0000 0.71186  0.61413  0.95424  Biso   1.000  H
  H277     1.0000 0.66775  0.65862  0.92334  Biso   1.000  H
  C326     1.0000 0.47072  0.71110  0.00784  Biso   1.000  C
  H278     1.0000 0.27782  0.58571  0.02602  Biso   1.000  H
  H279     1.0000 0.18659  0.44982  0.01684  Biso   1.000  H
  H280     1.0000 0.85767  0.30747  0.91924  Biso   1.000  H
  H281     1.0000 0.90228  0.28817  0.95424  Biso   1.000  H
  H282     1.0000 0.99090  0.33226  0.92334  Biso   1.000  H
  C327     1.0000 0.38983  0.82511  0.98943  Biso   1.000  C
  H283     1.0000 0.30787  0.72216  0.02602  Biso   1.000  H
  H284     1.0000 0.26328  0.81340  0.01684  Biso   1.000  H
  H285     1.0000 0.58099  0.06701  0.88464  Biso   1.000  H
  C328     1.0000 0.66462  0.00856  0.93162  Biso   1.000  C
  C329     1.0000 0.47276  0.80161  0.98994  Biso   1.000  C
  H286     1.0000 0.41424  0.69213  0.02602  Biso   1.000  H
  H287     1.0000 0.55015  0.73670  0.01684  Biso   1.000  H
  C330     1.0000 0.39978  0.91005  0.97243  Biso   1.000  C
  C331     1.0000 0.57136  0.94945  0.95353  Biso   1.000  C
  H288     1.0000 0.68499  0.09196  0.92994  Biso   1.000  H
  H289     1.0000 0.73460  0.00476  0.93904  Biso   1.000  H
  C332     1.0000 0.56161  0.86645  0.97174  Biso   1.000  C
  C333     1.0000 0.48591  0.96915  0.95514  Biso   1.000  C
  H290     1.0000 0.33626  0.92999  0.97324  Biso   1.000  H
  H291     1.0000 0.62745  0.84990  0.97153  Biso   1.000  H
  O19      1.0000 0.50009  0.05571  0.93774  Biso   1.000  O
  C334     1.0000 0.41105  0.07412  0.93413  Biso   1.000  C
  H292     1.0000 0.44978  0.14235  0.91924  Biso   1.000  H
  H293     1.0000 0.38578  0.09770  0.95424  Biso   1.000  H
  H294     1.0000 0.34136  0.00912  0.92334  Biso   1.000  H
  Ne1      1.0000 0.00354  0.00404  0.25052  Biso   1.000  Ne
  He1      1.0000 0.24021  0.07847  0.27117  Biso   1.000  He
  He2      1.0000 0.80713  0.71584  0.27706  Biso   1.000  He
  He3      1.0000 0.91837  0.16761  0.27256  Biso   1.000  He
  He4      1.0000 0.00001  0.00004  0.16063  Biso   1.000  He
  Ar1      1.0000 0.00083  0.00129  0.25118  Biso   1.000  Ar
  Ne2      1.0000 0.66667  0.33333  0.08318  Biso   1.000  Ne
  He5      1.0000 0.66666  0.33335  0.17366  Biso   1.000  He
  He6      1.0000 0.70755  0.12946  0.07123  Biso   1.000  He
  He7      1.0000 0.83218  0.57931  0.06126  Biso   1.000  He
  He8      1.0000 0.35684  0.23443  0.05481  Biso   1.000  He
  Ar2      1.0000 0.66665  0.33333  0.08219  Biso   1.000  Ar
  Ne3      1.0000 0.33333  0.66667  0.41652  Biso   1.000  Ne
  He9      1.0000 0.33334  0.66667  0.50699  Biso   1.000  He
  He10     1.0000 0.37063  0.46409  0.40583  Biso   1.000  He
  He11     1.0000 0.53740  0.91200  0.40440  Biso   1.000  He
  He12     1.0000 0.02345  0.56774  0.38814  Biso   1.000  He
  Ar3      1.0000 0.33726  0.66856  0.41556  Biso   1.000  Ar
  Ne4      1.0000 0.66666  0.33333  0.58348  Biso   1.000  Ne
  He13     1.0000 0.90931  0.37264  0.59489  Biso   1.000  He
  He14     1.0000 0.47378  0.04914  0.61042  Biso   1.000  He
  He15     1.0000 0.58506  0.50092  0.60590  Biso   1.000  He
  He16     1.0000 0.66670  0.33335  0.49398  Biso   1.000  He
  Ar4      1.0000 0.66663  0.33335  0.58449  Biso   1.000  Ar
  Ne5      1.0000 0.00397  0.00256  0.74560  Biso   1.000  Ne
  He17     1.0000 0.00003  0.00001  0.84033  Biso   1.000  He
  He18     1.0000 0.04091  0.79619  0.73790  Biso   1.000  He
  He19     1.0000 0.69011  0.90105  0.72149  Biso   1.000  He
  He20     1.0000 0.16546  0.24592  0.72794  Biso   1.000  He
  Ar5      1.0000 0.99997  0.99996  0.74882  Biso   1.000  Ar
  Ne6      1.0000 0.33333  0.66667  0.91682  Biso   1.000  Ne
  He21     1.0000 0.57602  0.70601  0.92824  Biso   1.000  He
  He22     1.0000 0.14046  0.38245  0.94375  Biso   1.000  He
  He23     1.0000 0.25175  0.83427  0.93924  Biso   1.000  He
  He24     1.0000 0.33330  0.66664  0.82731  Biso   1.000  He
  Ar6      1.0000 0.33334  0.66665  0.91775  Biso   1.000  Ar
