data_image0
_cell_length_a       18.811
_cell_length_b       23.154
_cell_length_c       28.968
_cell_angle_alpha    98.41
_cell_angle_beta     104.44
_cell_angle_gamma    102.71

_symmetry_space_group_name_H-M    "P 1"
_symmetry_int_tables_number       1

loop_
  _symmetry_equiv_pos_as_xyz
  'x, y, z'

loop_
  _atom_site_label
  _atom_site_occupancy
  _atom_site_fract_x
  _atom_site_fract_y
  _atom_site_fract_z
  _atom_site_thermal_displace_type
  _atom_site_B_iso_or_equiv
  _atom_site_type_symbol
  C1       1.0000 0.49861  0.39163  0.50810  Biso   1.000  C
  C2       1.0000 0.49298  0.36543  0.45958  Biso   1.000  C
  C3       1.0000 0.48020  0.35362  0.53901  Biso   1.000  C
  H1       1.0000 0.51470  0.43431  0.51949  Biso   1.000  H
  C4       1.0000 0.46948  0.30359  0.44240  Biso   1.000  C
  N1       1.0000 0.50931  0.40290  0.42598  Biso   1.000  N
  C5       1.0000 0.45428  0.29124  0.52091  Biso   1.000  C
  C6       1.0000 0.49319  0.37952  0.59209  Biso   1.000  C
  C7       1.0000 0.45017  0.26483  0.47330  Biso   1.000  C
  H2       1.0000 0.46620  0.28703  0.40971  Biso   1.000  H
  H3       1.0000 0.47711  0.39333  0.39650  Biso   1.000  H
  C8       1.0000 0.57060  0.45240  0.43620  Biso   1.000  C
  O1       1.0000 0.43734  0.25402  0.55177  Biso   1.000  O
  H4       1.0000 0.44766  0.36200  0.60201  Biso   1.000  H
  H5       1.0000 0.50090  0.42391  0.59720  Biso   1.000  H
  C9       1.0000 0.56327  0.36542  0.62379  Biso   1.000  C
  C10      1.0000 0.42769  0.19672  0.45630  Biso   1.000  C
  O2       1.0000 0.61517  0.47260  0.47709  Biso   1.000  O
  N2       1.0000 0.57367  0.47519  0.39599  Biso   1.000  N
  C11      1.0000 0.36007  0.24364  0.55320  Biso   1.000  C
  C12      1.0000 0.55889  0.32774  0.65710  Biso   1.000  C
  C13      1.0000 0.63248  0.38751  0.61609  Biso   1.000  C
  H6       1.0000 0.41608  0.18612  0.42040  Biso   1.000  H
  H7       1.0000 0.38104  0.17900  0.46498  Biso   1.000  H
  C14      1.0000 0.49145  0.16992  0.47968  Biso   1.000  C
  H8       1.0000 0.53888  0.45561  0.36848  Biso   1.000  H
  C15      1.0000 0.62891  0.52872  0.39398  Biso   1.000  C
  H9       1.0000 0.35168  0.21743  0.57600  Biso   1.000  H
  H10      1.0000 0.32556  0.22401  0.52051  Biso   1.000  H
  H11      1.0000 0.35006  0.28241  0.56389  Biso   1.000  H
  C16      1.0000 0.62258  0.30995  0.67990  Biso   1.000  C
  O3       1.0000 0.49008  0.30611  0.66608  Biso   1.000  O
  H12      1.0000 0.63618  0.41452  0.59450  Biso   1.000  H
  C17      1.0000 0.69777  0.37133  0.63930  Biso   1.000  C
  C18      1.0000 0.48427  0.13213  0.51241  Biso   1.000  C
  C19      1.0000 0.56137  0.18510  0.46929  Biso   1.000  C
  C20      1.0000 0.62303  0.53493  0.34480  Biso   1.000  C
  C21      1.0000 0.67823  0.57073  0.43298  Biso   1.000  C
  C22      1.0000 0.61737  0.26501  0.71340  Biso   1.000  C
  C23      1.0000 0.69188  0.33202  0.67078  Biso   1.000  C
  C24      1.0000 0.47986  0.34665  0.70500  Biso   1.000  C
  N3       1.0000 0.76489  0.39674  0.62740  Biso   1.000  N
  C25      1.0000 0.54508  0.11321  0.53780  Biso   1.000  C
  O4       1.0000 0.41335  0.11392  0.52109  Biso   1.000  O
  C26      1.0000 0.62134  0.16282  0.49070  Biso   1.000  C
  H13      1.0000 0.56781  0.21114  0.44721  Biso   1.000  H
  H14      1.0000 0.58829  0.50592  0.31730  Biso   1.000  H
  C27      1.0000 0.67322  0.58801  0.34061  Biso   1.000  C
  C28      1.0000 0.72651  0.62220  0.42620  Biso   1.000  C
  H15      1.0000 0.67998  0.56523  0.46509  Biso   1.000  H
  C29      1.0000 0.63217  0.20611  0.69158  Biso   1.000  C
  H16      1.0000 0.56605  0.25614  0.71821  Biso   1.000  H
  H17      1.0000 0.65528  0.28324  0.74568  Biso   1.000  H
  H18      1.0000 0.73538  0.31994  0.68640  Biso   1.000  H
  H19      1.0000 0.43056  0.32993  0.71011  Biso   1.000  H
  H20      1.0000 0.48127  0.38622  0.69629  Biso   1.000  H
  H21      1.0000 0.52076  0.35152  0.73499  Biso   1.000  H
  H22      1.0000 0.75949  0.42023  0.60621  Biso   1.000  H
  C30      1.0000 0.83585  0.39021  0.64389  Biso   1.000  C
  C31      1.0000 0.54228  0.08002  0.57841  Biso   1.000  C
  C32      1.0000 0.61367  0.12822  0.52558  Biso   1.000  C
  C33      1.0000 0.37234  0.05342  0.49420  Biso   1.000  C
  N4       1.0000 0.69235  0.17413  0.48019  Biso   1.000  N
  O5       1.0000 0.67334  0.60192  0.29610  Biso   1.000  O
  C34      1.0000 0.72162  0.63093  0.37950  Biso   1.000  C
  O6       1.0000 0.77381  0.66100  0.46761  Biso   1.000  O
  C35      1.0000 0.58173  0.16892  0.64988  Biso   1.000  C
  C36      1.0000 0.69993  0.19254  0.71259  Biso   1.000  C
  O7       1.0000 0.85207  0.35672  0.67279  Biso   1.000  O
  N5       1.0000 0.88651  0.42334  0.62620  Biso   1.000  N
  H23      1.0000 0.55532  0.04130  0.57060  Biso   1.000  H
  H24      1.0000 0.48985  0.07041  0.58140  Biso   1.000  H
  C37      1.0000 0.59697  0.11741  0.62620  Biso   1.000  C
  H25      1.0000 0.65554  0.11452  0.54141  Biso   1.000  H
  H26      1.0000 0.32334  0.04192  0.50110  Biso   1.000  H
  H27      1.0000 0.40226  0.02519  0.50398  Biso   1.000  H
  H28      1.0000 0.36348  0.05191  0.45918  Biso   1.000  H
  H29      1.0000 0.73105  0.16962  0.50249  Biso   1.000  H
  C38      1.0000 0.70797  0.19114  0.44021  Biso   1.000  C
  C39      1.0000 0.63092  0.55800  0.25440  Biso   1.000  C
  H30      1.0000 0.75191  0.66680  0.37450  Biso   1.000  H
  C40      1.0000 0.82822  0.71290  0.46181  Biso   1.000  C
  O8       1.0000 0.51564  0.18381  0.62784  Biso   1.000  O
  C41      1.0000 0.71654  0.14102  0.69070  Biso   1.000  C
  H31      1.0000 0.73486  0.21822  0.74171  Biso   1.000  H
  H32      1.0000 0.87088  0.45021  0.61059  Biso   1.000  H
  C42      1.0000 0.96097  0.42052  0.62941  Biso   1.000  C
  C43      1.0000 0.66656  0.10481  0.64838  Biso   1.000  C
  O9       1.0000 0.66526  0.21080  0.41161  Biso   1.000  O
  N6       1.0000 0.77579  0.18310  0.43561  Biso   1.000  N
  H33      1.0000 0.57679  0.54609  0.25389  Biso   1.000  H
  H34      1.0000 0.65033  0.52153  0.25411  Biso   1.000  H
  C44      1.0000 0.63793  0.58403  0.21000  Biso   1.000  C
  C45      1.0000 0.87872  0.74331  0.50931  Biso   1.000  C
  H35      1.0000 0.85749  0.69920  0.44028  Biso   1.000  H
  H36      1.0000 0.80113  0.74084  0.44688  Biso   1.000  H
  C46      1.0000 0.45194  0.15940  0.64419  Biso   1.000  C
  N7       1.0000 0.78474  0.12753  0.71420  Biso   1.000  N
  C47      1.0000 0.98417  0.36730  0.63528  Biso   1.000  C
  C48      1.0000 0.01006  0.47081  0.62321  Biso   1.000  C
  H37      1.0000 0.67867  0.07033  0.63350  Biso   1.000  H
  H38      1.0000 0.80289  0.17003  0.45918  Biso   1.000  H
  C49      1.0000 0.80749  0.19341  0.39708  Biso   1.000  C
  H39      1.0000 0.61084  0.55159  0.18059  Biso   1.000  H
  H40      1.0000 0.61092  0.61620  0.20861  Biso   1.000  H
  C50      1.0000 0.71283  0.60880  0.20759  Biso   1.000  C
  C51      1.0000 0.93050  0.70774  0.53218  Biso   1.000  C
  H41      1.0000 0.84779  0.75270  0.53109  Biso   1.000  H
  H42      1.0000 0.91029  0.78233  0.50668  Biso   1.000  H
  H43      1.0000 0.40758  0.17150  0.62700  Biso   1.000  H
  H44      1.0000 0.46405  0.17482  0.67939  Biso   1.000  H
  H45      1.0000 0.44054  0.11512  0.63729  Biso   1.000  H
  H46      1.0000 0.79886  0.13451  0.74630  Biso   1.000  H
  C52      1.0000 0.83093  0.10411  0.69041  Biso   1.000  C
  H47      1.0000 0.95076  0.33284  0.63988  Biso   1.000  H
  C53      1.0000 0.05816  0.36724  0.63419  Biso   1.000  C
  H48      1.0000 0.99435  0.50680  0.62018  Biso   1.000  H
  C54      1.0000 0.08327  0.46851  0.62138  Biso   1.000  C
  C55      1.0000 0.86627  0.16782  0.39391  Biso   1.000  C
  C56      1.0000 0.78370  0.22771  0.36370  Biso   1.000  C
  H49      1.0000 0.70964  0.62770  0.17891  Biso   1.000  H
  H50      1.0000 0.74115  0.64091  0.23711  Biso   1.000  H
  C57      1.0000 0.75275  0.56531  0.20420  Biso   1.000  C
  C58      1.0000 0.98909  0.69532  0.50799  Biso   1.000  C
  H51      1.0000 0.95751  0.72964  0.56629  Biso   1.000  H
  H52      1.0000 0.89830  0.66824  0.53350  Biso   1.000  H
  O10      1.0000 0.81526  0.08984  0.64583  Biso   1.000  O
  N8       1.0000 0.89493  0.09950  0.72190  Biso   1.000  N
  C59      1.0000 0.10728  0.41762  0.62748  Biso   1.000  C
  O11      1.0000 0.08736  0.31860  0.63879  Biso   1.000  O
  O12      1.0000 0.12905  0.52162  0.61828  Biso   1.000  O
  H53      1.0000 0.88285  0.14450  0.41671  Biso   1.000  H
  C60      1.0000 0.90109  0.17573  0.35801  Biso   1.000  C
  C61      1.0000 0.82067  0.23710  0.32890  Biso   1.000  C
  H54      1.0000 0.74230  0.24450  0.36491  Biso   1.000  H
  H55      1.0000 0.71913  0.52621  0.20500  Biso   1.000  H
  H56      1.0000 0.76153  0.56079  0.17169  Biso   1.000  H
  C62      1.0000 0.82010  0.57380  0.23780  Biso   1.000  C
  H57      1.0000 0.96302  0.67502  0.47341  Biso   1.000  H
  C63      1.0000 0.03669  0.65604  0.53189  Biso   1.000  C
  H58      1.0000 0.02383  0.73452  0.50840  Biso   1.000  H
  H59      1.0000 0.89934  0.11081  0.75309  Biso   1.000  H
  C64      1.0000 0.95540  0.07912  0.71128  Biso   1.000  C
  H60      1.0000 0.15737  0.41681  0.62711  Biso   1.000  H
  C65      1.0000 0.04347  0.26652  0.64981  Biso   1.000  C
  C66      1.0000 0.18979  0.51740  0.59628  Biso   1.000  C
  O13      1.0000 0.95765  0.14821  0.35790  Biso   1.000  O
  C67      1.0000 0.87915  0.21179  0.32459  Biso   1.000  C
  O14      1.0000 0.79369  0.27250  0.29719  Biso   1.000  O
  H61      1.0000 0.81181  0.58543  0.26990  Biso   1.000  H
  H62      1.0000 0.85473  0.61001  0.23309  Biso   1.000  H
  C68      1.0000 0.86922  0.52303  0.24371  Biso   1.000  C
  C69      1.0000 0.09930  0.64552  0.50701  Biso   1.000  C
  H63      1.0000 0.00237  0.61624  0.53040  Biso   1.000  H
  H64      1.0000 0.06168  0.67560  0.56670  Biso   1.000  H
  C70      1.0000 0.96040  0.06391  0.66498  Biso   1.000  C
  C71      1.0000 0.01302  0.07653  0.75240  Biso   1.000  C
  H65      1.0000 0.99447  0.24892  0.62390  Biso   1.000  H
  C72      1.0000 0.09224  0.22193  0.65280  Biso   1.000  C
  H66      1.0000 0.03273  0.27742  0.68129  Biso   1.000  H
  H67      1.0000 0.16778  0.48990  0.56378  Biso   1.000  H
  H68      1.0000 0.22607  0.49962  0.61679  Biso   1.000  H
  C73      1.0000 0.23020  0.57522  0.59110  Biso   1.000  C
  C74      1.0000 0.00508  0.15890  0.32769  Biso   1.000  C
  H69      1.0000 0.90378  0.21840  0.30019  Biso   1.000  H
  C75      1.0000 0.84701  0.31491  0.28461  Biso   1.000  C
  H70      1.0000 0.88613  0.51411  0.21430  Biso   1.000  H
  H71      1.0000 0.91494  0.53883  0.27231  Biso   1.000  H
  C76      1.0000 0.82079  0.46769  0.24991  Biso   1.000  C
  C77      1.0000 0.13999  0.60060  0.52919  Biso   1.000  C
  H72      1.0000 0.07541  0.62933  0.47158  Biso   1.000  H
  H73      1.0000 0.13719  0.68462  0.51139  Biso   1.000  H
  H74      1.0000 0.92142  0.06582  0.63769  Biso   1.000  H
  C78      1.0000 0.02424  0.04544  0.65860  Biso   1.000  C
  H75      1.0000 0.00952  0.08704  0.78461  Biso   1.000  H
  C79      1.0000 0.07525  0.05793  0.74401  Biso   1.000  C
  C80      1.0000 0.16553  0.24301  0.69380  Biso   1.000  C
  H76      1.0000 0.06207  0.18312  0.65670  Biso   1.000  H
  H77      1.0000 0.10455  0.21404  0.62160  Biso   1.000  H
  C81      1.0000 0.18548  0.61830  0.57469  Biso   1.000  C
  H78      1.0000 0.25918  0.56783  0.56768  Biso   1.000  H
  H79      1.0000 0.26788  0.59592  0.62299  Biso   1.000  H
  H80      1.0000 0.97588  0.14073  0.29311  Biso   1.000  H
  H81      1.0000 0.02528  0.20301  0.33090  Biso   1.000  H
  C82      1.0000 0.06868  0.13109  0.34291  Biso   1.000  C
  C83      1.0000 0.80988  0.36410  0.27089  Biso   1.000  C
  H82      1.0000 0.86118  0.29549  0.25670  Biso   1.000  H
  H83      1.0000 0.89360  0.33220  0.31248  Biso   1.000  H
  C84      1.0000 0.85732  0.41923  0.26170  Biso   1.000  C
  H84      1.0000 0.77843  0.45073  0.21941  Biso   1.000  H
  H85      1.0000 0.79818  0.47900  0.27611  Biso   1.000  H
  H86      1.0000 0.10029  0.56372  0.52770  Biso   1.000  H
  H87      1.0000 0.17049  0.58862  0.50799  Biso   1.000  H
  C85      1.0000 0.08014  0.04182  0.69749  Biso   1.000  C
  O15      1.0000 0.02433  0.03280  0.61128  Biso   1.000  O
  O16      1.0000 0.13520  0.05551  0.78056  Biso   1.000  O
  C86      1.0000 0.21783  0.20040  0.69158  Biso   1.000  C
  H88      1.0000 0.15355  0.24562  0.72529  Biso   1.000  H
  H89      1.0000 0.19317  0.28414  0.69249  Biso   1.000  H
  H90      1.0000 0.15421  0.62461  0.59690  Biso   1.000  H
  H91      1.0000 0.22159  0.65790  0.57779  Biso   1.000  H
  H92      1.0000 0.04755  0.08663  0.33448  Biso   1.000  H
  H93      1.0000 0.10417  0.14143  0.32339  Biso   1.000  H
  C87      1.0000 0.10957  0.14803  0.39121  Biso   1.000  C
  H94      1.0000 0.76651  0.34580  0.24119  Biso   1.000  H
  H95      1.0000 0.78861  0.37731  0.29741  Biso   1.000  H
  H96      1.0000 0.90168  0.43692  0.29110  Biso   1.000  H
  H97      1.0000 0.87722  0.40620  0.23452  Biso   1.000  H
  H98      1.0000 0.12233  0.02824  0.69249  Biso   1.000  H
  C88      1.0000 0.14664  0.08734  0.82861  Biso   1.000  C
  C89      1.0000 0.29556  0.22332  0.72901  Biso   1.000  C
  H99      1.0000 0.19204  0.16051  0.69629  Biso   1.000  H
  H100     1.0000 0.22486  0.19420  0.65860  Biso   1.000  H
  H101     1.0000 0.08297  0.12082  0.40869  Biso   1.000  H
  H102     1.0000 0.10734  0.18942  0.40358  Biso   1.000  H
  C90      1.0000 0.19449  0.14723  0.40610  Biso   1.000  C
  H103     1.0000 0.11981  0.06072  0.84630  Biso   1.000  H
  H104     1.0000 0.12601  0.12311  0.82759  Biso   1.000  H
  C91      1.0000 0.23171  0.10724  0.85448  Biso   1.000  C
  C92      1.0000 0.29483  0.23061  0.78220  Biso   1.000  C
  H105     1.0000 0.32625  0.19481  0.72299  Biso   1.000  H
  H106     1.0000 0.32135  0.26304  0.72401  Biso   1.000  H
  H107     1.0000 0.22629  0.17823  0.43561  Biso   1.000  H
  H108     1.0000 0.21796  0.14890  0.37910  Biso   1.000  H
  C93      1.0000 0.17178  0.08363  0.41591  Biso   1.000  C
  H109     1.0000 0.23941  0.11794  0.89008  Biso   1.000  H
  H110     1.0000 0.25330  0.07275  0.84809  Biso   1.000  H
  C94      1.0000 0.27475  0.16033  0.83941  Biso   1.000  C
  C95      1.0000 0.26406  0.16554  0.79030  Biso   1.000  C
  H111     1.0000 0.26132  0.25642  0.78859  Biso   1.000  H
  H112     1.0000 0.34680  0.24971  0.80439  Biso   1.000  H
  H113     1.0000 0.20806  0.06080  0.40909  Biso   1.000  H
  H114     1.0000 0.12026  0.06153  0.39409  Biso   1.000  H
  C96      1.0000 0.17196  0.08852  0.47439  Biso   1.000  C
  H115     1.0000 0.26524  0.19681  0.85648  Biso   1.000  H
  H116     1.0000 0.32943  0.16344  0.85320  Biso   1.000  H
  H117     1.0000 0.20883  0.15123  0.77301  Biso   1.000  H
  H118     1.0000 0.28910  0.13802  0.77498  Biso   1.000  H
  H119     1.0000 0.22071  0.11560  0.49628  Biso   1.000  H
  H120     1.0000 0.12995  0.10512  0.48008  Biso   1.000  H
  C97      1.0000 0.16272  0.03191  0.48319  Biso   1.000  C
  H121     1.0000 0.20073  0.01272  0.47388  Biso   1.000  H
  H122     1.0000 0.11082  0.00589  0.46549  Biso   1.000  H
  C98      1.0000 0.17604  0.04413  0.53959  Biso   1.000  C
  H123     1.0000 0.19795  0.01281  0.55309  Biso   1.000  H
  H124     1.0000 0.21282  0.08410  0.55498  Biso   1.000  H
  C99      1.0000 0.10934  0.04300  0.55039  Biso   1.000  C
  H125     1.0000 0.06705  0.01281  0.52481  Biso   1.000  H
  H126     1.0000 0.09923  0.08323  0.55050  Biso   1.000  H
  C100     1.0000 0.11132  0.02712  0.59968  Biso   1.000  C
  H127     1.0000 0.11664  0.98542  0.59920  Biso   1.000  H
  H128     1.0000 0.15516  0.05542  0.62551  Biso   1.000  H
  C101     1.0000 0.50139  0.60841  0.49191  Biso   1.000  C
  C102     1.0000 0.50701  0.63460  0.54039  Biso   1.000  C
  C103     1.0000 0.51981  0.64641  0.46100  Biso   1.000  C
  H129     1.0000 0.48529  0.56572  0.48049  Biso   1.000  H
  N9       1.0000 0.49068  0.59713  0.57399  Biso   1.000  N
  C104     1.0000 0.53053  0.69644  0.55761  Biso   1.000  C
  C105     1.0000 0.54573  0.70880  0.47910  Biso   1.000  C
  C106     1.0000 0.50680  0.62050  0.40788  Biso   1.000  C
  C107     1.0000 0.42939  0.54763  0.56378  Biso   1.000  C
  H130     1.0000 0.52290  0.60670  0.60351  Biso   1.000  H
  C108     1.0000 0.54984  0.73520  0.52671  Biso   1.000  C
  H131     1.0000 0.53380  0.71301  0.59030  Biso   1.000  H
  O17      1.0000 0.56260  0.74601  0.44820  Biso   1.000  O
  H132     1.0000 0.55230  0.63803  0.39800  Biso   1.000  H
  H133     1.0000 0.49911  0.57613  0.40281  Biso   1.000  H
  C109     1.0000 0.43673  0.63461  0.37618  Biso   1.000  C
  N10      1.0000 0.42627  0.52483  0.60398  Biso   1.000  N
  O18      1.0000 0.38477  0.52743  0.52288  Biso   1.000  O
  C110     1.0000 0.57232  0.80332  0.54371  Biso   1.000  C
  C111     1.0000 0.63994  0.75640  0.44681  Biso   1.000  C
  C112     1.0000 0.44112  0.67230  0.34291  Biso   1.000  C
  C113     1.0000 0.36753  0.61253  0.38391  Biso   1.000  C
  C114     1.0000 0.37108  0.47131  0.60599  Biso   1.000  C
  H134     1.0000 0.46106  0.54442  0.63149  Biso   1.000  H
  H135     1.0000 0.58392  0.81392  0.57961  Biso   1.000  H
  H136     1.0000 0.61890  0.82102  0.53499  Biso   1.000  H
  C115     1.0000 0.50854  0.83011  0.52029  Biso   1.000  C
  H137     1.0000 0.64833  0.78260  0.42401  Biso   1.000  H
  H138     1.0000 0.67445  0.77602  0.47950  Biso   1.000  H
  H139     1.0000 0.64993  0.71761  0.43609  Biso   1.000  H
  C116     1.0000 0.37744  0.69013  0.32011  Biso   1.000  C
  O19      1.0000 0.50991  0.69391  0.33390  Biso   1.000  O
  H140     1.0000 0.36383  0.58552  0.40551  Biso   1.000  H
  C117     1.0000 0.30224  0.62870  0.36071  Biso   1.000  C
  C118     1.0000 0.32177  0.42934  0.56699  Biso   1.000  C
  C119     1.0000 0.37698  0.46510  0.65520  Biso   1.000  C
  C120     1.0000 0.51574  0.86791  0.48760  Biso   1.000  C
  C121     1.0000 0.43862  0.81493  0.53069  Biso   1.000  C
  C122     1.0000 0.38264  0.73503  0.28661  Biso   1.000  C
  C123     1.0000 0.30811  0.66801  0.32919  Biso   1.000  C
  C124     1.0000 0.52011  0.65343  0.29500  Biso   1.000  C
  N11      1.0000 0.23513  0.60334  0.37260  Biso   1.000  N
  C125     1.0000 0.27350  0.37784  0.57381  Biso   1.000  C
  H141     1.0000 0.31996  0.43479  0.53488  Biso   1.000  H
  C126     1.0000 0.32679  0.41202  0.65940  Biso   1.000  C
  H142     1.0000 0.41165  0.49411  0.68268  Biso   1.000  H
  C127     1.0000 0.45492  0.88683  0.46221  Biso   1.000  C
  O20      1.0000 0.58664  0.88610  0.47888  Biso   1.000  O
  C128     1.0000 0.37861  0.83721  0.50931  Biso   1.000  C
  H143     1.0000 0.43221  0.78894  0.55280  Biso   1.000  H
  H144     1.0000 0.43390  0.74389  0.28180  Biso   1.000  H
  H145     1.0000 0.34472  0.71683  0.25429  Biso   1.000  H
  C129     1.0000 0.36782  0.79391  0.30839  Biso   1.000  C
  H146     1.0000 0.26464  0.68014  0.31361  Biso   1.000  H
  H147     1.0000 0.56944  0.67010  0.28990  Biso   1.000  H
  H148     1.0000 0.51872  0.61380  0.30369  Biso   1.000  H
  H149     1.0000 0.47925  0.64852  0.26502  Biso   1.000  H
  C130     1.0000 0.16411  0.60982  0.35611  Biso   1.000  C
  H150     1.0000 0.24052  0.57981  0.39380  Biso   1.000  H
  O21      1.0000 0.22620  0.33904  0.53240  Biso   1.000  O
  C131     1.0000 0.27838  0.36911  0.62051  Biso   1.000  C
  O22      1.0000 0.32666  0.39811  0.70391  Biso   1.000  O
  C132     1.0000 0.45773  0.92001  0.42160  Biso   1.000  C
  C133     1.0000 0.38632  0.87181  0.47439  Biso   1.000  C
  C134     1.0000 0.62761  0.94662  0.50581  Biso   1.000  C
  N12      1.0000 0.30764  0.82590  0.51978  Biso   1.000  N
  C135     1.0000 0.41826  0.83111  0.35009  Biso   1.000  C
  C136     1.0000 0.30004  0.80754  0.28742  Biso   1.000  C
  N13      1.0000 0.11351  0.57674  0.37381  Biso   1.000  N
  O23      1.0000 0.14792  0.64330  0.32718  Biso   1.000  O
  C137     1.0000 0.17179  0.28713  0.53820  Biso   1.000  C
  H151     1.0000 0.24810  0.33324  0.62551  Biso   1.000  H
  C138     1.0000 0.36909  0.44203  0.74561  Biso   1.000  C
  H152     1.0000 0.44463  0.95874  0.42941  Biso   1.000  H
  H153     1.0000 0.51016  0.92963  0.41861  Biso   1.000  H
  C139     1.0000 0.40304  0.88263  0.37381  Biso   1.000  C
  H154     1.0000 0.34442  0.88552  0.45860  Biso   1.000  H
  H155     1.0000 0.67662  0.95812  0.49891  Biso   1.000  H
  H156     1.0000 0.59773  0.97484  0.49599  Biso   1.000  H
  H157     1.0000 0.63651  0.94812  0.54079  Biso   1.000  H
  H158     1.0000 0.26894  0.83041  0.49749  Biso   1.000  H
  C140     1.0000 0.29204  0.80890  0.55980  Biso   1.000  C
  O24      1.0000 0.48431  0.81622  0.37217  Biso   1.000  O
  C141     1.0000 0.28347  0.85902  0.30931  Biso   1.000  C
  H159     1.0000 0.26515  0.78182  0.25830  Biso   1.000  H
  C142     1.0000 0.03903  0.57952  0.37060  Biso   1.000  C
  H160     1.0000 0.12911  0.54982  0.38939  Biso   1.000  H
  C143     1.0000 0.12129  0.25673  0.49070  Biso   1.000  C
  H161     1.0000 0.14250  0.30083  0.55969  Biso   1.000  H
  H162     1.0000 0.19887  0.25924  0.55309  Biso   1.000  H
  H163     1.0000 0.42315  0.45394  0.74608  Biso   1.000  H
  H164     1.0000 0.34969  0.47855  0.74590  Biso   1.000  H
  C144     1.0000 0.36208  0.41601  0.79001  Biso   1.000  C
  C145     1.0000 0.33343  0.89521  0.35159  Biso   1.000  C
  O25      1.0000 0.33473  0.78923  0.58837  Biso   1.000  O
  N14      1.0000 0.22421  0.81693  0.56440  Biso   1.000  N
  C146     1.0000 0.54805  0.84063  0.35579  Biso   1.000  C
  N15      1.0000 0.21527  0.87251  0.28581  Biso   1.000  N
  C147     1.0000 0.98995  0.52922  0.37680  Biso   1.000  C
  C148     1.0000 0.01582  0.63272  0.36469  Biso   1.000  C
  C149     1.0000 0.06950  0.29233  0.46779  Biso   1.000  C
  H165     1.0000 0.15220  0.24733  0.46888  Biso   1.000  H
  H166     1.0000 0.08970  0.21770  0.49329  Biso   1.000  H
  H167     1.0000 0.38915  0.44844  0.81938  Biso   1.000  H
  H168     1.0000 0.38909  0.38383  0.79140  Biso   1.000  H
  C150     1.0000 0.28717  0.39122  0.79238  Biso   1.000  C
  H169     1.0000 0.32134  0.92971  0.36651  Biso   1.000  H
  H170     1.0000 0.19712  0.83004  0.54079  Biso   1.000  H
  C151     1.0000 0.19250  0.80661  0.60289  Biso   1.000  C
  H171     1.0000 0.59243  0.82853  0.37301  Biso   1.000  H
  H172     1.0000 0.53594  0.82521  0.32058  Biso   1.000  H
  H173     1.0000 0.55945  0.88491  0.36268  Biso   1.000  H
  H174     1.0000 0.20115  0.86552  0.25371  Biso   1.000  H
  C152     1.0000 0.16908  0.89593  0.30960  Biso   1.000  C
  C153     1.0000 0.91672  0.53151  0.37859  Biso   1.000  C
  H175     1.0000 0.00564  0.49322  0.37979  Biso   1.000  H
  C154     1.0000 0.94184  0.63279  0.36578  Biso   1.000  C
  H176     1.0000 0.04923  0.66719  0.36009  Biso   1.000  H
  C155     1.0000 0.01090  0.30471  0.49198  Biso   1.000  C
  H177     1.0000 0.04251  0.27044  0.43371  Biso   1.000  H
  H178     1.0000 0.10172  0.33184  0.46651  Biso   1.000  H
  H179     1.0000 0.29037  0.37234  0.82109  Biso   1.000  H
  H180     1.0000 0.25886  0.35912  0.76290  Biso   1.000  H
  C156     1.0000 0.24726  0.43472  0.79581  Biso   1.000  C
  C157     1.0000 0.21630  0.77233  0.63631  Biso   1.000  C
  C158     1.0000 0.13374  0.83221  0.60610  Biso   1.000  C
  O26      1.0000 0.18474  0.91023  0.35414  Biso   1.000  O
  N16      1.0000 0.10507  0.90053  0.27811  Biso   1.000  N
  O27      1.0000 0.87089  0.47841  0.38169  Biso   1.000  O
  C159     1.0000 0.89271  0.58241  0.37250  Biso   1.000  C
  O28      1.0000 0.91263  0.68143  0.36119  Biso   1.000  O
  H181     1.0000 0.03698  0.32502  0.52660  Biso   1.000  H
  C160     1.0000 0.96331  0.34403  0.46808  Biso   1.000  C
  H182     1.0000 0.97618  0.26552  0.49161  Biso   1.000  H
  H183     1.0000 0.28088  0.47382  0.79501  Biso   1.000  H
  H184     1.0000 0.23847  0.43923  0.82828  Biso   1.000  H
  C161     1.0000 0.17991  0.42624  0.76221  Biso   1.000  C
  C162     1.0000 0.17933  0.76294  0.67111  Biso   1.000  C
  H185     1.0000 0.25770  0.75554  0.63510  Biso   1.000  H
  C163     1.0000 0.09892  0.82430  0.64200  Biso   1.000  C
  H186     1.0000 0.11716  0.85554  0.58330  Biso   1.000  H
  H187     1.0000 0.10065  0.88922  0.24688  Biso   1.000  H
  C164     1.0000 0.04454  0.92091  0.28869  Biso   1.000  C
  C165     1.0000 0.81020  0.48263  0.40369  Biso   1.000  C
  H188     1.0000 0.84263  0.58322  0.37290  Biso   1.000  H
  C166     1.0000 0.95654  0.73351  0.35020  Biso   1.000  C
  C167     1.0000 0.90071  0.35452  0.49300  Biso   1.000  C
  H189     1.0000 0.99759  0.38384  0.46961  Biso   1.000  H
  H190     1.0000 0.93833  0.32444  0.43331  Biso   1.000  H
  H191     1.0000 0.18821  0.41465  0.73011  Biso   1.000  H
  H192     1.0000 0.14526  0.39001  0.76688  Biso   1.000  H
  C168     1.0000 0.13080  0.47705  0.75630  Biso   1.000  C
  O29      1.0000 0.20631  0.72752  0.70278  Biso   1.000  O
  C169     1.0000 0.12079  0.78824  0.67538  Biso   1.000  C
  O30      1.0000 0.04236  0.85183  0.64211  Biso   1.000  O
  C170     1.0000 0.03953  0.93612  0.33499  Biso   1.000  C
  C171     1.0000 0.98699  0.92350  0.24761  Biso   1.000  C
  C172     1.0000 0.76981  0.42482  0.40891  Biso   1.000  C
  H193     1.0000 0.83221  0.51013  0.43620  Biso   1.000  H
  H194     1.0000 0.77392  0.50041  0.38318  Biso   1.000  H
  H195     1.0000 0.00554  0.75112  0.37611  Biso   1.000  H
  C173     1.0000 0.90777  0.77810  0.34721  Biso   1.000  C
  H196     1.0000 0.96721  0.72261  0.31868  Biso   1.000  H
  C174     1.0000 0.86000  0.39943  0.47078  Biso   1.000  C
  H197     1.0000 0.92458  0.37069  0.52839  Biso   1.000  H
  H198     1.0000 0.86280  0.31541  0.48859  Biso   1.000  H
  H199     1.0000 0.11388  0.48593  0.78571  Biso   1.000  H
  H200     1.0000 0.08506  0.46121  0.72770  Biso   1.000  H
  C175     1.0000 0.17922  0.53235  0.75010  Biso   1.000  C
  C176     1.0000 0.15300  0.68512  0.71540  Biso   1.000  C
  H201     1.0000 0.09621  0.78163  0.69979  Biso   1.000  H
  C177     1.0000 0.99491  0.84112  0.67228  Biso   1.000  C
  H202     1.0000 0.07852  0.93421  0.36228  Biso   1.000  H
  C178     1.0000 0.97578  0.95464  0.34141  Biso   1.000  C
  C179     1.0000 0.92476  0.94210  0.25600  Biso   1.000  C
  H203     1.0000 0.99048  0.91299  0.21540  Biso   1.000  H
  C180     1.0000 0.81451  0.38173  0.42529  Biso   1.000  C
  H204     1.0000 0.74081  0.43219  0.43229  Biso   1.000  H
  H205     1.0000 0.73212  0.40411  0.37698  Biso   1.000  H
  C181     1.0000 0.83448  0.75703  0.30620  Biso   1.000  C
  H206     1.0000 0.93794  0.81692  0.34331  Biso   1.000  H
  H207     1.0000 0.89546  0.78600  0.37841  Biso   1.000  H
  H208     1.0000 0.89971  0.43631  0.47231  Biso   1.000  H
  H209     1.0000 0.82950  0.41141  0.49198  Biso   1.000  H
  H210     1.0000 0.22158  0.54931  0.78060  Biso   1.000  H
  H211     1.0000 0.20177  0.52104  0.72390  Biso   1.000  H
  C182     1.0000 0.14268  0.58084  0.73828  Biso   1.000  C
  C183     1.0000 0.19011  0.63592  0.72908  Biso   1.000  C
  H212     1.0000 0.13883  0.70455  0.74331  Biso   1.000  H
  H213     1.0000 0.10639  0.66783  0.68749  Biso   1.000  H
  H214     1.0000 0.02413  0.85931  0.70690  Biso   1.000  H
  H215     1.0000 0.97473  0.79703  0.66910  Biso   1.000  H
  C184     1.0000 0.93133  0.86894  0.65710  Biso   1.000  C
  C185     1.0000 0.91985  0.95820  0.30248  Biso   1.000  C
  O31      1.0000 0.97566  0.96723  0.38869  Biso   1.000  O
  O32      1.0000 0.86475  0.94452  0.21945  Biso   1.000  O
  H216     1.0000 0.84580  0.37542  0.40310  Biso   1.000  H
  H217     1.0000 0.77841  0.34213  0.42219  Biso   1.000  H
  C186     1.0000 0.78216  0.79963  0.30839  Biso   1.000  C
  H218     1.0000 0.84644  0.75441  0.27468  Biso   1.000  H
  H219     1.0000 0.80683  0.71593  0.30748  Biso   1.000  H
  H220     1.0000 0.09832  0.56312  0.70891  Biso   1.000  H
  H221     1.0000 0.12279  0.59384  0.76549  Biso   1.000  H
  H222     1.0000 0.23348  0.65423  0.75878  Biso   1.000  H
  H223     1.0000 0.21140  0.62272  0.70260  Biso   1.000  H
  H224     1.0000 0.95245  0.91344  0.66549  Biso   1.000  H
  H225     1.0000 0.89583  0.85864  0.67658  Biso   1.000  H
  C187     1.0000 0.89044  0.85201  0.60880  Biso   1.000  C
  H226     1.0000 0.87766  0.97179  0.30748  Biso   1.000  H
  C188     1.0000 0.85336  0.91269  0.17140  Biso   1.000  C
  C189     1.0000 0.70445  0.77672  0.27100  Biso   1.000  C
  H227     1.0000 0.80795  0.83951  0.30369  Biso   1.000  H
  H228     1.0000 0.77515  0.80583  0.34141  Biso   1.000  H
  H229     1.0000 0.91703  0.87921  0.59129  Biso   1.000  H
  H230     1.0000 0.89265  0.81061  0.59639  Biso   1.000  H
  C190     1.0000 0.80552  0.85281  0.59391  Biso   1.000  C
  C191     1.0000 0.76829  0.89283  0.14550  Biso   1.000  C
  H231     1.0000 0.88020  0.93932  0.15370  Biso   1.000  H
  H232     1.0000 0.87398  0.87691  0.17238  Biso   1.000  H
  C192     1.0000 0.70517  0.76943  0.21781  Biso   1.000  C
  H233     1.0000 0.67375  0.80522  0.27698  Biso   1.000  H
  H234     1.0000 0.67865  0.73700  0.27600  Biso   1.000  H
  H235     1.0000 0.77372  0.82180  0.56440  Biso   1.000  H
  H236     1.0000 0.78205  0.85114  0.62091  Biso   1.000  H
  C193     1.0000 0.82822  0.91640  0.58410  Biso   1.000  C
  C194     1.0000 0.72526  0.83971  0.16060  Biso   1.000  C
  H237     1.0000 0.76058  0.88208  0.10989  Biso   1.000  H
  H238     1.0000 0.74672  0.92733  0.15192  Biso   1.000  H
  C195     1.0000 0.73595  0.83450  0.20971  Biso   1.000  C
  H239     1.0000 0.73867  0.74360  0.21138  Biso   1.000  H
  H240     1.0000 0.65314  0.75032  0.19559  Biso   1.000  H
  H241     1.0000 0.79193  0.93923  0.59088  Biso   1.000  H
  H242     1.0000 0.87973  0.93850  0.60588  Biso   1.000  H
  C196     1.0000 0.82803  0.91151  0.52558  Biso   1.000  C
  H243     1.0000 0.73475  0.80322  0.14349  Biso   1.000  H
  H244     1.0000 0.67058  0.83659  0.14681  Biso   1.000  H
  H245     1.0000 0.79118  0.84881  0.22700  Biso   1.000  H
  H246     1.0000 0.71084  0.86200  0.22499  Biso   1.000  H
  H247     1.0000 0.77922  0.88443  0.50369  Biso   1.000  H
  H248     1.0000 0.87004  0.89491  0.51989  Biso   1.000  H
  C197     1.0000 0.83727  0.96811  0.51679  Biso   1.000  C
  H249     1.0000 0.79926  0.98731  0.52609  Biso   1.000  H
  H250     1.0000 0.88918  0.99413  0.53448  Biso   1.000  H
  C198     1.0000 0.82395  0.95590  0.46038  Biso   1.000  C
  H251     1.0000 0.80205  0.98722  0.44688  Biso   1.000  H
  H252     1.0000 0.78717  0.91592  0.44499  Biso   1.000  H
  C199     1.0000 0.89065  0.95703  0.44958  Biso   1.000  C
  H253     1.0000 0.93295  0.98722  0.47520  Biso   1.000  H
  H254     1.0000 0.90078  0.91681  0.44951  Biso   1.000  H
  C200     1.0000 0.88867  0.97291  0.40030  Biso   1.000  C
  H255     1.0000 0.84484  0.94461  0.37450  Biso   1.000  H
  H256     1.0000 0.88337  0.01462  0.40081  Biso   1.000  H
  O33      1.0000 0.73757  0.73073  0.80249  Biso   1.000  O
  C201     1.0000 0.79821  0.72992  0.82821  Biso   1.000  C
  N17      1.0000 0.80925  0.68732  0.85448  Biso   1.000  N
  N18      1.0000 0.86551  0.77314  0.83510  Biso   1.000  N
  C202     1.0000 0.75357  0.63781  0.85929  Biso   1.000  C
  H257     1.0000 0.85677  0.69063  0.87068  Biso   1.000  H
  H258     1.0000 0.90630  0.76925  0.85590  Biso   1.000  H
  C203     1.0000 0.87560  0.82313  0.81201  Biso   1.000  C
  C204     1.0000 0.67705  0.63042  0.84189  Biso   1.000  C
  C205     1.0000 0.78027  0.59735  0.88509  Biso   1.000  C
  C206     1.0000 0.81788  0.83984  0.78228  Biso   1.000  C
  C207     1.0000 0.95287  0.85532  0.82040  Biso   1.000  C
  C208     1.0000 0.62516  0.58052  0.84758  Biso   1.000  C
  H259     1.0000 0.65879  0.65942  0.82580  Biso   1.000  H
  C209     1.0000 0.73087  0.54754  0.89180  Biso   1.000  C
  H260     1.0000 0.83356  0.60384  0.89859  Biso   1.000  H
  H261     1.0000 0.76649  0.81764  0.77651  Biso   1.000  H
  C210     1.0000 0.83429  0.88914  0.76061  Biso   1.000  C
  C211     1.0000 0.96760  0.90463  0.79961  Biso   1.000  C
  H262     1.0000 0.99330  0.84311  0.83988  Biso   1.000  H
  C212     1.0000 0.65425  0.53893  0.87210  Biso   1.000  C
  C213     1.0000 0.54029  0.57542  0.82978  Biso   1.000  C
  C214     1.0000 0.76545  0.50661  0.92420  Biso   1.000  C
  O34      1.0000 0.77323  0.90131  0.73131  Biso   1.000  O
  C215     1.0000 0.90932  0.92171  0.76911  Biso   1.000  C
  O35      1.0000 0.03959  0.93902  0.80460  Biso   1.000  O
  O36      1.0000 0.60267  0.48702  0.87640  Biso   1.000  O
  H263     1.0000 0.51109  0.53692  0.83489  Biso   1.000  H
  H264     1.0000 0.52526  0.57483  0.79439  Biso   1.000  H
  C216     1.0000 0.52120  0.62833  0.85710  Biso   1.000  C
  H265     1.0000 0.72454  0.47053  0.92270  Biso   1.000  H
  H266     1.0000 0.80375  0.49245  0.91099  Biso   1.000  H
  C217     1.0000 0.80196  0.53905  0.97589  Biso   1.000  C
  C218     1.0000 0.78504  0.94933  0.70661  Biso   1.000  C
  H267     1.0000 0.92092  0.95534  0.75429  Biso   1.000  H
  C219     1.0000 0.10239  0.93044  0.83879  Biso   1.000  C
  C220     1.0000 0.58629  0.43743  0.83620  Biso   1.000  C
  C221     1.0000 0.52138  0.63261  0.90508  Biso   1.000  C
  C222     1.0000 0.50869  0.67682  0.83518  Biso   1.000  C
  C223     1.0000 0.88086  0.54952  0.99888  Biso   1.000  C
  C224     1.0000 0.75884  0.55932  0.00450  Biso   1.000  C
  H268     1.0000 0.82574  0.94684  0.69099  Biso   1.000  H
  H269     1.0000 0.80123  0.98863  0.73018  Biso   1.000  H
  C225     1.0000 0.71252  0.94504  0.66878  Biso   1.000  C
  C226     1.0000 0.13468  0.88054  0.82018  Biso   1.000  C
  H270     1.0000 0.08648  0.92122  0.86768  Biso   1.000  H
  H271     1.0000 0.14333  0.96882  0.84981  Biso   1.000  H
  H272     1.0000 0.55066  0.40222  0.84050  Biso   1.000  H
  H273     1.0000 0.63355  0.42713  0.83459  Biso   1.000  H
  H274     1.0000 0.56349  0.44892  0.80581  Biso   1.000  H
  C227     1.0000 0.51420  0.68365  0.93401  Biso   1.000  C
  O37      1.0000 0.53198  0.58454  0.92741  Biso   1.000  O
  H275     1.0000 0.50890  0.67552  0.80231  Biso   1.000  H
  C228     1.0000 0.49617  0.72684  0.86159  Biso   1.000  C
  H276     1.0000 0.91167  0.53492  0.98100  Biso   1.000  H
  C229     1.0000 0.91402  0.58075  0.04700  Biso   1.000  C
  O38      1.0000 0.68193  0.55124  0.98312  Biso   1.000  O
  C230     1.0000 0.79091  0.59115  0.05269  Biso   1.000  C
  H277     1.0000 0.69353  0.90331  0.64860  Biso   1.000  H
  H278     1.0000 0.72404  0.97284  0.64718  Biso   1.000  H
  C231     1.0000 0.64922  0.95981  0.68830  Biso   1.000  C
  C232     1.0000 0.20418  0.87722  0.85568  Biso   1.000  C
  H279     1.0000 0.09570  0.84122  0.81230  Biso   1.000  H
  H280     1.0000 0.14660  0.88753  0.78968  Biso   1.000  H
  C233     1.0000 0.52250  0.68886  0.98669  Biso   1.000  C
  C234     1.0000 0.50078  0.73124  0.91008  Biso   1.000  C
  C235     1.0000 0.46046  0.54404  0.92310  Biso   1.000  C
  N19      1.0000 0.47573  0.77115  0.83510  Biso   1.000  N
  C236     1.0000 0.86842  0.60054  0.07349  Biso   1.000  C
  N20      1.0000 0.99248  0.59083  0.07090  Biso   1.000  N
  C237     1.0000 0.63504  0.49592  0.98957  Biso   1.000  C
  C238     1.0000 0.74252  0.61676  0.08140  Biso   1.000  C
  H281     1.0000 0.64380  0.93753  0.71438  Biso   1.000  H
  C239     1.0000 0.57174  0.94354  0.64889  Biso   1.000  C
  H282     1.0000 0.66377  0.00364  0.70289  Biso   1.000  H
  C240     1.0000 0.23650  0.82322  0.84350  Biso   1.000  C
  H283     1.0000 0.19346  0.87651  0.88749  Biso   1.000  H
  H284     1.0000 0.24453  0.91494  0.86020  Biso   1.000  H
  H285     1.0000 0.49226  0.65101  0.99209  Biso   1.000  H
  H286     1.0000 0.50306  0.72276  0.99870  Biso   1.000  H
  C241     1.0000 0.60712  0.70021  0.01508  Biso   1.000  C
  H287     1.0000 0.49487  0.76684  0.92799  Biso   1.000  H
  H288     1.0000 0.46894  0.51092  0.93948  Biso   1.000  H
  H289     1.0000 0.43298  0.52741  0.88848  Biso   1.000  H
  H290     1.0000 0.43039  0.56602  0.93839  Biso   1.000  H
  H291     1.0000 0.45529  0.75963  0.80329  Biso   1.000  H
  C242     1.0000 0.48598  0.83133  0.85659  Biso   1.000  C
  H292     1.0000 0.89092  0.62106  0.10669  Biso   1.000  H
  H293     1.0000 0.00484  0.58465  0.10078  Biso   1.000  H
  C243     1.0000 0.05098  0.60935  0.05138  Biso   1.000  C
  H294     1.0000 0.58137  0.49232  0.97378  Biso   1.000  H
  H295     1.0000 0.64936  0.46105  0.97491  Biso   1.000  H
  H296     1.0000 0.64293  0.49714  0.02449  Biso   1.000  H
  H297     1.0000 0.69939  0.58353  0.08180  Biso   1.000  H
  H298     1.0000 0.77380  0.63485  0.11548  Biso   1.000  H
  C244     1.0000 0.71203  0.66463  0.05849  Biso   1.000  C
  H299     1.0000 0.57944  0.95915  0.62000  Biso   1.000  H
  H300     1.0000 0.55271  0.89884  0.63890  Biso   1.000  H
  C245     1.0000 0.51105  0.96813  0.66469  Biso   1.000  C
  C246     1.0000 0.27015  0.80022  0.87440  Biso   1.000  C
  H301     1.0000 0.19307  0.79033  0.82128  Biso   1.000  H
  H302     1.0000 0.27138  0.83584  0.82409  Biso   1.000  H
  C247     1.0000 0.63424  0.65865  0.04040  Biso   1.000  C
  C248     1.0000 0.65831  0.74971  0.01157  Biso   1.000  C
  O39      1.0000 0.52883  0.85603  0.89760  Biso   1.000  O
  N21      1.0000 0.44331  0.85811  0.82628  Biso   1.000  N
  O40      1.0000 0.03956  0.61532  0.00898  Biso   1.000  O
  N22      1.0000 0.11986  0.61843  0.08301  Biso   1.000  N
  C249     1.0000 0.76281  0.71492  0.05379  Biso   1.000  C
  H303     1.0000 0.50530  0.95491  0.69490  Biso   1.000  H
  C250     1.0000 0.43460  0.94641  0.62558  Biso   1.000  C
  H304     1.0000 0.52751  0.01293  0.67221  Biso   1.000  H
  C251     1.0000 0.29606  0.74412  0.86750  Biso   1.000  C
  H305     1.0000 0.23800  0.79402  0.89651  Biso   1.000  H
  H306     1.0000 0.31668  0.83252  0.89359  Biso   1.000  H
  O41      1.0000 0.58200  0.60901  0.04623  Biso   1.000  O
  H307     1.0000 0.64027  0.77835  0.99479  Biso   1.000  H
  C252     1.0000 0.73703  0.75965  0.03208  Biso   1.000  C
  H308     1.0000 0.42121  0.83722  0.79618  Biso   1.000  H
  C253     1.0000 0.42939  0.91673  0.83700  Biso   1.000  C
  H309     1.0000 0.12087  0.61476  0.11300  Biso   1.000  H
  C254     1.0000 0.19116  0.63353  0.07349  Biso   1.000  C
  H310     1.0000 0.81601  0.71933  0.06561  Biso   1.000  H
  C255     1.0000 0.36995  0.97201  0.63700  Biso   1.000  C
  H311     1.0000 0.41774  0.90173  0.61971  Biso   1.000  H
  H312     1.0000 0.44203  0.95714  0.59501  Biso   1.000  H
  C256     1.0000 0.25059  0.68782  0.87779  Biso   1.000  C
  H313     1.0000 0.34909  0.75322  0.88870  Biso   1.000  H
  H314     1.0000 0.29739  0.73471  0.83328  Biso   1.000  H
  C257     1.0000 0.55485  0.62516  0.08720  Biso   1.000  C
  N23      1.0000 0.78503  0.81391  0.02799  Biso   1.000  N
  C258     1.0000 0.46324  0.95594  0.88129  Biso   1.000  C
  C259     1.0000 0.37752  0.92915  0.79990  Biso   1.000  C
  C260     1.0000 0.19765  0.61802  0.02741  Biso   1.000  C
  C261     1.0000 0.25174  0.66303  0.11438  Biso   1.000  C
  C262     1.0000 0.34954  0.95654  0.68198  Biso   1.000  C
  H315     1.0000 0.32393  0.95633  0.60851  Biso   1.000  H
  H316     1.0000 0.38550  0.01673  0.64138  Biso   1.000  H
  C263     1.0000 0.29377  0.64024  0.88370  Biso   1.000  C
  H317     1.0000 0.20288  0.67054  0.85061  Biso   1.000  H
  H318     1.0000 0.23646  0.69882  0.90800  Biso   1.000  H
  H319     1.0000 0.51863  0.58963  0.09049  Biso   1.000  H
  H320     1.0000 0.52940  0.65734  0.08199  Biso   1.000  H
  H321     1.0000 0.59789  0.63952  0.11690  Biso   1.000  H
  H322     1.0000 0.76603  0.83025  0.00369  Biso   1.000  H
  C264     1.0000 0.85772  0.84452  0.05700  Biso   1.000  C
  H323     1.0000 0.49889  0.94602  0.90639  Biso   1.000  H
  C265     1.0000 0.44414  0.01115  0.88899  Biso   1.000  C
  C266     1.0000 0.35940  0.98503  0.80829  Biso   1.000  C
  H324     1.0000 0.35449  0.90103  0.76958  Biso   1.000  H
  H325     1.0000 0.15405  0.59864  0.00048  Biso   1.000  H
  C267     1.0000 0.26896  0.63152  0.02168  Biso   1.000  C
  C268     1.0000 0.31983  0.67932  0.11088  Biso   1.000  C
  H326     1.0000 0.24296  0.67123  0.14540  Biso   1.000  H
  C269     1.0000 0.27922  0.97473  0.68731  Biso   1.000  C
  H327     1.0000 0.34081  0.91234  0.67990  Biso   1.000  H
  H328     1.0000 0.39284  0.97753  0.71128  Biso   1.000  H
  C270     1.0000 0.24955  0.58192  0.89220  Biso   1.000  C
  H329     1.0000 0.34058  0.65743  0.91139  Biso   1.000  H
  H330     1.0000 0.30966  0.63085  0.85389  Biso   1.000  H
  O42      1.0000 0.89640  0.82152  0.08589  Biso   1.000  O
  N24      1.0000 0.87893  0.90053  0.05017  Biso   1.000  N
  O43      1.0000 0.47717  0.05105  0.93189  Biso   1.000  O
  C271     1.0000 0.39174  0.02452  0.85218  Biso   1.000  C
  O44      1.0000 0.30884  0.00361  0.77509  Biso   1.000  O
  O45      1.0000 0.28379  0.61865  0.97870  Biso   1.000  O
  C272     1.0000 0.33304  0.66254  0.06769  Biso   1.000  C
  O46      1.0000 0.38484  0.71303  0.15798  Biso   1.000  O
  C273     1.0000 0.25792  0.96291  0.73321  Biso   1.000  C
  H331     1.0000 0.23584  0.95234  0.65838  Biso   1.000  H
  H332     1.0000 0.28728  0.01843  0.68731  Biso   1.000  H
  C274     1.0000 0.22096  0.58885  0.93551  Biso   1.000  C
  H333     1.0000 0.20554  0.56262  0.86290  Biso   1.000  H
  H334     1.0000 0.28275  0.55403  0.89589  Biso   1.000  H
  H335     1.0000 0.84347  0.91284  0.03109  Biso   1.000  H
  C275     1.0000 0.95172  0.94323  0.06980  Biso   1.000  C
  C276     1.0000 0.54046  0.05303  0.98359  Biso   1.000  C
  H336     1.0000 0.37827  0.06155  0.85758  Biso   1.000  H
  H337     1.0000 0.38416  0.67032  0.06630  Biso   1.000  H
  C277     1.0000 0.45057  0.73392  0.14540  Biso   1.000  C
  H338     1.0000 0.20575  0.96694  0.73018  Biso   1.000  H
  H339     1.0000 0.25811  0.92092  0.73631  Biso   1.000  H
  H340     1.0000 0.18349  0.61305  0.93091  Biso   1.000  H
  H341     1.0000 0.19504  0.54845  0.93941  Biso   1.000  H
  C278     1.0000 0.95763  0.99844  0.05441  Biso   1.000  C
  C279     1.0000 0.01280  0.93293  0.10169  Biso   1.000  C
  H342     1.0000 0.59165  0.05333  0.98020  Biso   1.000  H
  H343     1.0000 0.52331  0.02159  0.00099  Biso   1.000  H
  C280     1.0000 0.53399  0.11669  0.00450  Biso   1.000  C
  C281     1.0000 0.50057  0.77496  0.19530  Biso   1.000  C
  H344     1.0000 0.44224  0.75732  0.11938  Biso   1.000  H
  H345     1.0000 0.47224  0.70062  0.13518  Biso   1.000  H
  H346     1.0000 0.91449  0.00538  0.03310  Biso   1.000  H
  C282     1.0000 0.02568  0.04202  0.07020  Biso   1.000  C
  H347     1.0000 0.00809  0.89633  0.11329  Biso   1.000  H
  C283     1.0000 0.08126  0.97733  0.11657  Biso   1.000  C
  H348     1.0000 0.48165  0.12052  0.98968  Biso   1.000  H
  C284     1.0000 0.59348  0.16455  0.99209  Biso   1.000  C
  H349     1.0000 0.54297  0.12288  0.04029  Biso   1.000  H
  C285     1.0000 0.47525  0.83336  0.21289  Biso   1.000  C
  H350     1.0000 0.55348  0.78824  0.19359  Biso   1.000  H
  H351     1.0000 0.50116  0.75017  0.22041  Biso   1.000  H
  C286     1.0000 0.08988  0.03250  0.10220  Biso   1.000  C
  O47      1.0000 0.03518  0.09668  0.05791  Biso   1.000  O
  O48      1.0000 0.14141  0.96374  0.14740  Biso   1.000  O
  H352     1.0000 0.56588  0.17634  0.96269  Biso   1.000  H
  C287     1.0000 0.66358  0.15453  0.98319  Biso   1.000  C
  H353     1.0000 0.60941  0.20060  0.01909  Biso   1.000  H
  C288     1.0000 0.45086  0.86504  0.17579  Biso   1.000  C
  H354     1.0000 0.43317  0.82103  0.22719  Biso   1.000  H
  H355     1.0000 0.51853  0.86163  0.23908  Biso   1.000  H
  H356     1.0000 0.13725  0.06270  0.11358  Biso   1.000  H
  C289     1.0000 0.97519  0.10668  0.02241  Biso   1.000  C
  C290     1.0000 0.21657  0.00140  0.15820  Biso   1.000  C
  H357     1.0000 0.64997  0.11944  0.95561  Biso   1.000  H
  C291     1.0000 0.70997  0.20573  0.97221  Biso   1.000  C
  H358     1.0000 0.69398  0.14410  0.01238  Biso   1.000  H
  C292     1.0000 0.42767  0.92123  0.20078  Biso   1.000  C
  H359     1.0000 0.40668  0.83805  0.14941  Biso   1.000  H
  H360     1.0000 0.49259  0.87926  0.16159  Biso   1.000  H
  H361     1.0000 0.98505  0.09712  0.99060  Biso   1.000  H
  C293     1.0000 0.96171  0.15217  0.02500  Biso   1.000  C
  H362     1.0000 0.92819  0.07629  0.02099  Biso   1.000  H
  H363     1.0000 0.25028  0.99002  0.18549  Biso   1.000  H
  C294     1.0000 0.24557  0.99712  0.11909  Biso   1.000  C
  H364     1.0000 0.21678  0.04401  0.16900  Biso   1.000  H
  H365     1.0000 0.67809  0.21843  0.94488  Biso   1.000  H
  C295     1.0000 0.77847  0.19505  0.95878  Biso   1.000  C
  H366     1.0000 0.72713  0.23969  0.00099  Biso   1.000  H
  C296     1.0000 0.39946  0.95343  0.16718  Biso   1.000  C
  H367     1.0000 0.38849  0.90656  0.21679  Biso   1.000  H
  H368     1.0000 0.47287  0.94852  0.22628  Biso   1.000  H
  C297     1.0000 0.90405  0.16913  0.98348  Biso   1.000  C
  H369     1.0000 0.94401  0.15840  0.05441  Biso   1.000  H
  H370     1.0000 0.01088  0.18298  0.03219  Biso   1.000  H
  H371     1.0000 0.24179  0.95424  0.10610  Biso   1.000  H
  H372     1.0000 0.21608  0.01291  0.09290  Biso   1.000  H
  C298     1.0000 0.33058  0.03490  0.13689  Biso   1.000  C
  H373     1.0000 0.76134  0.16161  0.92960  Biso   1.000  H
  H374     1.0000 0.80437  0.23195  0.94981  Biso   1.000  H
  C299     1.0000 0.83394  0.17985  0.99738  Biso   1.000  C
  H375     1.0000 0.35426  0.92405  0.14328  Biso   1.000  H
  H376     1.0000 0.43810  0.96202  0.14959  Biso   1.000  H
  C300     1.0000 0.37593  0.01079  0.17579  Biso   1.000  C
  H377     1.0000 0.93044  0.20623  0.97509  Biso   1.000  H
  H378     1.0000 0.88704  0.13603  0.95408  Biso   1.000  H
  H379     1.0000 0.35218  0.03350  0.10898  Biso   1.000  H
  H380     1.0000 0.33369  0.07769  0.14970  Biso   1.000  H
  H381     1.0000 0.80820  0.14291  0.00639  Biso   1.000  H
  H382     1.0000 0.85111  0.21321  0.02661  Biso   1.000  H
  H383     1.0000 0.34727  0.00669  0.19997  Biso   1.000  H
  H384     1.0000 0.42357  0.04329  0.19220  Biso   1.000  H
  O49      1.0000 0.26242  0.26929  0.19748  Biso   1.000  O
  C301     1.0000 0.20180  0.27012  0.17180  Biso   1.000  C
  N25      1.0000 0.19069  0.31271  0.14550  Biso   1.000  N
  N26      1.0000 0.13450  0.22690  0.16490  Biso   1.000  N
  C302     1.0000 0.24644  0.36222  0.14072  Biso   1.000  C
  H385     1.0000 0.14322  0.30940  0.12930  Biso   1.000  H
  H386     1.0000 0.09372  0.23083  0.14411  Biso   1.000  H
  C303     1.0000 0.12441  0.17691  0.18800  Biso   1.000  C
  C304     1.0000 0.21974  0.40272  0.11489  Biso   1.000  C
  C305     1.0000 0.32289  0.36960  0.15808  Biso   1.000  C
  C306     1.0000 0.18211  0.16019  0.21770  Biso   1.000  C
  C307     1.0000 0.04708  0.14472  0.17961  Biso   1.000  C
  C308     1.0000 0.26914  0.45249  0.10821  Biso   1.000  C
  H387     1.0000 0.16643  0.39619  0.10139  Biso   1.000  H
  C309     1.0000 0.37483  0.41950  0.15239  Biso   1.000  C
  H388     1.0000 0.34122  0.34062  0.17421  Biso   1.000  H
  H389     1.0000 0.23352  0.18240  0.22350  Biso   1.000  H
  C310     1.0000 0.16566  0.11090  0.23940  Biso   1.000  C
  C311     1.0000 0.03241  0.09541  0.20040  Biso   1.000  C
  H390     1.0000 0.00669  0.15691  0.16009  Biso   1.000  H
  C312     1.0000 0.23456  0.49342  0.07581  Biso   1.000  C
  C313     1.0000 0.34575  0.46111  0.12791  Biso   1.000  C
  C314     1.0000 0.45970  0.42461  0.17019  Biso   1.000  C
  O50      1.0000 0.22678  0.09872  0.26870  Biso   1.000  O
  C315     1.0000 0.09069  0.07832  0.23090  Biso   1.000  C
  O51      1.0000 0.96041  0.06101  0.19540  Biso   1.000  O
  H391     1.0000 0.27542  0.52950  0.07731  Biso   1.000  H
  H392     1.0000 0.19625  0.50762  0.08898  Biso   1.000  H
  C316     1.0000 0.19806  0.46103  0.02412  Biso   1.000  C
  O52      1.0000 0.39734  0.51301  0.12361  Biso   1.000  O
  H393     1.0000 0.48890  0.46310  0.16509  Biso   1.000  H
  H394     1.0000 0.47473  0.42520  0.20558  Biso   1.000  H
  C317     1.0000 0.47881  0.37170  0.14291  Biso   1.000  C
  C318     1.0000 0.21497  0.05071  0.29340  Biso   1.000  C
  H395     1.0000 0.07908  0.04470  0.24572  Biso   1.000  H
  C319     1.0000 0.89760  0.06958  0.16118  Biso   1.000  C
  C320     1.0000 0.11913  0.45051  0.00109  Biso   1.000  C
  C321     1.0000 0.24117  0.44071  0.99551  Biso   1.000  C
  C322     1.0000 0.41371  0.56260  0.16381  Biso   1.000  C
  C323     1.0000 0.47861  0.36742  0.09489  Biso   1.000  C
  C324     1.0000 0.49130  0.32321  0.16480  Biso   1.000  C
  H396     1.0000 0.17427  0.05320  0.30901  Biso   1.000  H
  H397     1.0000 0.19876  0.01139  0.26979  Biso   1.000  H
  C325     1.0000 0.28747  0.05499  0.33120  Biso   1.000  C
  C326     1.0000 0.86531  0.11949  0.17979  Biso   1.000  C
  H398     1.0000 0.91351  0.07881  0.13229  Biso   1.000  H
  H399     1.0000 0.85668  0.03122  0.15020  Biso   1.000  H
  H400     1.0000 0.08834  0.46512  0.01901  Biso   1.000  H
  C327     1.0000 0.08599  0.41929  0.95301  Biso   1.000  C
  O53      1.0000 0.31801  0.44879  0.01686  Biso   1.000  O
  C328     1.0000 0.20910  0.40889  0.94732  Biso   1.000  C
  H401     1.0000 0.44935  0.59781  0.15951  Biso   1.000  H
  H402     1.0000 0.36646  0.57290  0.16542  Biso   1.000  H
  H403     1.0000 0.43652  0.55112  0.19420  Biso   1.000  H
  C329     1.0000 0.48581  0.31639  0.06600  Biso   1.000  C
  O54      1.0000 0.46803  0.41549  0.07260  Biso   1.000  O
  H404     1.0000 0.49111  0.32452  0.19770  Biso   1.000  H
  C330     1.0000 0.50382  0.27319  0.13838  Biso   1.000  C
  H405     1.0000 0.30648  0.09673  0.35141  Biso   1.000  H
  H406     1.0000 0.27596  0.02723  0.35279  Biso   1.000  H
  C331     1.0000 0.35079  0.04023  0.31171  Biso   1.000  C
  C332     1.0000 0.79581  0.12281  0.14429  Biso   1.000  C
  H407     1.0000 0.90431  0.15881  0.18771  Biso   1.000  H
  H408     1.0000 0.85339  0.11250  0.21029  Biso   1.000  H
  C333     1.0000 0.13157  0.39948  0.92649  Biso   1.000  C
  N27      1.0000 0.00747  0.40921  0.92911  Biso   1.000  N
  C334     1.0000 0.36495  0.50411  0.01040  Biso   1.000  C
  C335     1.0000 0.25750  0.38332  0.91861  Biso   1.000  C
  C336     1.0000 0.47752  0.31123  0.01332  Biso   1.000  C
  C337     1.0000 0.49921  0.26878  0.08990  Biso   1.000  C
  C338     1.0000 0.53950  0.45599  0.07691  Biso   1.000  C
  N28      1.0000 0.52428  0.22889  0.16490  Biso   1.000  N
  H409     1.0000 0.35620  0.06250  0.28559  Biso   1.000  H
  C339     1.0000 0.42826  0.05653  0.35108  Biso   1.000  C
  H410     1.0000 0.33623  0.99643  0.29708  Biso   1.000  H
  C340     1.0000 0.76351  0.17682  0.15651  Biso   1.000  C
  H411     1.0000 0.80650  0.12352  0.11251  Biso   1.000  H
  H412     1.0000 0.75548  0.08509  0.13980  Biso   1.000  H
  H413     1.0000 0.10908  0.37901  0.89329  Biso   1.000  H
  H414     1.0000 0.99516  0.41538  0.89920  Biso   1.000  H
  C341     1.0000 0.94902  0.39072  0.94859  Biso   1.000  C
  H415     1.0000 0.41862  0.50771  0.02620  Biso   1.000  H
  H416     1.0000 0.35065  0.53899  0.02510  Biso   1.000  H
  H417     1.0000 0.35706  0.50289  0.97548  Biso   1.000  H
  H418     1.0000 0.30057  0.41651  0.91820  Biso   1.000  H
  H419     1.0000 0.22619  0.36518  0.88449  Biso   1.000  H
  C342     1.0000 0.28798  0.33541  0.94152  Biso   1.000  C
  H420     1.0000 0.50775  0.34902  0.00792  Biso   1.000  H
  H421     1.0000 0.49690  0.27733  0.00131  Biso   1.000  H
  C343     1.0000 0.39287  0.29981  0.98490  Biso   1.000  C
  H422     1.0000 0.50507  0.23319  0.07198  Biso   1.000  H
  H423     1.0000 0.53105  0.48911  0.06049  Biso   1.000  H
  H424     1.0000 0.56701  0.47262  0.11149  Biso   1.000  H
  H425     1.0000 0.56960  0.43401  0.06158  Biso   1.000  H
  H426     1.0000 0.54470  0.24039  0.19668  Biso   1.000  H
  C344     1.0000 0.51398  0.16871  0.14342  Biso   1.000  C
  H427     1.0000 0.42058  0.04093  0.38001  Biso   1.000  H
  H428     1.0000 0.44730  0.10120  0.36111  Biso   1.000  H
  C345     1.0000 0.48894  0.03190  0.33528  Biso   1.000  C
  C346     1.0000 0.72980  0.19982  0.12561  Biso   1.000  C
  H429     1.0000 0.80692  0.20969  0.17870  Biso   1.000  H
  H430     1.0000 0.72861  0.16419  0.17589  Biso   1.000  H
  O55      1.0000 0.96043  0.38470  0.99099  Biso   1.000  O
  N29      1.0000 0.88015  0.38161  0.91700  Biso   1.000  N
  C347     1.0000 0.36576  0.34139  0.95961  Biso   1.000  C
  C348     1.0000 0.23718  0.28511  0.94619  Biso   1.000  C
  C349     1.0000 0.34168  0.25031  0.98840  Biso   1.000  C
  O56      1.0000 0.47118  0.14401  0.10241  Biso   1.000  O
  N30      1.0000 0.55668  0.14192  0.17370  Biso   1.000  N
  H431     1.0000 0.49470  0.04513  0.30511  Biso   1.000  H
  C350     1.0000 0.56534  0.05362  0.37439  Biso   1.000  C
  H432     1.0000 0.47250  0.98711  0.32780  Biso   1.000  H
  C351     1.0000 0.70395  0.25592  0.13251  Biso   1.000  C
  H433     1.0000 0.76201  0.20601  0.10350  Biso   1.000  H
  H434     1.0000 0.68331  0.16751  0.10639  Biso   1.000  H
  H435     1.0000 0.87914  0.38528  0.88701  Biso   1.000  H
  C352     1.0000 0.80884  0.36650  0.92649  Biso   1.000  C
  O57      1.0000 0.41799  0.39101  0.95374  Biso   1.000  O
  C353     1.0000 0.26298  0.24042  0.96789  Biso   1.000  C
  H436     1.0000 0.18400  0.28071  0.93440  Biso   1.000  H
  H437     1.0000 0.35974  0.22169  0.00522  Biso   1.000  H
  H438     1.0000 0.57878  0.16280  0.20380  Biso   1.000  H
  C354     1.0000 0.57056  0.08330  0.16301  Biso   1.000  C
  H439     1.0000 0.58226  0.09830  0.38030  Biso   1.000  H
  H440     1.0000 0.55798  0.04289  0.40500  Biso   1.000  H
  C355     1.0000 0.63006  0.02803  0.36301  Biso   1.000  C
  C356     1.0000 0.74941  0.31221  0.12218  Biso   1.000  C
  H441     1.0000 0.65092  0.24682  0.11131  Biso   1.000  H
  H442     1.0000 0.70261  0.26531  0.16669  Biso   1.000  H
  C357     1.0000 0.80236  0.38201  0.97260  Biso   1.000  C
  C358     1.0000 0.74825  0.33700  0.88559  Biso   1.000  C
  C359     1.0000 0.44516  0.37488  0.91280  Biso   1.000  C
  N31      1.0000 0.21498  0.18612  0.97202  Biso   1.000  N
  C360     1.0000 0.53677  0.04410  0.11872  Biso   1.000  C
  C361     1.0000 0.62249  0.07089  0.20011  Biso   1.000  C
  H443     1.0000 0.67608  0.04371  0.39150  Biso   1.000  H
  C362     1.0000 0.65046  0.04353  0.31799  Biso   1.000  C
  H444     1.0000 0.61449  0.98329  0.35859  Biso   1.000  H
  C363     1.0000 0.70624  0.35980  0.11631  Biso   1.000  C
  H445     1.0000 0.79713  0.32950  0.14940  Biso   1.000  H
  H446     1.0000 0.76355  0.30122  0.09201  Biso   1.000  H
  H447     1.0000 0.84595  0.40139  0.99949  Biso   1.000  H
  C364     1.0000 0.73103  0.36851  0.97829  Biso   1.000  C
  C365     1.0000 0.68011  0.32070  0.88909  Biso   1.000  C
  H448     1.0000 0.75705  0.32881  0.85461  Biso   1.000  H
  H449     1.0000 0.48136  0.41039  0.90948  Biso   1.000  H
  H450     1.0000 0.47054  0.34269  0.91799  Biso   1.000  H
  H451     1.0000 0.40206  0.36052  0.88311  Biso   1.000  H
  H452     1.0000 0.23398  0.16979  0.99632  Biso   1.000  H
  C366     1.0000 0.14229  0.15552  0.94301  Biso   1.000  C
  H453     1.0000 0.50111  0.05402  0.09362  Biso   1.000  H
  C367     1.0000 0.55579  0.98888  0.11098  Biso   1.000  C
  C368     1.0000 0.64059  0.01500  0.19168  Biso   1.000  C
  H454     1.0000 0.64545  0.09900  0.23039  Biso   1.000  H
  H455     1.0000 0.65919  0.08770  0.32011  Biso   1.000  H
  H456     1.0000 0.60715  0.02250  0.28869  Biso   1.000  H
  C369     1.0000 0.72079  0.02531  0.31270  Biso   1.000  C
  C370     1.0000 0.75045  0.41812  0.10781  Biso   1.000  C
  H457     1.0000 0.65941  0.34259  0.08858  Biso   1.000  H
  H458     1.0000 0.69036  0.36923  0.14612  Biso   1.000  H
  C371     1.0000 0.66690  0.33748  0.93229  Biso   1.000  C
  O58      1.0000 0.71622  0.38139  0.02131  Biso   1.000  O
  O59      1.0000 0.61515  0.28700  0.84199  Biso   1.000  O
  O60      1.0000 0.10356  0.17852  0.91412  Biso   1.000  O
  N32      1.0000 0.12106  0.09949  0.94980  Biso   1.000  N
  O61      1.0000 0.52284  0.94899  0.06811  Biso   1.000  O
  C372     1.0000 0.60825  0.97550  0.14779  Biso   1.000  C
  O62      1.0000 0.69110  0.99642  0.22488  Biso   1.000  O
  H459     1.0000 0.76415  0.04769  0.34159  Biso   1.000  H
  C373     1.0000 0.74209  0.03712  0.26680  Biso   1.000  C
  H460     1.0000 0.71273  0.98161  0.31270  Biso   1.000  H
  C374     1.0000 0.77904  0.41118  0.06450  Biso   1.000  C
  H461     1.0000 0.79441  0.43742  0.13710  Biso   1.000  H
  H462     1.0000 0.71724  0.44600  0.10409  Biso   1.000  H
  H463     1.0000 0.61585  0.32971  0.93371  Biso   1.000  H
  C375     1.0000 0.54944  0.26612  0.85461  Biso   1.000  C
  H464     1.0000 0.15654  0.08719  0.96892  Biso   1.000  H
  C376     1.0000 0.04828  0.05681  0.93021  Biso   1.000  C
  C377     1.0000 0.45955  0.94701  0.01642  Biso   1.000  C
  H465     1.0000 0.62173  0.93852  0.14239  Biso   1.000  H
  H466     1.0000 0.79424  0.03309  0.26979  Biso   1.000  H
  H467     1.0000 0.74185  0.07911  0.26370  Biso   1.000  H
  H468     1.0000 0.81652  0.38698  0.06910  Biso   1.000  H
  H469     1.0000 0.80492  0.45159  0.06060  Biso   1.000  H
  C378     1.0000 0.49944  0.22512  0.80470  Biso   1.000  C
  H470     1.0000 0.55775  0.24270  0.88059  Biso   1.000  H
  H471     1.0000 0.52775  0.29940  0.86479  Biso   1.000  H
  C379     1.0000 0.98719  0.06710  0.89828  Biso   1.000  C
  C380     1.0000 0.04233  0.00160  0.94560  Biso   1.000  C
  H472     1.0000 0.47669  0.97844  0.99901  Biso   1.000  H
  C381     1.0000 0.46602  0.88335  0.99551  Biso   1.000  C
  H473     1.0000 0.40836  0.94671  0.01981  Biso   1.000  H
  C382     1.0000 0.52472  0.16672  0.78712  Biso   1.000  C
  H474     1.0000 0.44653  0.21180  0.80642  Biso   1.000  H
  H475     1.0000 0.49886  0.24991  0.77960  Biso   1.000  H
  H476     1.0000 0.99190  0.10370  0.88668  Biso   1.000  H
  C383     1.0000 0.91868  0.02270  0.88340  Biso   1.000  C
  C384     1.0000 0.97434  0.95806  0.92981  Biso   1.000  C
  H477     1.0000 0.08552  0.99466  0.96691  Biso   1.000  H
  H478     1.0000 0.45696  0.87715  0.95969  Biso   1.000  H
  H479     1.0000 0.51834  0.87951  0.01029  Biso   1.000  H
  C385     1.0000 0.40652  0.83549  0.00792  Biso   1.000  C
  C386     1.0000 0.54913  0.13499  0.82419  Biso   1.000  C
  H480     1.0000 0.56684  0.17901  0.77282  Biso   1.000  H
  H481     1.0000 0.48141  0.13840  0.76089  Biso   1.000  H
  C387     1.0000 0.91013  0.96753  0.89781  Biso   1.000  C
  O63      1.0000 0.85860  0.03629  0.85261  Biso   1.000  O
  O64      1.0000 0.96483  0.90336  0.94210  Biso   1.000  O
  H482     1.0000 0.39058  0.79943  0.98088  Biso   1.000  H
  H483     1.0000 0.43412  0.82369  0.03729  Biso   1.000  H
  C388     1.0000 0.33641  0.84549  0.01678  Biso   1.000  C
  C389     1.0000 0.57232  0.07880  0.79920  Biso   1.000  C
  H484     1.0000 0.59332  0.16199  0.85060  Biso   1.000  H
  H485     1.0000 0.50742  0.12078  0.83842  Biso   1.000  H
  H486     1.0000 0.86269  0.93733  0.88639  Biso   1.000  H
  C390     1.0000 0.78344  0.99864  0.84181  Biso   1.000  C
  C391     1.0000 0.02482  0.89335  0.97760  Biso   1.000  C
  H487     1.0000 0.30596  0.85593  0.98760  Biso   1.000  H
  H488     1.0000 0.35003  0.88060  0.04440  Biso   1.000  H
  C392     1.0000 0.29004  0.79430  0.02780  Biso   1.000  C
  C393     1.0000 0.60053  0.04659  0.83280  Biso   1.000  C
  H489     1.0000 0.61153  0.09352  0.78322  Biso   1.000  H
  H490     1.0000 0.52712  0.05151  0.77369  Biso   1.000  H
  H491     1.0000 0.78322  0.95602  0.83101  Biso   1.000  H
  H492     1.0000 0.74973  0.01002  0.81452  Biso   1.000  H
  C394     1.0000 0.75443  0.00291  0.88092  Biso   1.000  C
  C395     1.0000 0.03830  0.84786  0.97501  Biso   1.000  C
  H493     1.0000 0.07180  0.92374  0.97899  Biso   1.000  H
  H494     1.0000 0.01496  0.90292  0.00941  Biso   1.000  H
  H495     1.0000 0.27287  0.76035  0.99901  Biso   1.000  H
  H496     1.0000 0.32190  0.78160  0.05509  Biso   1.000  H
  C396     1.0000 0.22153  0.80502  0.04119  Biso   1.000  C
  C397     1.0000 0.62401  0.98924  0.82419  Biso   1.000  C
  H497     1.0000 0.64573  0.07598  0.85669  Biso   1.000  H
  H498     1.0000 0.56191  0.03802  0.85042  Biso   1.000  H
  H499     1.0000 0.78393  0.98713  0.90711  Biso   1.000  H
  C398     1.0000 0.66943  0.96513  0.86311  Biso   1.000  C
  H500     1.0000 0.75822  0.04580  0.89391  Biso   1.000  H
  H501     1.0000 0.98912  0.81704  0.96779  Biso   1.000  H
  H502     1.0000 0.05599  0.84164  0.94560  Biso   1.000  H
  C399     1.0000 0.09594  0.83090  0.01649  Biso   1.000  C
  H503     1.0000 0.23866  0.83842  0.07041  Biso   1.000  H
  H504     1.0000 0.19564  0.76809  0.05020  Biso   1.000  H
  C400     1.0000 0.16600  0.82018  0.00259  Biso   1.000  C
  H505     1.0000 0.65272  0.99334  0.80000  Biso   1.000  H
  H506     1.0000 0.57644  0.95675  0.80781  Biso   1.000  H
  H507     1.0000 0.64781  0.96653  0.89099  Biso   1.000  H
  H508     1.0000 0.66632  0.92234  0.85031  Biso   1.000  H
  H509     1.0000 0.06955  0.79380  0.02488  Biso   1.000  H
  H510     1.0000 0.11295  0.86400  0.04590  Biso   1.000  H
  H511     1.0000 0.19182  0.85717  0.99362  Biso   1.000  H
  H512     1.0000 0.14890  0.78683  0.97340  Biso   1.000  H
