data_image0
_cell_length_a       47.266
_cell_length_b       47.266
_cell_length_c       47.266
_cell_angle_alpha    90
_cell_angle_beta     90
_cell_angle_gamma    90

_symmetry_space_group_name_H-M    "P 1"
_symmetry_int_tables_number       1

loop_
  _symmetry_equiv_pos_as_xyz
  'x, y, z'

loop_
  _atom_site_label
  _atom_site_occupancy
  _atom_site_fract_x
  _atom_site_fract_y
  _atom_site_fract_z
  _atom_site_thermal_displace_type
  _atom_site_B_iso_or_equiv
  _atom_site_type_symbol
  C1       1.0000 0.60403  0.36326  0.46164  Biso   1.000  C
  C2       1.0000 0.58558  0.33950  0.46306  Biso   1.000  C
  C3       1.0000 0.61660  0.37200  0.43759  Biso   1.000  C
  C4       1.0000 0.57625  0.32956  0.43628  Biso   1.000  C
  C5       1.0000 0.60672  0.36075  0.41125  Biso   1.000  C
  C6       1.0000 0.63773  0.39650  0.43621  Biso   1.000  C
  N1       1.0000 0.55769  0.30586  0.43568  Biso   1.000  N
  C7       1.0000 0.58721  0.33898  0.41260  Biso   1.000  C
  N2       1.0000 0.64844  0.40636  0.41776  Biso   1.000  N
  C8       1.0000 0.53542  0.30354  0.41548  Biso   1.000  C
  C9       1.0000 0.55820  0.28380  0.45968  Biso   1.000  C
  C10      1.0000 0.66885  0.42995  0.41747  Biso   1.000  C
  C11      1.0000 0.52334  0.32685  0.40596  Biso   1.000  C
  C12      1.0000 0.52628  0.27794  0.40507  Biso   1.000  C
  C13      1.0000 0.53645  0.27413  0.47040  Biso   1.000  C
  C14      1.0000 0.58431  0.27443  0.46831  Biso   1.000  C
  C15      1.0000 0.69828  0.42515  0.40319  Biso   1.000  C
  C16      1.0000 0.65284  0.45627  0.40826  Biso   1.000  C
  C17      1.0000 0.50104  0.32520  0.38948  Biso   1.000  C
  H1       1.0000 0.53080  0.34479  0.41110  Biso   1.000  H
  C18      1.0000 0.50465  0.27555  0.38806  Biso   1.000  C
  H2       1.0000 0.53609  0.26131  0.41051  Biso   1.000  H
  C19      1.0000 0.53770  0.25418  0.49295  Biso   1.000  C
  C20      1.0000 0.58704  0.25365  0.48866  Biso   1.000  C
  N3       1.0000 0.71096  0.39984  0.41857  Biso   1.000  N
  C21      1.0000 0.71631  0.44950  0.40941  Biso   1.000  C
  C22      1.0000 0.67427  0.48487  0.41406  Biso   1.000  C
  C23      1.0000 0.49103  0.29952  0.37932  Biso   1.000  C
  H3       1.0000 0.49149  0.34211  0.38429  Biso   1.000  H
  H4       1.0000 0.49850  0.25739  0.38190  Biso   1.000  H
  C24      1.0000 0.56381  0.24502  0.50036  Biso   1.000  C
  C25      1.0000 0.71770  0.38233  0.39963  Biso   1.000  C
  C26      1.0000 0.69923  0.47762  0.39915  Biso   1.000  C
  C27      1.0000 0.46427  0.29651  0.36030  Biso   1.000  C
  C28      1.0000 0.56540  0.22509  0.52490  Biso   1.000  C
  C29      1.0000 0.73357  0.35577  0.40903  Biso   1.000  C
  H5       1.0000 0.71309  0.38550  0.38029  Biso   1.000  H
  N4       1.0000 0.45494  0.27303  0.35222  Biso   1.000  N
  H6       1.0000 0.45460  0.31321  0.35459  Biso   1.000  H
  N5       1.0000 0.58736  0.21648  0.53635  Biso   1.000  N
  C30      1.0000 0.74275  0.33828  0.38977  Biso   1.000  C
  C31      1.0000 0.73966  0.34860  0.43606  Biso   1.000  C
  C32      1.0000 0.42893  0.27297  0.33639  Biso   1.000  C
  C33      1.0000 0.58734  0.19695  0.55852  Biso   1.000  C
  C34      1.0000 0.75881  0.31454  0.39536  Biso   1.000  C
  H7       1.0000 0.73810  0.34211  0.37060  Biso   1.000  H
  H8       1.0000 0.73260  0.36079  0.45039  Biso   1.000  H
  C35      1.0000 0.75479  0.32584  0.44484  Biso   1.000  C
  C36      1.0000 0.40454  0.26260  0.35296  Biso   1.000  C
  C37      1.0000 0.43236  0.25752  0.30952  Biso   1.000  C
  H9       1.0000 0.42479  0.29311  0.33140  Biso   1.000  H
  C38      1.0000 0.60576  0.17177  0.55395  Biso   1.000  C
  C39      1.0000 0.59417  0.21161  0.58782  Biso   1.000  C
  C40      1.0000 0.76414  0.30732  0.42295  Biso   1.000  C
  H10      1.0000 0.76609  0.30339  0.38029  Biso   1.000  H
  H11      1.0000 0.75890  0.32249  0.46420  Biso   1.000  H
  C41      1.0000 0.37769  0.26179  0.33610  Biso   1.000  C
  H12      1.0000 0.40179  0.27500  0.36959  Biso   1.000  H
  H13      1.0000 0.40879  0.24330  0.36001  Biso   1.000  H
  C42      1.0000 0.40649  0.25477  0.29251  Biso   1.000  C
  N6       1.0000 0.45750  0.26746  0.29306  Biso   1.000  N
  H14      1.0000 0.43721  0.23770  0.31530  Biso   1.000  H
  N7       1.0000 0.59502  0.15614  0.52964  Biso   1.000  N
  C43      1.0000 0.60320  0.15057  0.57968  Biso   1.000  C
  C44      1.0000 0.59224  0.19276  0.61186  Biso   1.000  C
  N8       1.0000 0.78037  0.28128  0.42965  Biso   1.000  N
  C45      1.0000 0.38186  0.24250  0.31012  Biso   1.000  C
  H15      1.0000 0.37259  0.28109  0.32990  Biso   1.000  H
  H16      1.0000 0.36210  0.25439  0.34799  Biso   1.000  H
  H17      1.0000 0.41019  0.24220  0.27620  Biso   1.000  H
  H18      1.0000 0.40101  0.27360  0.28509  Biso   1.000  H
  C46      1.0000 0.47537  0.25048  0.28492  Biso   1.000  C
  C47      1.0000 0.61105  0.15193  0.51126  Biso   1.000  C
  C48      1.0000 0.61289  0.16424  0.60646  Biso   1.000  C
  C49      1.0000 0.80373  0.27347  0.41214  Biso   1.000  C
  C50      1.0000 0.77375  0.26529  0.45424  Biso   1.000  C
  H19      1.0000 0.36430  0.24199  0.29861  Biso   1.000  H
  H20      1.0000 0.38639  0.22299  0.31619  Biso   1.000  H
  C51      1.0000 0.50076  0.25945  0.26768  Biso   1.000  C
  H21      1.0000 0.47319  0.23110  0.28960  Biso   1.000  H
  C52      1.0000 0.60707  0.13739  0.48460  Biso   1.000  C
  H22      1.0000 0.62959  0.15921  0.51430  Biso   1.000  H
  C53      1.0000 0.80969  0.24595  0.40873  Biso   1.000  C
  C54      1.0000 0.82313  0.29264  0.40061  Biso   1.000  C
  C55      1.0000 0.74684  0.25826  0.45792  Biso   1.000  C
  C56      1.0000 0.79524  0.25608  0.47178  Biso   1.000  C
  C57      1.0000 0.51919  0.23922  0.25837  Biso   1.000  C
  C58      1.0000 0.50425  0.28621  0.26012  Biso   1.000  C
  C59      1.0000 0.57932  0.13119  0.47575  Biso   1.000  C
  C60      1.0000 0.62758  0.12635  0.46592  Biso   1.000  C
  H23      1.0000 0.80019  0.23220  0.41990  Biso   1.000  H
  C61      1.0000 0.82924  0.23751  0.38933  Biso   1.000  C
  C62      1.0000 0.84532  0.28458  0.38508  Biso   1.000  C
  H24      1.0000 0.82040  0.31230  0.40399  Biso   1.000  H
  H25      1.0000 0.73289  0.26459  0.44489  Biso   1.000  H
  C63      1.0000 0.73922  0.24163  0.48081  Biso   1.000  C
  C64      1.0000 0.78621  0.23988  0.49573  Biso   1.000  C
  H26      1.0000 0.81460  0.26021  0.46820  Biso   1.000  H
  C65      1.0000 0.54208  0.24686  0.24174  Biso   1.000  C
  H27      1.0000 0.51629  0.21990  0.26330  Biso   1.000  H
  H28      1.0000 0.49050  0.29979  0.26560  Biso   1.000  H
  C66      1.0000 0.52822  0.29524  0.24392  Biso   1.000  C
  C67      1.0000 0.57496  0.11676  0.45039  Biso   1.000  C
  C68      1.0000 0.62428  0.11304  0.44216  Biso   1.000  C
  H29      1.0000 0.82829  0.21889  0.38190  Biso   1.000  H
  C69      1.0000 0.85067  0.25583  0.38010  Biso   1.000  C
  H30      1.0000 0.85759  0.29850  0.37729  Biso   1.000  H
  H31      1.0000 0.71990  0.23670  0.48369  Biso   1.000  H
  C70      1.0000 0.75943  0.23232  0.49924  Biso   1.000  C
  H32      1.0000 0.79979  0.23440  0.50950  Biso   1.000  H
  C71      1.0000 0.54574  0.27375  0.23471  Biso   1.000  C
  H33      1.0000 0.55509  0.23289  0.23539  Biso   1.000  H
  H34      1.0000 0.53180  0.31460  0.23979  Biso   1.000  H
  C72      1.0000 0.59588  0.10693  0.43448  Biso   1.000  C
  C73      1.0000 0.87397  0.24603  0.36405  Biso   1.000  C
  C74      1.0000 0.75048  0.21506  0.52463  Biso   1.000  C
  N9       1.0000 0.57033  0.28037  0.21872  Biso   1.000  N
  N10      1.0000 0.59038  0.09038  0.40962  Biso   1.000  N
  N11      1.0000 0.89286  0.25936  0.35370  Biso   1.000  N
  H35      1.0000 0.87469  0.22619  0.36111  Biso   1.000  H
  N12      1.0000 0.76746  0.20694  0.54250  Biso   1.000  N
  H36      1.0000 0.73110  0.21040  0.52681  Biso   1.000  H
  C75      1.0000 0.58786  0.30373  0.22653  Biso   1.000  C
  C76      1.0000 0.57703  0.26416  0.19268  Biso   1.000  C
  C77      1.0000 0.60691  0.06550  0.40412  Biso   1.000  C
  C78      1.0000 0.56550  0.09588  0.39307  Biso   1.000  C
  C79      1.0000 0.91713  0.24472  0.33788  Biso   1.000  C
  C80      1.0000 0.75752  0.19048  0.56762  Biso   1.000  C
  C81      1.0000 0.59127  0.30972  0.25405  Biso   1.000  C
  C82      1.0000 0.59939  0.32313  0.20736  Biso   1.000  C
  C83      1.0000 0.60464  0.25881  0.18544  Biso   1.000  C
  C84      1.0000 0.55516  0.25479  0.17414  Biso   1.000  C
  C85      1.0000 0.61676  0.04959  0.42502  Biso   1.000  C
  C86      1.0000 0.61304  0.05782  0.37570  Biso   1.000  C
  C87      1.0000 0.54959  0.07498  0.38324  Biso   1.000  C
  C88      1.0000 0.55782  0.12430  0.38694  Biso   1.000  C
  C89      1.0000 0.92041  0.25928  0.30885  Biso   1.000  C
  H37      1.0000 0.91199  0.22439  0.33481  Biso   1.000  H
  C90      1.0000 0.94497  0.24601  0.35499  Biso   1.000  C
  H38      1.0000 0.73770  0.18470  0.56279  Biso   1.000  H
  C91      1.0000 0.77294  0.16361  0.57107  Biso   1.000  C
  C92      1.0000 0.75477  0.20749  0.59351  Biso   1.000  C
  H39      1.0000 0.58010  0.30019  0.26780  Biso   1.000  H
  C93      1.0000 0.61067  0.32924  0.26249  Biso   1.000  C
  C94      1.0000 0.61492  0.34532  0.21540  Biso   1.000  C
  H40      1.0000 0.59599  0.32040  0.18770  Biso   1.000  H
  H41      1.0000 0.61968  0.26609  0.19659  Biso   1.000  H
  C95      1.0000 0.61021  0.24275  0.16172  Biso   1.000  C
  C96      1.0000 0.56391  0.23969  0.15140  Biso   1.000  C
  H42      1.0000 0.53580  0.25890  0.17751  Biso   1.000  H
  C97      1.0000 0.63119  0.02425  0.42068  Biso   1.000  C
  C98      1.0000 0.62633  0.03406  0.37242  Biso   1.000  C
  C99      1.0000 0.52425  0.07932  0.36881  Biso   1.000  C
  C100     1.0000 0.53406  0.12758  0.37365  Biso   1.000  C
  N13      1.0000 0.89388  0.25687  0.29218  Biso   1.000  N
  H43      1.0000 0.92479  0.27980  0.31179  Biso   1.000  H
  C101     1.0000 0.94480  0.24548  0.29412  Biso   1.000  C
  H44      1.0000 0.94958  0.26590  0.35979  Biso   1.000  H
  H45      1.0000 0.94298  0.23520  0.37280  Biso   1.000  H
  C102     1.0000 0.96664  0.23408  0.33792  Biso   1.000  C
  N14      1.0000 0.77303  0.14778  0.54506  Biso   1.000  N
  H46      1.0000 0.79309  0.16860  0.57519  Biso   1.000  H
  C103     1.0000 0.76260  0.14704  0.59546  Biso   1.000  C
  C104     1.0000 0.74250  0.18988  0.61814  Biso   1.000  C
  H47      1.0000 0.74220  0.22380  0.58979  Biso   1.000  H
  H48      1.0000 0.77360  0.21489  0.59899  Biso   1.000  H
  H49      1.0000 0.61810  0.32829  0.28109  Biso   1.000  H
  C105     1.0000 0.61987  0.35067  0.24415  Biso   1.000  C
  H50      1.0000 0.62269  0.35759  0.20150  Biso   1.000  H
  H51      1.0000 0.62940  0.23810  0.15789  Biso   1.000  H
  C106     1.0000 0.59097  0.23357  0.14423  Biso   1.000  C
  H52      1.0000 0.54959  0.23260  0.13919  Biso   1.000  H
  C107     1.0000 0.63739  0.01538  0.39293  Biso   1.000  C
  C108     1.0000 0.51538  0.10707  0.36261  Biso   1.000  C
  C109     1.0000 0.88389  0.28029  0.28492  Biso   1.000  C
  C110     1.0000 0.97322  0.24904  0.31022  Biso   1.000  C
  H53      1.0000 0.94679  0.25369  0.27500  Biso   1.000  H
  H54      1.0000 0.94078  0.22500  0.29190  Biso   1.000  H
  H55      1.0000 0.96128  0.21430  0.33350  Biso   1.000  H
  H56      1.0000 0.98420  0.23340  0.34930  Biso   1.000  H
  C111     1.0000 0.79651  0.13970  0.53573  Biso   1.000  C
  H57      1.0000 0.77500  0.13039  0.59819  Biso   1.000  H
  H58      1.0000 0.74330  0.13999  0.59119  Biso   1.000  H
  C112     1.0000 0.76179  0.16390  0.62231  Biso   1.000  C
  H59      1.0000 0.74199  0.20139  0.63570  Biso   1.000  H
  H60      1.0000 0.72299  0.18379  0.61359  Biso   1.000  H
  C113     1.0000 0.63595  0.37397  0.25397  Biso   1.000  C
  C114     1.0000 0.60037  0.21773  0.11767  Biso   1.000  C
  C115     1.0000 0.65193  0.98874  0.38895  Biso   1.000  C
  C116     1.0000 0.48874  0.11105  0.34807  Biso   1.000  C
  C117     1.0000 0.85713  0.27881  0.26759  Biso   1.000  C
  H61      1.0000 0.89250  0.29770  0.29000  Biso   1.000  H
  H62      1.0000 0.98900  0.23979  0.30009  Biso   1.000  H
  H63      1.0000 0.97789  0.26920  0.31329  Biso   1.000  H
  C118     1.0000 0.79950  0.12068  0.50897  Biso   1.000  C
  H64      1.0000 0.81318  0.14539  0.54540  Biso   1.000  H
  H65      1.0000 0.78109  0.17010  0.62739  Biso   1.000  H
  H66      1.0000 0.75439  0.15199  0.63790  Biso   1.000  H
  N15      1.0000 0.64628  0.39286  0.24064  Biso   1.000  N
  H67      1.0000 0.63889  0.37469  0.27379  Biso   1.000  H
  N16      1.0000 0.58141  0.21096  0.10016  Biso   1.000  N
  H68      1.0000 0.61968  0.21309  0.11450  Biso   1.000  H
  N17      1.0000 0.65614  0.97036  0.40498  Biso   1.000  N
  H69      1.0000 0.65918  0.98570  0.37039  Biso   1.000  H
  N18      1.0000 0.47034  0.09502  0.34386  Biso   1.000  N
  H70      1.0000 0.48570  0.12961  0.34079  Biso   1.000  H
  C119     1.0000 0.84744  0.30589  0.25773  Biso   1.000  C
  C120     1.0000 0.84283  0.25678  0.25957  Biso   1.000  C
  C121     1.0000 0.82520  0.11052  0.49894  Biso   1.000  C
  C122     1.0000 0.77553  0.11194  0.49535  Biso   1.000  C
  C123     1.0000 0.66210  0.41713  0.25526  Biso   1.000  C
  C124     1.0000 0.59679  0.19828  0.07483  Biso   1.000  C
  C125     1.0000 0.67177  0.94605  0.39424  Biso   1.000  C
  C126     1.0000 0.44605  0.10576  0.32823  Biso   1.000  C
  C127     1.0000 0.82277  0.30756  0.24161  Biso   1.000  C
  H71      1.0000 0.85778  0.32260  0.26220  Biso   1.000  H
  C128     1.0000 0.82051  0.25885  0.24358  Biso   1.000  C
  H72      1.0000 0.84890  0.23861  0.26550  Biso   1.000  H
  C129     1.0000 0.82685  0.09402  0.47664  Biso   1.000  C
  H73      1.0000 0.84209  0.11571  0.50851  Biso   1.000  H
  H74      1.0000 0.75739  0.11810  0.50150  Biso   1.000  H
  C130     1.0000 0.77794  0.09491  0.47370  Biso   1.000  C
  C131     1.0000 0.69115  0.42041  0.24070  Biso   1.000  C
  H75      1.0000 0.66519  0.41199  0.27559  Biso   1.000  H
  C132     1.0000 0.64499  0.44497  0.25399  Biso   1.000  C
  C133     1.0000 0.58251  0.16885  0.07005  Biso   1.000  C
  C134     1.0000 0.59059  0.21631  0.05050  Biso   1.000  C
  C135     1.0000 0.69695  0.94148  0.41266  Biso   1.000  C
  C136     1.0000 0.65057  0.92032  0.39680  Biso   1.000  C
  C137     1.0000 0.44146  0.08734  0.30303  Biso   1.000  C
  C138     1.0000 0.42032  0.10320  0.34943  Biso   1.000  C
  C139     1.0000 0.80893  0.28401  0.23309  Biso   1.000  C
  H76      1.0000 0.81560  0.32560  0.23649  Biso   1.000  H
  H77      1.0000 0.81120  0.24170  0.23861  Biso   1.000  H
  C140     1.0000 0.80354  0.08452  0.46456  Biso   1.000  C
  H78      1.0000 0.84479  0.08890  0.46920  Biso   1.000  H
  H79      1.0000 0.76129  0.08949  0.46391  Biso   1.000  H
  N19      1.0000 0.70782  0.39388  0.24313  Biso   1.000  N
  H80      1.0000 0.68819  0.42479  0.22020  Biso   1.000  H
  C141     1.0000 0.70588  0.44482  0.25452  Biso   1.000  C
  H81      1.0000 0.64019  0.44960  0.23410  Biso   1.000  H
  H82      1.0000 0.62720  0.44300  0.26480  Biso   1.000  H
  C142     1.0000 0.66206  0.46664  0.26590  Biso   1.000  C
  N20      1.0000 0.58224  0.14846  0.09364  Biso   1.000  N
  C143     1.0000 0.59174  0.15286  0.04373  Biso   1.000  C
  C144     1.0000 0.60085  0.19923  0.02238  Biso   1.000  C
  N21      1.0000 0.71648  0.96365  0.41264  Biso   1.000  N
  C145     1.0000 0.71161  0.91218  0.40583  Biso   1.000  C
  C146     1.0000 0.66424  0.89354  0.38711  Biso   1.000  C
  N22      1.0000 0.46365  0.08736  0.28352  Biso   1.000  N
  C147     1.0000 0.41218  0.09417  0.28837  Biso   1.000  C
  C148     1.0000 0.39354  0.11289  0.33574  Biso   1.000  C
  N23      1.0000 0.78477  0.28477  0.21523  Biso   1.000  N
  N24      1.0000 0.80586  0.06432  0.44231  Biso   1.000  N
  C149     1.0000 0.71506  0.38389  0.21971  Biso   1.000  C
  C150     1.0000 0.68978  0.47322  0.25096  Biso   1.000  C
  H83      1.0000 0.72500  0.44679  0.24631  Biso   1.000  H
  H84      1.0000 0.70810  0.44080  0.27500  Biso   1.000  H
  H85      1.0000 0.66650  0.46130  0.28570  Biso   1.000  H
  H86      1.0000 0.65070  0.48420  0.26660  Biso   1.000  H
  C151     1.0000 0.56379  0.13773  0.10350  Biso   1.000  C
  C152     1.0000 0.58592  0.17427  0.01513  Biso   1.000  C
  C153     1.0000 0.72509  0.97510  0.43458  Biso   1.000  C
  C154     1.0000 0.69276  0.88814  0.40776  Biso   1.000  C
  C155     1.0000 0.47508  0.06542  0.27491  Biso   1.000  C
  C156     1.0000 0.38814  0.09224  0.30722  Biso   1.000  C
  C157     1.0000 0.76691  0.30893  0.21597  Biso   1.000  C
  C158     1.0000 0.78401  0.26691  0.19107  Biso   1.000  C
  C159     1.0000 0.78380  0.04032  0.44178  Biso   1.000  C
  C160     1.0000 0.82956  0.06372  0.42373  Biso   1.000  C
  C161     1.0000 0.73241  0.35713  0.22119  Biso   1.000  C
  H87      1.0000 0.71000  0.39250  0.20230  Biso   1.000  H
  H88      1.0000 0.69989  0.48900  0.26021  Biso   1.000  H
  H89      1.0000 0.68669  0.47789  0.23080  Biso   1.000  H
  C162     1.0000 0.56241  0.11662  0.12800  Biso   1.000  C
  C163     1.0000 0.74502  0.99964  0.43619  Biso   1.000  C
  C164     1.0000 0.49964  0.06381  0.25496  Biso   1.000  C
  C165     1.0000 0.75839  0.32277  0.19244  Biso   1.000  C
  C166     1.0000 0.75640  0.32051  0.24115  Biso   1.000  C
  C167     1.0000 0.80754  0.25839  0.17721  Biso   1.000  C
  C168     1.0000 0.75885  0.25640  0.17949  Biso   1.000  C
  C169     1.0000 0.77413  0.02960  0.46355  Biso   1.000  C
  C170     1.0000 0.77440  0.03167  0.41567  Biso   1.000  C
  C171     1.0000 0.83950  0.03694  0.41442  Biso   1.000  C
  C172     1.0000 0.83898  0.08740  0.41279  Biso   1.000  C
  C173     1.0000 0.74225  0.34744  0.19411  Biso   1.000  C
  C174     1.0000 0.74043  0.34285  0.24320  Biso   1.000  C
  C175     1.0000 0.53836  0.10403  0.13674  Biso   1.000  C
  C176     1.0000 0.58873  0.10672  0.13925  Biso   1.000  C
  C177     1.0000 0.75418  0.00705  0.46230  Biso   1.000  C
  C178     1.0000 0.75365  0.01134  0.41296  Biso   1.000  C
  C179     1.0000 0.50705  0.03770  0.24580  Biso   1.000  C
  C180     1.0000 0.51134  0.08704  0.24633  Biso   1.000  C
  H90      1.0000 0.76349  0.31560  0.17440  Biso   1.000  H
  H91      1.0000 0.76139  0.31120  0.25830  Biso   1.000  H
  H92      1.0000 0.82558  0.26349  0.18440  Biso   1.000  H
  C181     1.0000 0.80589  0.24227  0.15256  Biso   1.000  C
  C182     1.0000 0.75678  0.24043  0.15715  Biso   1.000  C
  H93      1.0000 0.74170  0.26139  0.18880  Biso   1.000  H
  C183     1.0000 0.86326  0.03836  0.39597  Biso   1.000  C
  C184     1.0000 0.86075  0.08873  0.39328  Biso   1.000  C
  H94      1.0000 0.73780  0.35780  0.17740  Biso   1.000  H
  H95      1.0000 0.73450  0.34890  0.26139  Biso   1.000  H
  C185     1.0000 0.53694  0.08558  0.16050  Biso   1.000  C
  C186     1.0000 0.58740  0.08721  0.16102  Biso   1.000  C
  C187     1.0000 0.52958  0.03645  0.22585  Biso   1.000  C
  C188     1.0000 0.53167  0.08431  0.22557  Biso   1.000  C
  H96      1.0000 0.82260  0.23780  0.14220  Biso   1.000  H
  C189     1.0000 0.77878  0.23241  0.14285  Biso   1.000  C
  H97      1.0000 0.73859  0.23450  0.15110  Biso   1.000  H
  C190     1.0000 0.87200  0.06241  0.38338  Biso   1.000  C
  C191     1.0000 0.56372  0.07625  0.17044  Biso   1.000  C
  C192     1.0000 0.54032  0.05820  0.21618  Biso   1.000  C
  C193     1.0000 0.78026  0.21506  0.11611  Biso   1.000  C
  C194     1.0000 0.89650  0.06379  0.36227  Biso   1.000  C
  N25      1.0000 0.56432  0.05769  0.19414  Biso   1.000  N
  N26      1.0000 0.75684  0.20782  0.10610  Biso   1.000  N
  H98      1.0000 0.79770  0.21000  0.10750  Biso   1.000  H
  N27      1.0000 0.90636  0.08224  0.35154  Biso   1.000  N
  C195     1.0000 0.58452  0.03544  0.19644  Biso   1.000  C
  C196     1.0000 0.75928  0.19115  0.07959  Biso   1.000  C
  C197     1.0000 0.92995  0.08251  0.33115  Biso   1.000  C
  C198     1.0000 0.59402  0.02336  0.17315  Biso   1.000  C
  C199     1.0000 0.59491  0.02630  0.22206  Biso   1.000  C
  H99      1.0000 0.77980  0.18819  0.07519  Biso   1.000  H
  C200     1.0000 0.74472  0.16212  0.08285  Biso   1.000  C
  C201     1.0000 0.74548  0.20588  0.05518  Biso   1.000  C
  C202     1.0000 0.92515  0.09679  0.30172  Biso   1.000  C
  C203     1.0000 0.95627  0.09174  0.34714  Biso   1.000  C
  H100     1.0000 0.58890  0.03080  0.15521  Biso   1.000  H
  C204     1.0000 0.61052  0.00106  0.17480  Biso   1.000  C
  C205     1.0000 0.61194  0.00465  0.22445  Biso   1.000  C
  H101     1.0000 0.58949  0.03609  0.23869  Biso   1.000  H
  N28      1.0000 0.75936  0.14628  0.10714  Biso   1.000  N
  H102     1.0000 0.72439  0.16519  0.08799  Biso   1.000  H
  C206     1.0000 0.74601  0.14501  0.05503  Biso   1.000  C
  C207     1.0000 0.74902  0.18978  0.02676  Biso   1.000  C
  H103     1.0000 0.75369  0.22500  0.05321  Biso   1.000  H
  H104     1.0000 0.72500  0.20810  0.05920  Biso   1.000  H
  N29      1.0000 0.89984  0.08141  0.28904  Biso   1.000  N
  C208     1.0000 0.94950  0.09059  0.28367  Biso   1.000  C
  C209     1.0000 0.98487  0.08594  0.32571  Biso   1.000  C
  H105     1.0000 0.61569  0.99149  0.15789  Biso   1.000  H
  C210     1.0000 0.62068  0.99103  0.20048  Biso   1.000  C
  H106     1.0000 0.61810  0.99850  0.24261  Biso   1.000  H
  C211     1.0000 0.74603  0.13595  0.12601  Biso   1.000  C
  H107     1.0000 0.76590  0.14021  0.05040  Biso   1.000  H
  H108     1.0000 0.73520  0.12720  0.05700  Biso   1.000  H
  C212     1.0000 0.73408  0.16206  0.03336  Biso   1.000  C
  H109     1.0000 0.73979  0.19989  0.01100  Biso   1.000  H
  H110     1.0000 0.76920  0.18669  0.02211  Biso   1.000  H
  C213     1.0000 0.88230  0.10037  0.28227  Biso   1.000  C
  C214     1.0000 0.97759  0.10085  0.30077  Biso   1.000  C
  C215     1.0000 0.63970  0.96427  0.20349  Biso   1.000  C
  C216     1.0000 0.75583  0.11990  0.14933  Biso   1.000  C
  H111     1.0000 0.72619  0.13889  0.12529  Biso   1.000  H
  H112     1.0000 0.71430  0.16650  0.03870  Biso   1.000  H
  H113     1.0000 0.73340  0.15070  0.01580  Biso   1.000  H
  C217     1.0000 0.85577  0.09097  0.26643  Biso   1.000  C
  H114     1.0000 0.88550  0.11971  0.28691  Biso   1.000  H
  N30      1.0000 0.64778  0.95494  0.22697  Biso   1.000  N
  H115     1.0000 0.64539  0.95460  0.18679  Biso   1.000  H
  C218     1.0000 0.73751  0.11067  0.17076  Biso   1.000  C
  C219     1.0000 0.78458  0.11492  0.15468  Biso   1.000  C
  C220     1.0000 0.83826  0.11023  0.25725  Biso   1.000  C
  C221     1.0000 0.84860  0.06394  0.26031  Biso   1.000  C
  C222     1.0000 0.66361  0.92893  0.22703  Biso   1.000  C
  C223     1.0000 0.74595  0.09127  0.19028  Biso   1.000  C
  H116     1.0000 0.71889  0.11810  0.17171  Biso   1.000  H
  H117     1.0000 0.79850  0.12269  0.14241  Biso   1.000  H
  C224     1.0000 0.79264  0.09939  0.17687  Biso   1.000  C
  C225     1.0000 0.81454  0.10464  0.24119  Biso   1.000  C
  H118     1.0000 0.84209  0.12940  0.26190  Biso   1.000  H
  C226     1.0000 0.82584  0.05516  0.24521  Biso   1.000  C
  H119     1.0000 0.86079  0.04959  0.26740  Biso   1.000  H
  C227     1.0000 0.69048  0.93236  0.24246  Biso   1.000  C
  H120     1.0000 0.66860  0.92481  0.20689  Biso   1.000  H
  C228     1.0000 0.64704  0.90454  0.23740  Biso   1.000  C
  C229     1.0000 0.77347  0.08786  0.19627  Biso   1.000  C
  H121     1.0000 0.73220  0.08010  0.19981  Biso   1.000  H
  H122     1.0000 0.81230  0.09599  0.17960  Biso   1.000  H
  C230     1.0000 0.80732  0.07703  0.23584  Biso   1.000  C
  H123     1.0000 0.80339  0.11971  0.23389  Biso   1.000  H
  H124     1.0000 0.82249  0.03580  0.24110  Biso   1.000  H
  N31      1.0000 0.70694  0.95750  0.23254  Biso   1.000  N
  H125     1.0000 0.68470  0.93721  0.26230  Biso   1.000  H
  C231     1.0000 0.70749  0.90649  0.24521  Biso   1.000  C
  H126     1.0000 0.63039  0.90181  0.22500  Biso   1.000  H
  H127     1.0000 0.63999  0.90879  0.25670  Biso   1.000  H
  C232     1.0000 0.66390  0.87769  0.23821  Biso   1.000  C
  N32      1.0000 0.78128  0.07035  0.21961  Biso   1.000  N
  C233     1.0000 0.71506  0.97537  0.24952  Biso   1.000  C
  C234     1.0000 0.68988  0.88186  0.25748  Biso   1.000  C
  H128     1.0000 0.72380  0.91021  0.25780  Biso   1.000  H
  H129     1.0000 0.71489  0.90101  0.22640  Biso   1.000  H
  H130     1.0000 0.67010  0.87259  0.21889  Biso   1.000  H
  H131     1.0000 0.65199  0.86210  0.24559  Biso   1.000  H
  C235     1.0000 0.76526  0.04574  0.22625  Biso   1.000  C
  C236     1.0000 0.73232  0.00076  0.24055  Biso   1.000  C
  H132     1.0000 0.71038  0.97319  0.26890  Biso   1.000  H
  H133     1.0000 0.70139  0.86430  0.25801  Biso   1.000  H
  H134     1.0000 0.68379  0.88641  0.27701  Biso   1.000  H
  C237     1.0000 0.75826  0.04208  0.25314  Biso   1.000  C
  C238     1.0000 0.75608  0.02822  0.20476  Biso   1.000  C
  C239     1.0000 0.74163  0.01919  0.26078  Biso   1.000  C
  C240     1.0000 0.73986  0.00425  0.21379  Biso   1.000  C
  H135     1.0000 0.76459  0.05509  0.26711  Biso   1.000  H
  H136     1.0000 0.76019  0.03180  0.18540  Biso   1.000  H
  H137     1.0000 0.73670  0.01629  0.28010  Biso   1.000  H
  H138     1.0000 0.73440  0.99050  0.20021  Biso   1.000  H
  C241     1.0000 0.46164  0.60403  0.36326  Biso   1.000  C
  C242     1.0000 0.46306  0.58558  0.33950  Biso   1.000  C
  C243     1.0000 0.43759  0.61660  0.37200  Biso   1.000  C
  C244     1.0000 0.43628  0.57625  0.32956  Biso   1.000  C
  C245     1.0000 0.41125  0.60672  0.36075  Biso   1.000  C
  C246     1.0000 0.43621  0.63773  0.39650  Biso   1.000  C
  N33      1.0000 0.43568  0.55769  0.30586  Biso   1.000  N
  C247     1.0000 0.41260  0.58721  0.33898  Biso   1.000  C
  N34      1.0000 0.41776  0.64844  0.40636  Biso   1.000  N
  C248     1.0000 0.41548  0.53542  0.30354  Biso   1.000  C
  C249     1.0000 0.45968  0.55820  0.28380  Biso   1.000  C
  C250     1.0000 0.41747  0.66885  0.42995  Biso   1.000  C
  C251     1.0000 0.40596  0.52334  0.32685  Biso   1.000  C
  C252     1.0000 0.40507  0.52628  0.27794  Biso   1.000  C
  C253     1.0000 0.47040  0.53645  0.27413  Biso   1.000  C
  C254     1.0000 0.46831  0.58431  0.27443  Biso   1.000  C
  C255     1.0000 0.40319  0.69828  0.42515  Biso   1.000  C
  C256     1.0000 0.40826  0.65284  0.45627  Biso   1.000  C
  C257     1.0000 0.38948  0.50104  0.32520  Biso   1.000  C
  H139     1.0000 0.41110  0.53080  0.34479  Biso   1.000  H
  C258     1.0000 0.38806  0.50465  0.27555  Biso   1.000  C
  H140     1.0000 0.41051  0.53609  0.26131  Biso   1.000  H
  C259     1.0000 0.49295  0.53770  0.25418  Biso   1.000  C
  C260     1.0000 0.48866  0.58704  0.25365  Biso   1.000  C
  N35      1.0000 0.41857  0.71096  0.39984  Biso   1.000  N
  C261     1.0000 0.40941  0.71631  0.44950  Biso   1.000  C
  C262     1.0000 0.41406  0.67427  0.48487  Biso   1.000  C
  C263     1.0000 0.37932  0.49103  0.29952  Biso   1.000  C
  H141     1.0000 0.38429  0.49149  0.34211  Biso   1.000  H
  H142     1.0000 0.38190  0.49850  0.25739  Biso   1.000  H
  C264     1.0000 0.50036  0.56381  0.24502  Biso   1.000  C
  C265     1.0000 0.39963  0.71770  0.38233  Biso   1.000  C
  C266     1.0000 0.39915  0.69923  0.47762  Biso   1.000  C
  C267     1.0000 0.36030  0.46427  0.29651  Biso   1.000  C
  C268     1.0000 0.52490  0.56540  0.22509  Biso   1.000  C
  C269     1.0000 0.40903  0.73357  0.35577  Biso   1.000  C
  H143     1.0000 0.38029  0.71309  0.38550  Biso   1.000  H
  N36      1.0000 0.35222  0.45494  0.27303  Biso   1.000  N
  H144     1.0000 0.35459  0.45460  0.31321  Biso   1.000  H
  N37      1.0000 0.53635  0.58736  0.21648  Biso   1.000  N
  C270     1.0000 0.38977  0.74275  0.33828  Biso   1.000  C
  C271     1.0000 0.43606  0.73966  0.34860  Biso   1.000  C
  C272     1.0000 0.33639  0.42893  0.27297  Biso   1.000  C
  C273     1.0000 0.55852  0.58734  0.19695  Biso   1.000  C
  C274     1.0000 0.39536  0.75881  0.31454  Biso   1.000  C
  H145     1.0000 0.37060  0.73810  0.34211  Biso   1.000  H
  H146     1.0000 0.45039  0.73260  0.36079  Biso   1.000  H
  C275     1.0000 0.44484  0.75479  0.32584  Biso   1.000  C
  C276     1.0000 0.35296  0.40454  0.26260  Biso   1.000  C
  C277     1.0000 0.30952  0.43236  0.25752  Biso   1.000  C
  H147     1.0000 0.33140  0.42479  0.29311  Biso   1.000  H
  C278     1.0000 0.55395  0.60576  0.17177  Biso   1.000  C
  C279     1.0000 0.58782  0.59417  0.21161  Biso   1.000  C
  C280     1.0000 0.42295  0.76414  0.30732  Biso   1.000  C
  H148     1.0000 0.38029  0.76609  0.30339  Biso   1.000  H
  H149     1.0000 0.46420  0.75890  0.32249  Biso   1.000  H
  C281     1.0000 0.33610  0.37769  0.26179  Biso   1.000  C
  H150     1.0000 0.36959  0.40179  0.27500  Biso   1.000  H
  H151     1.0000 0.36001  0.40879  0.24330  Biso   1.000  H
  C282     1.0000 0.29251  0.40649  0.25477  Biso   1.000  C
  N38      1.0000 0.29306  0.45750  0.26746  Biso   1.000  N
  H152     1.0000 0.31530  0.43721  0.23770  Biso   1.000  H
  N39      1.0000 0.52964  0.59502  0.15614  Biso   1.000  N
  C283     1.0000 0.57968  0.60320  0.15057  Biso   1.000  C
  C284     1.0000 0.61186  0.59224  0.19276  Biso   1.000  C
  N40      1.0000 0.42965  0.78037  0.28128  Biso   1.000  N
  C285     1.0000 0.31012  0.38186  0.24250  Biso   1.000  C
  H153     1.0000 0.32990  0.37259  0.28109  Biso   1.000  H
  H154     1.0000 0.34799  0.36210  0.25439  Biso   1.000  H
  H155     1.0000 0.27620  0.41019  0.24220  Biso   1.000  H
  H156     1.0000 0.28509  0.40101  0.27360  Biso   1.000  H
  C286     1.0000 0.28492  0.47537  0.25048  Biso   1.000  C
  C287     1.0000 0.51126  0.61105  0.15193  Biso   1.000  C
  C288     1.0000 0.60646  0.61289  0.16424  Biso   1.000  C
  C289     1.0000 0.41214  0.80373  0.27347  Biso   1.000  C
  C290     1.0000 0.45424  0.77375  0.26529  Biso   1.000  C
  H157     1.0000 0.29861  0.36430  0.24199  Biso   1.000  H
  H158     1.0000 0.31619  0.38639  0.22299  Biso   1.000  H
  C291     1.0000 0.26768  0.50076  0.25945  Biso   1.000  C
  H159     1.0000 0.28960  0.47319  0.23110  Biso   1.000  H
  C292     1.0000 0.48460  0.60707  0.13739  Biso   1.000  C
  H160     1.0000 0.51430  0.62959  0.15921  Biso   1.000  H
  C293     1.0000 0.40873  0.80969  0.24595  Biso   1.000  C
  C294     1.0000 0.40061  0.82313  0.29264  Biso   1.000  C
  C295     1.0000 0.45792  0.74684  0.25826  Biso   1.000  C
  C296     1.0000 0.47178  0.79524  0.25608  Biso   1.000  C
  C297     1.0000 0.25837  0.51919  0.23922  Biso   1.000  C
  C298     1.0000 0.26012  0.50425  0.28621  Biso   1.000  C
  C299     1.0000 0.47575  0.57932  0.13119  Biso   1.000  C
  C300     1.0000 0.46592  0.62758  0.12635  Biso   1.000  C
  H161     1.0000 0.41990  0.80019  0.23220  Biso   1.000  H
  C301     1.0000 0.38933  0.82924  0.23751  Biso   1.000  C
  C302     1.0000 0.38508  0.84532  0.28458  Biso   1.000  C
  H162     1.0000 0.40399  0.82040  0.31230  Biso   1.000  H
  H163     1.0000 0.44489  0.73289  0.26459  Biso   1.000  H
  C303     1.0000 0.48081  0.73922  0.24163  Biso   1.000  C
  C304     1.0000 0.49573  0.78621  0.23988  Biso   1.000  C
  H164     1.0000 0.46820  0.81460  0.26021  Biso   1.000  H
  C305     1.0000 0.24174  0.54208  0.24686  Biso   1.000  C
  H165     1.0000 0.26330  0.51629  0.21990  Biso   1.000  H
  H166     1.0000 0.26560  0.49050  0.29979  Biso   1.000  H
  C306     1.0000 0.24392  0.52822  0.29524  Biso   1.000  C
  C307     1.0000 0.45039  0.57496  0.11676  Biso   1.000  C
  C308     1.0000 0.44216  0.62428  0.11304  Biso   1.000  C
  H167     1.0000 0.38190  0.82829  0.21889  Biso   1.000  H
  C309     1.0000 0.38010  0.85067  0.25583  Biso   1.000  C
  H168     1.0000 0.37729  0.85759  0.29850  Biso   1.000  H
  H169     1.0000 0.48369  0.71990  0.23670  Biso   1.000  H
  C310     1.0000 0.49924  0.75943  0.23232  Biso   1.000  C
  H170     1.0000 0.50950  0.79979  0.23440  Biso   1.000  H
  C311     1.0000 0.23471  0.54574  0.27375  Biso   1.000  C
  H171     1.0000 0.23539  0.55509  0.23289  Biso   1.000  H
  H172     1.0000 0.23979  0.53180  0.31460  Biso   1.000  H
  C312     1.0000 0.43448  0.59588  0.10693  Biso   1.000  C
  C313     1.0000 0.36405  0.87397  0.24603  Biso   1.000  C
  C314     1.0000 0.52463  0.75048  0.21506  Biso   1.000  C
  N41      1.0000 0.21872  0.57033  0.28037  Biso   1.000  N
  N42      1.0000 0.40962  0.59038  0.09038  Biso   1.000  N
  N43      1.0000 0.35370  0.89286  0.25936  Biso   1.000  N
  H173     1.0000 0.36111  0.87469  0.22619  Biso   1.000  H
  N44      1.0000 0.54250  0.76746  0.20694  Biso   1.000  N
  H174     1.0000 0.52681  0.73110  0.21040  Biso   1.000  H
  C315     1.0000 0.22653  0.58786  0.30373  Biso   1.000  C
  C316     1.0000 0.19268  0.57703  0.26416  Biso   1.000  C
  C317     1.0000 0.39307  0.56550  0.09588  Biso   1.000  C
  C318     1.0000 0.40412  0.60691  0.06550  Biso   1.000  C
  C319     1.0000 0.33788  0.91713  0.24472  Biso   1.000  C
  C320     1.0000 0.56762  0.75752  0.19048  Biso   1.000  C
  C321     1.0000 0.25405  0.59127  0.30972  Biso   1.000  C
  C322     1.0000 0.20736  0.59939  0.32313  Biso   1.000  C
  C323     1.0000 0.18544  0.60464  0.25881  Biso   1.000  C
  C324     1.0000 0.17414  0.55516  0.25479  Biso   1.000  C
  C325     1.0000 0.38324  0.54959  0.07498  Biso   1.000  C
  C326     1.0000 0.38694  0.55782  0.12430  Biso   1.000  C
  C327     1.0000 0.42502  0.61676  0.04959  Biso   1.000  C
  C328     1.0000 0.37570  0.61304  0.05782  Biso   1.000  C
  C329     1.0000 0.30885  0.92041  0.25928  Biso   1.000  C
  H175     1.0000 0.33481  0.91199  0.22439  Biso   1.000  H
  C330     1.0000 0.35499  0.94497  0.24601  Biso   1.000  C
  H176     1.0000 0.56279  0.73770  0.18470  Biso   1.000  H
  C331     1.0000 0.57107  0.77294  0.16361  Biso   1.000  C
  C332     1.0000 0.59351  0.75477  0.20749  Biso   1.000  C
  H177     1.0000 0.26780  0.58010  0.30019  Biso   1.000  H
  C333     1.0000 0.26249  0.61067  0.32924  Biso   1.000  C
  C334     1.0000 0.21540  0.61492  0.34532  Biso   1.000  C
  H178     1.0000 0.18770  0.59599  0.32040  Biso   1.000  H
  H179     1.0000 0.19659  0.61968  0.26609  Biso   1.000  H
  C335     1.0000 0.16172  0.61021  0.24275  Biso   1.000  C
  C336     1.0000 0.15140  0.56391  0.23969  Biso   1.000  C
  H180     1.0000 0.17751  0.53580  0.25890  Biso   1.000  H
  C337     1.0000 0.36881  0.52425  0.07932  Biso   1.000  C
  C338     1.0000 0.37365  0.53406  0.12758  Biso   1.000  C
  C339     1.0000 0.42068  0.63119  0.02425  Biso   1.000  C
  C340     1.0000 0.37242  0.62633  0.03406  Biso   1.000  C
  N45      1.0000 0.29218  0.89388  0.25687  Biso   1.000  N
  H181     1.0000 0.31179  0.92479  0.27980  Biso   1.000  H
  C341     1.0000 0.29412  0.94480  0.24548  Biso   1.000  C
  H182     1.0000 0.35979  0.94958  0.26590  Biso   1.000  H
  H183     1.0000 0.37280  0.94298  0.23520  Biso   1.000  H
  C342     1.0000 0.33792  0.96664  0.23408  Biso   1.000  C
  N46      1.0000 0.54506  0.77303  0.14778  Biso   1.000  N
  H184     1.0000 0.57519  0.79309  0.16860  Biso   1.000  H
  C343     1.0000 0.59546  0.76260  0.14704  Biso   1.000  C
  C344     1.0000 0.61814  0.74250  0.18988  Biso   1.000  C
  H185     1.0000 0.58979  0.74220  0.22380  Biso   1.000  H
  H186     1.0000 0.59899  0.77360  0.21489  Biso   1.000  H
  H187     1.0000 0.28109  0.61810  0.32829  Biso   1.000  H
  C345     1.0000 0.24415  0.61987  0.35067  Biso   1.000  C
  H188     1.0000 0.20150  0.62269  0.35759  Biso   1.000  H
  H189     1.0000 0.15789  0.62940  0.23810  Biso   1.000  H
  C346     1.0000 0.14423  0.59097  0.23357  Biso   1.000  C
  H190     1.0000 0.13919  0.54959  0.23260  Biso   1.000  H
  C347     1.0000 0.36261  0.51538  0.10707  Biso   1.000  C
  C348     1.0000 0.39293  0.63739  0.01538  Biso   1.000  C
  C349     1.0000 0.28492  0.88389  0.28029  Biso   1.000  C
  C350     1.0000 0.31022  0.97322  0.24904  Biso   1.000  C
  H191     1.0000 0.27500  0.94679  0.25369  Biso   1.000  H
  H192     1.0000 0.29190  0.94078  0.22500  Biso   1.000  H
  H193     1.0000 0.33350  0.96128  0.21430  Biso   1.000  H
  H194     1.0000 0.34930  0.98420  0.23340  Biso   1.000  H
  C351     1.0000 0.53573  0.79651  0.13970  Biso   1.000  C
  H195     1.0000 0.59819  0.77500  0.13039  Biso   1.000  H
  H196     1.0000 0.59119  0.74330  0.13999  Biso   1.000  H
  C352     1.0000 0.62231  0.76179  0.16390  Biso   1.000  C
  H197     1.0000 0.63570  0.74199  0.20139  Biso   1.000  H
  H198     1.0000 0.61359  0.72299  0.18379  Biso   1.000  H
  C353     1.0000 0.25397  0.63595  0.37397  Biso   1.000  C
  C354     1.0000 0.11767  0.60037  0.21773  Biso   1.000  C
  C355     1.0000 0.34807  0.48874  0.11105  Biso   1.000  C
  C356     1.0000 0.38895  0.65193  0.98874  Biso   1.000  C
  C357     1.0000 0.26759  0.85713  0.27881  Biso   1.000  C
  H199     1.0000 0.29000  0.89250  0.29770  Biso   1.000  H
  H200     1.0000 0.30009  0.98900  0.23979  Biso   1.000  H
  H201     1.0000 0.31329  0.97789  0.26920  Biso   1.000  H
  C358     1.0000 0.50897  0.79950  0.12068  Biso   1.000  C
  H202     1.0000 0.54540  0.81318  0.14539  Biso   1.000  H
  H203     1.0000 0.62739  0.78109  0.17010  Biso   1.000  H
  H204     1.0000 0.63790  0.75439  0.15199  Biso   1.000  H
  N47      1.0000 0.24064  0.64628  0.39286  Biso   1.000  N
  H205     1.0000 0.27379  0.63889  0.37469  Biso   1.000  H
  N48      1.0000 0.10016  0.58141  0.21096  Biso   1.000  N
  H206     1.0000 0.11450  0.61968  0.21309  Biso   1.000  H
  N49      1.0000 0.34386  0.47034  0.09502  Biso   1.000  N
  H207     1.0000 0.34079  0.48570  0.12961  Biso   1.000  H
  N50      1.0000 0.40498  0.65614  0.97036  Biso   1.000  N
  H208     1.0000 0.37039  0.65918  0.98570  Biso   1.000  H
  C359     1.0000 0.25773  0.84744  0.30589  Biso   1.000  C
  C360     1.0000 0.25957  0.84283  0.25678  Biso   1.000  C
  C361     1.0000 0.49894  0.82520  0.11052  Biso   1.000  C
  C362     1.0000 0.49535  0.77553  0.11194  Biso   1.000  C
  C363     1.0000 0.25526  0.66210  0.41713  Biso   1.000  C
  C364     1.0000 0.07483  0.59679  0.19828  Biso   1.000  C
  C365     1.0000 0.32823  0.44605  0.10576  Biso   1.000  C
  C366     1.0000 0.39424  0.67177  0.94605  Biso   1.000  C
  C367     1.0000 0.24161  0.82277  0.30756  Biso   1.000  C
  H209     1.0000 0.26220  0.85778  0.32260  Biso   1.000  H
  C368     1.0000 0.24358  0.82051  0.25885  Biso   1.000  C
  H210     1.0000 0.26550  0.84890  0.23861  Biso   1.000  H
  C369     1.0000 0.47664  0.82685  0.09402  Biso   1.000  C
  H211     1.0000 0.50851  0.84209  0.11571  Biso   1.000  H
  H212     1.0000 0.50150  0.75739  0.11810  Biso   1.000  H
  C370     1.0000 0.47370  0.77794  0.09491  Biso   1.000  C
  C371     1.0000 0.24070  0.69115  0.42041  Biso   1.000  C
  H213     1.0000 0.27559  0.66519  0.41199  Biso   1.000  H
  C372     1.0000 0.25399  0.64499  0.44497  Biso   1.000  C
  C373     1.0000 0.07005  0.58251  0.16885  Biso   1.000  C
  C374     1.0000 0.05050  0.59059  0.21631  Biso   1.000  C
  C375     1.0000 0.30303  0.44146  0.08734  Biso   1.000  C
  C376     1.0000 0.34943  0.42032  0.10320  Biso   1.000  C
  C377     1.0000 0.41266  0.69695  0.94148  Biso   1.000  C
  C378     1.0000 0.39680  0.65057  0.92032  Biso   1.000  C
  C379     1.0000 0.23309  0.80893  0.28401  Biso   1.000  C
  H214     1.0000 0.23649  0.81560  0.32560  Biso   1.000  H
  H215     1.0000 0.23861  0.81120  0.24170  Biso   1.000  H
  C380     1.0000 0.46456  0.80354  0.08452  Biso   1.000  C
  H216     1.0000 0.46920  0.84479  0.08890  Biso   1.000  H
  H217     1.0000 0.46391  0.76129  0.08949  Biso   1.000  H
  N51      1.0000 0.24313  0.70782  0.39388  Biso   1.000  N
  H218     1.0000 0.22020  0.68819  0.42479  Biso   1.000  H
  C381     1.0000 0.25452  0.70588  0.44482  Biso   1.000  C
  H219     1.0000 0.23410  0.64019  0.44960  Biso   1.000  H
  H220     1.0000 0.26480  0.62720  0.44300  Biso   1.000  H
  C382     1.0000 0.26590  0.66206  0.46664  Biso   1.000  C
  N52      1.0000 0.09364  0.58224  0.14846  Biso   1.000  N
  C383     1.0000 0.04373  0.59174  0.15286  Biso   1.000  C
  C384     1.0000 0.02238  0.60085  0.19923  Biso   1.000  C
  N53      1.0000 0.28352  0.46365  0.08736  Biso   1.000  N
  C385     1.0000 0.28837  0.41218  0.09417  Biso   1.000  C
  C386     1.0000 0.33574  0.39354  0.11289  Biso   1.000  C
  N54      1.0000 0.41264  0.71648  0.96365  Biso   1.000  N
  C387     1.0000 0.40583  0.71161  0.91218  Biso   1.000  C
  C388     1.0000 0.38711  0.66424  0.89354  Biso   1.000  C
  N55      1.0000 0.21523  0.78477  0.28477  Biso   1.000  N
  N56      1.0000 0.44231  0.80586  0.06432  Biso   1.000  N
  C389     1.0000 0.21971  0.71506  0.38389  Biso   1.000  C
  C390     1.0000 0.25096  0.68978  0.47322  Biso   1.000  C
  H221     1.0000 0.24631  0.72500  0.44679  Biso   1.000  H
  H222     1.0000 0.27500  0.70810  0.44080  Biso   1.000  H
  H223     1.0000 0.28570  0.66650  0.46130  Biso   1.000  H
  H224     1.0000 0.26660  0.65070  0.48420  Biso   1.000  H
  C391     1.0000 0.10350  0.56379  0.13773  Biso   1.000  C
  C392     1.0000 0.01513  0.58592  0.17427  Biso   1.000  C
  C393     1.0000 0.27491  0.47508  0.06542  Biso   1.000  C
  C394     1.0000 0.30722  0.38814  0.09224  Biso   1.000  C
  C395     1.0000 0.43458  0.72509  0.97510  Biso   1.000  C
  C396     1.0000 0.40776  0.69276  0.88814  Biso   1.000  C
  C397     1.0000 0.21597  0.76691  0.30893  Biso   1.000  C
  C398     1.0000 0.19107  0.78401  0.26691  Biso   1.000  C
  C399     1.0000 0.44178  0.78380  0.04032  Biso   1.000  C
  C400     1.0000 0.42373  0.82956  0.06372  Biso   1.000  C
  C401     1.0000 0.22119  0.73241  0.35713  Biso   1.000  C
  H225     1.0000 0.20230  0.71000  0.39250  Biso   1.000  H
  H226     1.0000 0.26021  0.69989  0.48900  Biso   1.000  H
  H227     1.0000 0.23080  0.68669  0.47789  Biso   1.000  H
  C402     1.0000 0.12800  0.56241  0.11662  Biso   1.000  C
  C403     1.0000 0.25496  0.49964  0.06381  Biso   1.000  C
  C404     1.0000 0.43619  0.74502  0.99964  Biso   1.000  C
  C405     1.0000 0.19244  0.75839  0.32277  Biso   1.000  C
  C406     1.0000 0.24115  0.75640  0.32051  Biso   1.000  C
  C407     1.0000 0.17721  0.80754  0.25839  Biso   1.000  C
  C408     1.0000 0.17949  0.75885  0.25640  Biso   1.000  C
  C409     1.0000 0.46355  0.77413  0.02960  Biso   1.000  C
  C410     1.0000 0.41567  0.77440  0.03167  Biso   1.000  C
  C411     1.0000 0.41442  0.83950  0.03694  Biso   1.000  C
  C412     1.0000 0.41279  0.83898  0.08740  Biso   1.000  C
  C413     1.0000 0.19411  0.74225  0.34744  Biso   1.000  C
  C414     1.0000 0.24320  0.74043  0.34285  Biso   1.000  C
  C415     1.0000 0.13674  0.53836  0.10403  Biso   1.000  C
  C416     1.0000 0.13925  0.58873  0.10672  Biso   1.000  C
  C417     1.0000 0.24580  0.50705  0.03770  Biso   1.000  C
  C418     1.0000 0.24633  0.51134  0.08704  Biso   1.000  C
  C419     1.0000 0.46230  0.75418  0.00705  Biso   1.000  C
  C420     1.0000 0.41296  0.75365  0.01134  Biso   1.000  C
  H228     1.0000 0.17440  0.76349  0.31560  Biso   1.000  H
  H229     1.0000 0.25830  0.76139  0.31120  Biso   1.000  H
  H230     1.0000 0.18440  0.82558  0.26349  Biso   1.000  H
  C421     1.0000 0.15256  0.80589  0.24227  Biso   1.000  C
  C422     1.0000 0.15715  0.75678  0.24043  Biso   1.000  C
  H231     1.0000 0.18880  0.74170  0.26139  Biso   1.000  H
  C423     1.0000 0.39597  0.86326  0.03836  Biso   1.000  C
  C424     1.0000 0.39328  0.86075  0.08873  Biso   1.000  C
  H232     1.0000 0.17740  0.73780  0.35780  Biso   1.000  H
  H233     1.0000 0.26139  0.73450  0.34890  Biso   1.000  H
  C425     1.0000 0.16050  0.53694  0.08558  Biso   1.000  C
  C426     1.0000 0.16102  0.58740  0.08721  Biso   1.000  C
  C427     1.0000 0.22585  0.52958  0.03645  Biso   1.000  C
  C428     1.0000 0.22557  0.53167  0.08431  Biso   1.000  C
  H234     1.0000 0.14220  0.82260  0.23780  Biso   1.000  H
  C429     1.0000 0.14285  0.77878  0.23241  Biso   1.000  C
  H235     1.0000 0.15110  0.73859  0.23450  Biso   1.000  H
  C430     1.0000 0.38338  0.87200  0.06241  Biso   1.000  C
  C431     1.0000 0.17044  0.56372  0.07625  Biso   1.000  C
  C432     1.0000 0.21618  0.54032  0.05820  Biso   1.000  C
  C433     1.0000 0.11611  0.78026  0.21506  Biso   1.000  C
  C434     1.0000 0.36227  0.89650  0.06379  Biso   1.000  C
  N57      1.0000 0.19414  0.56432  0.05769  Biso   1.000  N
  N58      1.0000 0.10610  0.75684  0.20782  Biso   1.000  N
  H236     1.0000 0.10750  0.79770  0.21000  Biso   1.000  H
  N59      1.0000 0.35154  0.90636  0.08224  Biso   1.000  N
  C435     1.0000 0.19644  0.58452  0.03544  Biso   1.000  C
  C436     1.0000 0.07959  0.75928  0.19115  Biso   1.000  C
  C437     1.0000 0.33115  0.92995  0.08251  Biso   1.000  C
  C438     1.0000 0.17315  0.59402  0.02336  Biso   1.000  C
  C439     1.0000 0.22206  0.59491  0.02630  Biso   1.000  C
  H237     1.0000 0.07519  0.77980  0.18819  Biso   1.000  H
  C440     1.0000 0.08285  0.74472  0.16212  Biso   1.000  C
  C441     1.0000 0.05518  0.74548  0.20588  Biso   1.000  C
  C442     1.0000 0.30172  0.92515  0.09679  Biso   1.000  C
  C443     1.0000 0.34714  0.95627  0.09174  Biso   1.000  C
  H238     1.0000 0.15521  0.58890  0.03080  Biso   1.000  H
  C444     1.0000 0.17480  0.61052  0.00106  Biso   1.000  C
  C445     1.0000 0.22445  0.61194  0.00465  Biso   1.000  C
  H239     1.0000 0.23869  0.58949  0.03609  Biso   1.000  H
  N60      1.0000 0.10714  0.75936  0.14628  Biso   1.000  N
  H240     1.0000 0.08799  0.72439  0.16519  Biso   1.000  H
  C446     1.0000 0.05503  0.74601  0.14501  Biso   1.000  C
  C447     1.0000 0.02676  0.74902  0.18978  Biso   1.000  C
  H241     1.0000 0.05321  0.75369  0.22500  Biso   1.000  H
  H242     1.0000 0.05920  0.72500  0.20810  Biso   1.000  H
  N61      1.0000 0.28904  0.89984  0.08141  Biso   1.000  N
  C448     1.0000 0.28367  0.94950  0.09059  Biso   1.000  C
  C449     1.0000 0.32571  0.98487  0.08594  Biso   1.000  C
  H243     1.0000 0.15789  0.61569  0.99149  Biso   1.000  H
  C450     1.0000 0.20048  0.62068  0.99103  Biso   1.000  C
  H244     1.0000 0.24261  0.61810  0.99850  Biso   1.000  H
  C451     1.0000 0.12601  0.74603  0.13595  Biso   1.000  C
  H245     1.0000 0.05040  0.76590  0.14021  Biso   1.000  H
  H246     1.0000 0.05700  0.73520  0.12720  Biso   1.000  H
  C452     1.0000 0.03336  0.73408  0.16206  Biso   1.000  C
  H247     1.0000 0.01100  0.73979  0.19989  Biso   1.000  H
  H248     1.0000 0.02211  0.76920  0.18669  Biso   1.000  H
  C453     1.0000 0.28227  0.88230  0.10037  Biso   1.000  C
  C454     1.0000 0.30077  0.97759  0.10085  Biso   1.000  C
  C455     1.0000 0.20349  0.63970  0.96427  Biso   1.000  C
  C456     1.0000 0.14933  0.75583  0.11990  Biso   1.000  C
  H249     1.0000 0.12529  0.72619  0.13889  Biso   1.000  H
  H250     1.0000 0.03870  0.71430  0.16650  Biso   1.000  H
  H251     1.0000 0.01580  0.73340  0.15070  Biso   1.000  H
  C457     1.0000 0.26643  0.85577  0.09097  Biso   1.000  C
  H252     1.0000 0.28691  0.88550  0.11971  Biso   1.000  H
  N62      1.0000 0.22697  0.64778  0.95494  Biso   1.000  N
  H253     1.0000 0.18679  0.64539  0.95460  Biso   1.000  H
  C458     1.0000 0.17076  0.73751  0.11067  Biso   1.000  C
  C459     1.0000 0.15468  0.78458  0.11492  Biso   1.000  C
  C460     1.0000 0.25725  0.83826  0.11023  Biso   1.000  C
  C461     1.0000 0.26031  0.84860  0.06394  Biso   1.000  C
  C462     1.0000 0.22703  0.66361  0.92893  Biso   1.000  C
  C463     1.0000 0.19028  0.74595  0.09127  Biso   1.000  C
  H254     1.0000 0.17171  0.71889  0.11810  Biso   1.000  H
  H255     1.0000 0.14241  0.79850  0.12269  Biso   1.000  H
  C464     1.0000 0.17687  0.79264  0.09939  Biso   1.000  C
  C465     1.0000 0.24119  0.81454  0.10464  Biso   1.000  C
  H256     1.0000 0.26190  0.84209  0.12940  Biso   1.000  H
  C466     1.0000 0.24521  0.82584  0.05516  Biso   1.000  C
  H257     1.0000 0.26740  0.86079  0.04959  Biso   1.000  H
  C467     1.0000 0.24246  0.69048  0.93236  Biso   1.000  C
  H258     1.0000 0.20689  0.66860  0.92481  Biso   1.000  H
  C468     1.0000 0.23740  0.64704  0.90454  Biso   1.000  C
  C469     1.0000 0.19627  0.77347  0.08786  Biso   1.000  C
  H259     1.0000 0.19981  0.73220  0.08010  Biso   1.000  H
  H260     1.0000 0.17960  0.81230  0.09599  Biso   1.000  H
  C470     1.0000 0.23584  0.80732  0.07703  Biso   1.000  C
  H261     1.0000 0.23389  0.80339  0.11971  Biso   1.000  H
  H262     1.0000 0.24110  0.82249  0.03580  Biso   1.000  H
  N63      1.0000 0.23254  0.70694  0.95750  Biso   1.000  N
  H263     1.0000 0.26230  0.68470  0.93721  Biso   1.000  H
  C471     1.0000 0.24521  0.70749  0.90649  Biso   1.000  C
  H264     1.0000 0.22500  0.63039  0.90181  Biso   1.000  H
  H265     1.0000 0.25670  0.63999  0.90879  Biso   1.000  H
  C472     1.0000 0.23821  0.66390  0.87769  Biso   1.000  C
  N64      1.0000 0.21961  0.78128  0.07035  Biso   1.000  N
  C473     1.0000 0.24952  0.71506  0.97537  Biso   1.000  C
  C474     1.0000 0.25748  0.68988  0.88186  Biso   1.000  C
  H266     1.0000 0.25780  0.72380  0.91021  Biso   1.000  H
  H267     1.0000 0.22640  0.71489  0.90101  Biso   1.000  H
  H268     1.0000 0.21889  0.67010  0.87259  Biso   1.000  H
  H269     1.0000 0.24559  0.65199  0.86210  Biso   1.000  H
  C475     1.0000 0.22625  0.76526  0.04574  Biso   1.000  C
  C476     1.0000 0.24055  0.73232  0.00076  Biso   1.000  C
  H270     1.0000 0.26890  0.71038  0.97319  Biso   1.000  H
  H271     1.0000 0.25801  0.70139  0.86430  Biso   1.000  H
  H272     1.0000 0.27701  0.68379  0.88641  Biso   1.000  H
  C477     1.0000 0.25314  0.75826  0.04208  Biso   1.000  C
  C478     1.0000 0.20476  0.75608  0.02822  Biso   1.000  C
  C479     1.0000 0.26078  0.74163  0.01919  Biso   1.000  C
  C480     1.0000 0.21379  0.73986  0.00425  Biso   1.000  C
  H273     1.0000 0.26711  0.76459  0.05509  Biso   1.000  H
  H274     1.0000 0.18540  0.76019  0.03180  Biso   1.000  H
  H275     1.0000 0.28010  0.73670  0.01629  Biso   1.000  H
  H276     1.0000 0.20021  0.73440  0.99050  Biso   1.000  H
  C481     1.0000 0.36326  0.46164  0.60403  Biso   1.000  C
  C482     1.0000 0.33950  0.46306  0.58558  Biso   1.000  C
  C483     1.0000 0.37200  0.43759  0.61660  Biso   1.000  C
  C484     1.0000 0.32956  0.43628  0.57625  Biso   1.000  C
  C485     1.0000 0.36075  0.41125  0.60672  Biso   1.000  C
  C486     1.0000 0.39650  0.43621  0.63773  Biso   1.000  C
  N65      1.0000 0.30586  0.43568  0.55769  Biso   1.000  N
  C487     1.0000 0.33898  0.41260  0.58721  Biso   1.000  C
  N66      1.0000 0.40636  0.41776  0.64844  Biso   1.000  N
  C488     1.0000 0.30354  0.41548  0.53542  Biso   1.000  C
  C489     1.0000 0.28380  0.45968  0.55820  Biso   1.000  C
  C490     1.0000 0.42995  0.41747  0.66885  Biso   1.000  C
  C491     1.0000 0.32685  0.40596  0.52334  Biso   1.000  C
  C492     1.0000 0.27794  0.40507  0.52628  Biso   1.000  C
  C493     1.0000 0.27413  0.47040  0.53645  Biso   1.000  C
  C494     1.0000 0.27443  0.46831  0.58431  Biso   1.000  C
  C495     1.0000 0.45627  0.40826  0.65284  Biso   1.000  C
  C496     1.0000 0.42515  0.40319  0.69828  Biso   1.000  C
  C497     1.0000 0.32520  0.38948  0.50104  Biso   1.000  C
  H277     1.0000 0.34479  0.41110  0.53080  Biso   1.000  H
  C498     1.0000 0.27555  0.38806  0.50465  Biso   1.000  C
  H278     1.0000 0.26131  0.41051  0.53609  Biso   1.000  H
  C499     1.0000 0.25418  0.49295  0.53770  Biso   1.000  C
  C500     1.0000 0.25365  0.48866  0.58704  Biso   1.000  C
  C501     1.0000 0.48487  0.41406  0.67427  Biso   1.000  C
  N67      1.0000 0.39984  0.41857  0.71096  Biso   1.000  N
  C502     1.0000 0.44950  0.40941  0.71631  Biso   1.000  C
  C503     1.0000 0.29952  0.37932  0.49103  Biso   1.000  C
  H279     1.0000 0.34211  0.38429  0.49149  Biso   1.000  H
  H280     1.0000 0.25739  0.38190  0.49850  Biso   1.000  H
  C504     1.0000 0.24502  0.50036  0.56381  Biso   1.000  C
  C505     1.0000 0.47762  0.39915  0.69923  Biso   1.000  C
  C506     1.0000 0.38233  0.39963  0.71770  Biso   1.000  C
  C507     1.0000 0.29651  0.36030  0.46427  Biso   1.000  C
  C508     1.0000 0.22509  0.52490  0.56540  Biso   1.000  C
  C509     1.0000 0.35577  0.40903  0.73357  Biso   1.000  C
  H281     1.0000 0.38550  0.38029  0.71309  Biso   1.000  H
  N68      1.0000 0.27303  0.35222  0.45494  Biso   1.000  N
  H282     1.0000 0.31321  0.35459  0.45460  Biso   1.000  H
  N69      1.0000 0.21648  0.53635  0.58736  Biso   1.000  N
  C510     1.0000 0.33828  0.38977  0.74275  Biso   1.000  C
  C511     1.0000 0.34860  0.43606  0.73966  Biso   1.000  C
  C512     1.0000 0.27297  0.33639  0.42893  Biso   1.000  C
  C513     1.0000 0.19695  0.55852  0.58734  Biso   1.000  C
  C514     1.0000 0.31454  0.39536  0.75881  Biso   1.000  C
  H283     1.0000 0.34211  0.37060  0.73810  Biso   1.000  H
  H284     1.0000 0.36079  0.45039  0.73260  Biso   1.000  H
  C515     1.0000 0.32584  0.44484  0.75479  Biso   1.000  C
  C516     1.0000 0.26260  0.35296  0.40454  Biso   1.000  C
  C517     1.0000 0.25752  0.30952  0.43236  Biso   1.000  C
  H285     1.0000 0.29311  0.33140  0.42479  Biso   1.000  H
  C518     1.0000 0.17177  0.55395  0.60576  Biso   1.000  C
  C519     1.0000 0.21161  0.58782  0.59417  Biso   1.000  C
  C520     1.0000 0.30732  0.42295  0.76414  Biso   1.000  C
  H286     1.0000 0.30339  0.38029  0.76609  Biso   1.000  H
  H287     1.0000 0.32249  0.46420  0.75890  Biso   1.000  H
  C521     1.0000 0.26179  0.33610  0.37769  Biso   1.000  C
  H288     1.0000 0.27500  0.36959  0.40179  Biso   1.000  H
  H289     1.0000 0.24330  0.36001  0.40879  Biso   1.000  H
  C522     1.0000 0.25477  0.29251  0.40649  Biso   1.000  C
  N70      1.0000 0.26746  0.29306  0.45750  Biso   1.000  N
  H290     1.0000 0.23770  0.31530  0.43721  Biso   1.000  H
  N71      1.0000 0.15614  0.52964  0.59502  Biso   1.000  N
  C523     1.0000 0.15057  0.57968  0.60320  Biso   1.000  C
  C524     1.0000 0.19276  0.61186  0.59224  Biso   1.000  C
  N72      1.0000 0.28128  0.42965  0.78037  Biso   1.000  N
  C525     1.0000 0.24250  0.31012  0.38186  Biso   1.000  C
  H291     1.0000 0.28109  0.32990  0.37259  Biso   1.000  H
  H292     1.0000 0.25439  0.34799  0.36210  Biso   1.000  H
  H293     1.0000 0.24220  0.27620  0.41019  Biso   1.000  H
  H294     1.0000 0.27360  0.28509  0.40101  Biso   1.000  H
  C526     1.0000 0.25048  0.28492  0.47537  Biso   1.000  C
  C527     1.0000 0.15193  0.51126  0.61105  Biso   1.000  C
  C528     1.0000 0.16424  0.60646  0.61289  Biso   1.000  C
  C529     1.0000 0.27347  0.41214  0.80373  Biso   1.000  C
  C530     1.0000 0.26529  0.45424  0.77375  Biso   1.000  C
  H295     1.0000 0.24199  0.29861  0.36430  Biso   1.000  H
  H296     1.0000 0.22299  0.31619  0.38639  Biso   1.000  H
  C531     1.0000 0.25945  0.26768  0.50076  Biso   1.000  C
  H297     1.0000 0.23110  0.28960  0.47319  Biso   1.000  H
  C532     1.0000 0.13739  0.48460  0.60707  Biso   1.000  C
  H298     1.0000 0.15921  0.51430  0.62959  Biso   1.000  H
  C533     1.0000 0.24595  0.40873  0.80969  Biso   1.000  C
  C534     1.0000 0.29264  0.40061  0.82313  Biso   1.000  C
  C535     1.0000 0.25826  0.45792  0.74684  Biso   1.000  C
  C536     1.0000 0.25608  0.47178  0.79524  Biso   1.000  C
  C537     1.0000 0.23922  0.25837  0.51919  Biso   1.000  C
  C538     1.0000 0.28621  0.26012  0.50425  Biso   1.000  C
  C539     1.0000 0.13119  0.47575  0.57932  Biso   1.000  C
  C540     1.0000 0.12635  0.46592  0.62758  Biso   1.000  C
  H299     1.0000 0.23220  0.41990  0.80019  Biso   1.000  H
  C541     1.0000 0.23751  0.38933  0.82924  Biso   1.000  C
  C542     1.0000 0.28458  0.38508  0.84532  Biso   1.000  C
  H300     1.0000 0.31230  0.40399  0.82040  Biso   1.000  H
  H301     1.0000 0.26459  0.44489  0.73289  Biso   1.000  H
  C543     1.0000 0.24163  0.48081  0.73922  Biso   1.000  C
  C544     1.0000 0.23988  0.49573  0.78621  Biso   1.000  C
  H302     1.0000 0.26021  0.46820  0.81460  Biso   1.000  H
  C545     1.0000 0.24686  0.24174  0.54208  Biso   1.000  C
  H303     1.0000 0.21990  0.26330  0.51629  Biso   1.000  H
  H304     1.0000 0.29979  0.26560  0.49050  Biso   1.000  H
  C546     1.0000 0.29524  0.24392  0.52822  Biso   1.000  C
  C547     1.0000 0.11676  0.45039  0.57496  Biso   1.000  C
  C548     1.0000 0.11304  0.44216  0.62428  Biso   1.000  C
  H305     1.0000 0.21889  0.38190  0.82829  Biso   1.000  H
  C549     1.0000 0.25583  0.38010  0.85067  Biso   1.000  C
  H306     1.0000 0.29850  0.37729  0.85759  Biso   1.000  H
  H307     1.0000 0.23670  0.48369  0.71990  Biso   1.000  H
  C550     1.0000 0.23232  0.49924  0.75943  Biso   1.000  C
  H308     1.0000 0.23440  0.50950  0.79979  Biso   1.000  H
  C551     1.0000 0.27375  0.23471  0.54574  Biso   1.000  C
  H309     1.0000 0.23289  0.23539  0.55509  Biso   1.000  H
  H310     1.0000 0.31460  0.23979  0.53180  Biso   1.000  H
  C552     1.0000 0.10693  0.43448  0.59588  Biso   1.000  C
  C553     1.0000 0.24603  0.36405  0.87397  Biso   1.000  C
  C554     1.0000 0.21506  0.52463  0.75048  Biso   1.000  C
  N73      1.0000 0.28037  0.21872  0.57033  Biso   1.000  N
  N74      1.0000 0.09038  0.40962  0.59038  Biso   1.000  N
  N75      1.0000 0.25936  0.35370  0.89286  Biso   1.000  N
  H311     1.0000 0.22619  0.36111  0.87469  Biso   1.000  H
  N76      1.0000 0.20694  0.54250  0.76746  Biso   1.000  N
  H312     1.0000 0.21040  0.52681  0.73110  Biso   1.000  H
  C555     1.0000 0.30373  0.22653  0.58786  Biso   1.000  C
  C556     1.0000 0.26416  0.19268  0.57703  Biso   1.000  C
  C557     1.0000 0.09588  0.39307  0.56550  Biso   1.000  C
  C558     1.0000 0.06550  0.40412  0.60691  Biso   1.000  C
  C559     1.0000 0.24472  0.33788  0.91713  Biso   1.000  C
  C560     1.0000 0.19048  0.56762  0.75752  Biso   1.000  C
  C561     1.0000 0.30972  0.25405  0.59127  Biso   1.000  C
  C562     1.0000 0.32313  0.20736  0.59939  Biso   1.000  C
  C563     1.0000 0.25881  0.18544  0.60464  Biso   1.000  C
  C564     1.0000 0.25479  0.17414  0.55516  Biso   1.000  C
  C565     1.0000 0.07498  0.38324  0.54959  Biso   1.000  C
  C566     1.0000 0.12430  0.38694  0.55782  Biso   1.000  C
  C567     1.0000 0.04959  0.42502  0.61676  Biso   1.000  C
  C568     1.0000 0.05782  0.37570  0.61304  Biso   1.000  C
  C569     1.0000 0.25928  0.30885  0.92041  Biso   1.000  C
  H313     1.0000 0.22439  0.33481  0.91199  Biso   1.000  H
  C570     1.0000 0.24601  0.35499  0.94497  Biso   1.000  C
  H314     1.0000 0.18470  0.56279  0.73770  Biso   1.000  H
  C571     1.0000 0.16361  0.57107  0.77294  Biso   1.000  C
  C572     1.0000 0.20749  0.59351  0.75477  Biso   1.000  C
  H315     1.0000 0.30019  0.26780  0.58010  Biso   1.000  H
  C573     1.0000 0.32924  0.26249  0.61067  Biso   1.000  C
  C574     1.0000 0.34532  0.21540  0.61492  Biso   1.000  C
  H316     1.0000 0.32040  0.18770  0.59599  Biso   1.000  H
  H317     1.0000 0.26609  0.19659  0.61968  Biso   1.000  H
  C575     1.0000 0.24275  0.16172  0.61021  Biso   1.000  C
  C576     1.0000 0.23969  0.15140  0.56391  Biso   1.000  C
  H318     1.0000 0.25890  0.17751  0.53580  Biso   1.000  H
  C577     1.0000 0.07932  0.36881  0.52425  Biso   1.000  C
  C578     1.0000 0.12758  0.37365  0.53406  Biso   1.000  C
  C579     1.0000 0.02425  0.42068  0.63119  Biso   1.000  C
  C580     1.0000 0.03406  0.37242  0.62633  Biso   1.000  C
  N77      1.0000 0.25687  0.29218  0.89388  Biso   1.000  N
  H319     1.0000 0.27980  0.31179  0.92479  Biso   1.000  H
  C581     1.0000 0.24548  0.29412  0.94480  Biso   1.000  C
  H320     1.0000 0.26590  0.35979  0.94958  Biso   1.000  H
  H321     1.0000 0.23520  0.37280  0.94298  Biso   1.000  H
  C582     1.0000 0.23408  0.33792  0.96664  Biso   1.000  C
  N78      1.0000 0.14778  0.54506  0.77303  Biso   1.000  N
  H322     1.0000 0.16860  0.57519  0.79309  Biso   1.000  H
  C583     1.0000 0.14704  0.59546  0.76260  Biso   1.000  C
  C584     1.0000 0.18988  0.61814  0.74250  Biso   1.000  C
  H323     1.0000 0.22380  0.58979  0.74220  Biso   1.000  H
  H324     1.0000 0.21489  0.59899  0.77360  Biso   1.000  H
  H325     1.0000 0.32829  0.28109  0.61810  Biso   1.000  H
  C585     1.0000 0.35067  0.24415  0.61987  Biso   1.000  C
  H326     1.0000 0.35759  0.20150  0.62269  Biso   1.000  H
  H327     1.0000 0.23810  0.15789  0.62940  Biso   1.000  H
  C586     1.0000 0.23357  0.14423  0.59097  Biso   1.000  C
  H328     1.0000 0.23260  0.13919  0.54959  Biso   1.000  H
  C587     1.0000 0.10707  0.36261  0.51538  Biso   1.000  C
  C588     1.0000 0.01538  0.39293  0.63739  Biso   1.000  C
  C589     1.0000 0.28029  0.28492  0.88389  Biso   1.000  C
  C590     1.0000 0.24904  0.31022  0.97322  Biso   1.000  C
  H329     1.0000 0.25369  0.27500  0.94679  Biso   1.000  H
  H330     1.0000 0.22500  0.29190  0.94078  Biso   1.000  H
  H331     1.0000 0.21430  0.33350  0.96128  Biso   1.000  H
  H332     1.0000 0.23340  0.34930  0.98420  Biso   1.000  H
  C591     1.0000 0.13970  0.53573  0.79651  Biso   1.000  C
  H333     1.0000 0.13039  0.59819  0.77500  Biso   1.000  H
  H334     1.0000 0.13999  0.59119  0.74330  Biso   1.000  H
  C592     1.0000 0.16390  0.62231  0.76179  Biso   1.000  C
  H335     1.0000 0.20139  0.63570  0.74199  Biso   1.000  H
  H336     1.0000 0.18379  0.61359  0.72299  Biso   1.000  H
  C593     1.0000 0.37397  0.25397  0.63595  Biso   1.000  C
  C594     1.0000 0.21773  0.11767  0.60037  Biso   1.000  C
  C595     1.0000 0.11105  0.34807  0.48874  Biso   1.000  C
  C596     1.0000 0.98874  0.38895  0.65193  Biso   1.000  C
  C597     1.0000 0.27881  0.26759  0.85713  Biso   1.000  C
  H337     1.0000 0.29770  0.29000  0.89250  Biso   1.000  H
  H338     1.0000 0.23979  0.30009  0.98900  Biso   1.000  H
  H339     1.0000 0.26920  0.31329  0.97789  Biso   1.000  H
  C598     1.0000 0.12068  0.50897  0.79950  Biso   1.000  C
  H340     1.0000 0.14539  0.54540  0.81318  Biso   1.000  H
  H341     1.0000 0.17010  0.62739  0.78109  Biso   1.000  H
  H342     1.0000 0.15199  0.63790  0.75439  Biso   1.000  H
  N79      1.0000 0.39286  0.24064  0.64628  Biso   1.000  N
  H343     1.0000 0.37469  0.27379  0.63889  Biso   1.000  H
  N80      1.0000 0.21096  0.10016  0.58141  Biso   1.000  N
  H344     1.0000 0.21309  0.11450  0.61968  Biso   1.000  H
  N81      1.0000 0.09502  0.34386  0.47034  Biso   1.000  N
  H345     1.0000 0.12961  0.34079  0.48570  Biso   1.000  H
  N82      1.0000 0.97036  0.40498  0.65614  Biso   1.000  N
  H346     1.0000 0.98570  0.37039  0.65918  Biso   1.000  H
  C599     1.0000 0.30589  0.25773  0.84744  Biso   1.000  C
  C600     1.0000 0.25678  0.25957  0.84283  Biso   1.000  C
  C601     1.0000 0.11052  0.49894  0.82520  Biso   1.000  C
  C602     1.0000 0.11194  0.49535  0.77553  Biso   1.000  C
  C603     1.0000 0.41713  0.25526  0.66210  Biso   1.000  C
  C604     1.0000 0.19828  0.07483  0.59679  Biso   1.000  C
  C605     1.0000 0.10576  0.32823  0.44605  Biso   1.000  C
  C606     1.0000 0.94605  0.39424  0.67177  Biso   1.000  C
  C607     1.0000 0.30756  0.24161  0.82277  Biso   1.000  C
  H347     1.0000 0.32260  0.26220  0.85778  Biso   1.000  H
  C608     1.0000 0.25885  0.24358  0.82051  Biso   1.000  C
  H348     1.0000 0.23861  0.26550  0.84890  Biso   1.000  H
  C609     1.0000 0.09402  0.47664  0.82685  Biso   1.000  C
  H349     1.0000 0.11571  0.50851  0.84209  Biso   1.000  H
  H350     1.0000 0.11810  0.50150  0.75739  Biso   1.000  H
  C610     1.0000 0.09491  0.47370  0.77794  Biso   1.000  C
  C611     1.0000 0.42041  0.24070  0.69115  Biso   1.000  C
  H351     1.0000 0.41199  0.27559  0.66519  Biso   1.000  H
  C612     1.0000 0.44497  0.25399  0.64499  Biso   1.000  C
  C613     1.0000 0.21631  0.05050  0.59059  Biso   1.000  C
  C614     1.0000 0.16885  0.07005  0.58251  Biso   1.000  C
  C615     1.0000 0.08734  0.30303  0.44146  Biso   1.000  C
  C616     1.0000 0.10320  0.34943  0.42032  Biso   1.000  C
  C617     1.0000 0.94148  0.41266  0.69695  Biso   1.000  C
  C618     1.0000 0.92032  0.39680  0.65057  Biso   1.000  C
  C619     1.0000 0.28401  0.23309  0.80893  Biso   1.000  C
  H352     1.0000 0.32560  0.23649  0.81560  Biso   1.000  H
  H353     1.0000 0.24170  0.23861  0.81120  Biso   1.000  H
  C620     1.0000 0.08452  0.46456  0.80354  Biso   1.000  C
  H354     1.0000 0.08890  0.46920  0.84479  Biso   1.000  H
  H355     1.0000 0.08949  0.46391  0.76129  Biso   1.000  H
  N83      1.0000 0.39388  0.24313  0.70782  Biso   1.000  N
  H356     1.0000 0.42479  0.22020  0.68819  Biso   1.000  H
  C621     1.0000 0.44482  0.25452  0.70588  Biso   1.000  C
  H357     1.0000 0.44960  0.23410  0.64019  Biso   1.000  H
  H358     1.0000 0.44300  0.26480  0.62720  Biso   1.000  H
  C622     1.0000 0.46664  0.26590  0.66206  Biso   1.000  C
  C623     1.0000 0.19923  0.02238  0.60085  Biso   1.000  C
  N84      1.0000 0.14846  0.09364  0.58224  Biso   1.000  N
  C624     1.0000 0.15286  0.04373  0.59174  Biso   1.000  C
  N85      1.0000 0.08736  0.28352  0.46365  Biso   1.000  N
  C625     1.0000 0.09417  0.28837  0.41218  Biso   1.000  C
  C626     1.0000 0.11289  0.33574  0.39354  Biso   1.000  C
  N86      1.0000 0.96365  0.41264  0.71648  Biso   1.000  N
  C627     1.0000 0.91218  0.40583  0.71161  Biso   1.000  C
  C628     1.0000 0.89354  0.38711  0.66424  Biso   1.000  C
  N87      1.0000 0.28477  0.21523  0.78477  Biso   1.000  N
  N88      1.0000 0.06432  0.44231  0.80586  Biso   1.000  N
  C629     1.0000 0.38389  0.21971  0.71506  Biso   1.000  C
  C630     1.0000 0.47322  0.25096  0.68978  Biso   1.000  C
  H359     1.0000 0.44679  0.24631  0.72500  Biso   1.000  H
  H360     1.0000 0.44080  0.27500  0.70810  Biso   1.000  H
  H361     1.0000 0.46130  0.28570  0.66650  Biso   1.000  H
  H362     1.0000 0.48420  0.26660  0.65070  Biso   1.000  H
  C631     1.0000 0.17427  0.01513  0.58592  Biso   1.000  C
  C632     1.0000 0.13773  0.10350  0.56379  Biso   1.000  C
  C633     1.0000 0.06542  0.27491  0.47508  Biso   1.000  C
  C634     1.0000 0.09224  0.30722  0.38814  Biso   1.000  C
  C635     1.0000 0.97510  0.43458  0.72509  Biso   1.000  C
  C636     1.0000 0.88814  0.40776  0.69276  Biso   1.000  C
  C637     1.0000 0.30893  0.21597  0.76691  Biso   1.000  C
  C638     1.0000 0.26691  0.19107  0.78401  Biso   1.000  C
  C639     1.0000 0.04032  0.44178  0.78380  Biso   1.000  C
  C640     1.0000 0.06372  0.42373  0.82956  Biso   1.000  C
  C641     1.0000 0.35713  0.22119  0.73241  Biso   1.000  C
  H363     1.0000 0.39250  0.20230  0.71000  Biso   1.000  H
  H364     1.0000 0.48900  0.26021  0.69989  Biso   1.000  H
  H365     1.0000 0.47789  0.23080  0.68669  Biso   1.000  H
  C642     1.0000 0.11662  0.12800  0.56241  Biso   1.000  C
  C643     1.0000 0.06381  0.25496  0.49964  Biso   1.000  C
  C644     1.0000 0.99964  0.43619  0.74502  Biso   1.000  C
  C645     1.0000 0.32277  0.19244  0.75839  Biso   1.000  C
  C646     1.0000 0.32051  0.24115  0.75640  Biso   1.000  C
  C647     1.0000 0.25839  0.17721  0.80754  Biso   1.000  C
  C648     1.0000 0.25640  0.17949  0.75885  Biso   1.000  C
  C649     1.0000 0.02960  0.46355  0.77413  Biso   1.000  C
  C650     1.0000 0.03167  0.41567  0.77440  Biso   1.000  C
  C651     1.0000 0.03694  0.41442  0.83950  Biso   1.000  C
  C652     1.0000 0.08740  0.41279  0.83898  Biso   1.000  C
  C653     1.0000 0.34744  0.19411  0.74225  Biso   1.000  C
  C654     1.0000 0.34285  0.24320  0.74043  Biso   1.000  C
  C655     1.0000 0.10403  0.13674  0.53836  Biso   1.000  C
  C656     1.0000 0.10672  0.13925  0.58873  Biso   1.000  C
  C657     1.0000 0.03770  0.24580  0.50705  Biso   1.000  C
  C658     1.0000 0.08704  0.24633  0.51134  Biso   1.000  C
  C659     1.0000 0.00705  0.46230  0.75418  Biso   1.000  C
  C660     1.0000 0.01134  0.41296  0.75365  Biso   1.000  C
  H366     1.0000 0.31560  0.17440  0.76349  Biso   1.000  H
  H367     1.0000 0.31120  0.25830  0.76139  Biso   1.000  H
  H368     1.0000 0.26349  0.18440  0.82558  Biso   1.000  H
  C661     1.0000 0.24227  0.15256  0.80589  Biso   1.000  C
  C662     1.0000 0.24043  0.15715  0.75678  Biso   1.000  C
  H369     1.0000 0.26139  0.18880  0.74170  Biso   1.000  H
  C663     1.0000 0.03836  0.39597  0.86326  Biso   1.000  C
  C664     1.0000 0.08873  0.39328  0.86075  Biso   1.000  C
  H370     1.0000 0.35780  0.17740  0.73780  Biso   1.000  H
  H371     1.0000 0.34890  0.26139  0.73450  Biso   1.000  H
  C665     1.0000 0.08558  0.16050  0.53694  Biso   1.000  C
  C666     1.0000 0.08721  0.16102  0.58740  Biso   1.000  C
  C667     1.0000 0.03645  0.22585  0.52958  Biso   1.000  C
  C668     1.0000 0.08431  0.22557  0.53167  Biso   1.000  C
  H372     1.0000 0.23780  0.14220  0.82260  Biso   1.000  H
  C669     1.0000 0.23241  0.14285  0.77878  Biso   1.000  C
  H373     1.0000 0.23450  0.15110  0.73859  Biso   1.000  H
  C670     1.0000 0.06241  0.38338  0.87200  Biso   1.000  C
  C671     1.0000 0.07625  0.17044  0.56372  Biso   1.000  C
  C672     1.0000 0.05820  0.21618  0.54032  Biso   1.000  C
  C673     1.0000 0.21506  0.11611  0.78026  Biso   1.000  C
  C674     1.0000 0.06379  0.36227  0.89650  Biso   1.000  C
  N89      1.0000 0.05769  0.19414  0.56432  Biso   1.000  N
  N90      1.0000 0.20782  0.10610  0.75684  Biso   1.000  N
  H374     1.0000 0.21000  0.10750  0.79770  Biso   1.000  H
  N91      1.0000 0.08224  0.35154  0.90636  Biso   1.000  N
  C675     1.0000 0.03544  0.19644  0.58452  Biso   1.000  C
  C676     1.0000 0.19115  0.07959  0.75928  Biso   1.000  C
  C677     1.0000 0.08251  0.33115  0.92995  Biso   1.000  C
  C678     1.0000 0.02336  0.17315  0.59402  Biso   1.000  C
  C679     1.0000 0.02630  0.22206  0.59491  Biso   1.000  C
  H375     1.0000 0.18819  0.07519  0.77980  Biso   1.000  H
  C680     1.0000 0.16212  0.08285  0.74472  Biso   1.000  C
  C681     1.0000 0.20588  0.05518  0.74548  Biso   1.000  C
  C682     1.0000 0.09679  0.30172  0.92515  Biso   1.000  C
  C683     1.0000 0.09174  0.34714  0.95627  Biso   1.000  C
  H376     1.0000 0.03080  0.15521  0.58890  Biso   1.000  H
  C684     1.0000 0.00106  0.17480  0.61052  Biso   1.000  C
  C685     1.0000 0.00465  0.22445  0.61194  Biso   1.000  C
  H377     1.0000 0.03609  0.23869  0.58949  Biso   1.000  H
  N92      1.0000 0.14628  0.10714  0.75936  Biso   1.000  N
  H378     1.0000 0.16519  0.08799  0.72439  Biso   1.000  H
  C686     1.0000 0.14501  0.05503  0.74601  Biso   1.000  C
  C687     1.0000 0.18978  0.02676  0.74902  Biso   1.000  C
  H379     1.0000 0.22500  0.05321  0.75369  Biso   1.000  H
  H380     1.0000 0.20810  0.05920  0.72500  Biso   1.000  H
  N93      1.0000 0.08141  0.28904  0.89984  Biso   1.000  N
  C688     1.0000 0.09059  0.28367  0.94950  Biso   1.000  C
  C689     1.0000 0.08594  0.32571  0.98487  Biso   1.000  C
  H381     1.0000 0.99149  0.15789  0.61569  Biso   1.000  H
  C690     1.0000 0.99103  0.20048  0.62068  Biso   1.000  C
  H382     1.0000 0.99850  0.24261  0.61810  Biso   1.000  H
  C691     1.0000 0.13595  0.12601  0.74603  Biso   1.000  C
  H383     1.0000 0.14021  0.05040  0.76590  Biso   1.000  H
  H384     1.0000 0.12720  0.05700  0.73520  Biso   1.000  H
  C692     1.0000 0.16206  0.03336  0.73408  Biso   1.000  C
  H385     1.0000 0.19989  0.01100  0.73979  Biso   1.000  H
  H386     1.0000 0.18669  0.02211  0.76920  Biso   1.000  H
  C693     1.0000 0.10037  0.28227  0.88230  Biso   1.000  C
  C694     1.0000 0.10085  0.30077  0.97759  Biso   1.000  C
  C695     1.0000 0.96427  0.20349  0.63970  Biso   1.000  C
  C696     1.0000 0.11990  0.14933  0.75583  Biso   1.000  C
  H387     1.0000 0.13889  0.12529  0.72619  Biso   1.000  H
  H388     1.0000 0.16650  0.03870  0.71430  Biso   1.000  H
  H389     1.0000 0.15070  0.01580  0.73340  Biso   1.000  H
  C697     1.0000 0.09097  0.26643  0.85577  Biso   1.000  C
  H390     1.0000 0.11971  0.28691  0.88550  Biso   1.000  H
  N94      1.0000 0.95494  0.22697  0.64778  Biso   1.000  N
  H391     1.0000 0.95460  0.18679  0.64539  Biso   1.000  H
  C698     1.0000 0.11067  0.17076  0.73751  Biso   1.000  C
  C699     1.0000 0.11492  0.15468  0.78458  Biso   1.000  C
  C700     1.0000 0.11023  0.25725  0.83826  Biso   1.000  C
  C701     1.0000 0.06394  0.26031  0.84860  Biso   1.000  C
  C702     1.0000 0.92893  0.22703  0.66361  Biso   1.000  C
  C703     1.0000 0.09127  0.19028  0.74595  Biso   1.000  C
  H392     1.0000 0.11810  0.17171  0.71889  Biso   1.000  H
  H393     1.0000 0.12269  0.14241  0.79850  Biso   1.000  H
  C704     1.0000 0.09939  0.17687  0.79264  Biso   1.000  C
  C705     1.0000 0.10464  0.24119  0.81454  Biso   1.000  C
  H394     1.0000 0.12940  0.26190  0.84209  Biso   1.000  H
  C706     1.0000 0.05516  0.24521  0.82584  Biso   1.000  C
  H395     1.0000 0.04959  0.26740  0.86079  Biso   1.000  H
  C707     1.0000 0.93236  0.24246  0.69048  Biso   1.000  C
  H396     1.0000 0.92481  0.20689  0.66860  Biso   1.000  H
  C708     1.0000 0.90454  0.23740  0.64704  Biso   1.000  C
  C709     1.0000 0.08786  0.19627  0.77347  Biso   1.000  C
  H397     1.0000 0.08010  0.19981  0.73220  Biso   1.000  H
  H398     1.0000 0.09599  0.17960  0.81230  Biso   1.000  H
  C710     1.0000 0.07703  0.23584  0.80732  Biso   1.000  C
  H399     1.0000 0.11971  0.23389  0.80339  Biso   1.000  H
  H400     1.0000 0.03580  0.24110  0.82249  Biso   1.000  H
  N95      1.0000 0.95750  0.23254  0.70694  Biso   1.000  N
  H401     1.0000 0.93721  0.26230  0.68470  Biso   1.000  H
  C711     1.0000 0.90649  0.24521  0.70749  Biso   1.000  C
  H402     1.0000 0.90181  0.22500  0.63039  Biso   1.000  H
  H403     1.0000 0.90879  0.25670  0.63999  Biso   1.000  H
  C712     1.0000 0.87769  0.23821  0.66390  Biso   1.000  C
  N96      1.0000 0.07035  0.21961  0.78128  Biso   1.000  N
  C713     1.0000 0.97537  0.24952  0.71506  Biso   1.000  C
  C714     1.0000 0.88186  0.25748  0.68988  Biso   1.000  C
  H404     1.0000 0.91021  0.25780  0.72380  Biso   1.000  H
  H405     1.0000 0.90101  0.22640  0.71489  Biso   1.000  H
  H406     1.0000 0.87259  0.21889  0.67010  Biso   1.000  H
  H407     1.0000 0.86210  0.24559  0.65199  Biso   1.000  H
  C715     1.0000 0.04574  0.22625  0.76526  Biso   1.000  C
  C716     1.0000 0.00076  0.24055  0.73232  Biso   1.000  C
  H408     1.0000 0.97319  0.26890  0.71038  Biso   1.000  H
  H409     1.0000 0.86430  0.25801  0.70139  Biso   1.000  H
  H410     1.0000 0.88641  0.27701  0.68379  Biso   1.000  H
  C717     1.0000 0.04208  0.25314  0.75826  Biso   1.000  C
  C718     1.0000 0.02822  0.20476  0.75608  Biso   1.000  C
  C719     1.0000 0.01919  0.26078  0.74163  Biso   1.000  C
  C720     1.0000 0.00425  0.21379  0.73986  Biso   1.000  C
  H411     1.0000 0.05509  0.26711  0.76459  Biso   1.000  H
  H412     1.0000 0.03180  0.18540  0.76019  Biso   1.000  H
  H413     1.0000 0.01629  0.28010  0.73670  Biso   1.000  H
  H414     1.0000 0.99050  0.20021  0.73440  Biso   1.000  H
  C721     1.0000 0.60870  0.35577  0.56578  Biso   1.000  C
  C722     1.0000 0.62161  0.34139  0.53946  Biso   1.000  C
  C723     1.0000 0.60735  0.33701  0.59165  Biso   1.000  C
  H415     1.0000 0.62009  0.37280  0.57039  Biso   1.000  H
  H416     1.0000 0.58930  0.36221  0.56110  Biso   1.000  H
  C724     1.0000 0.60999  0.31405  0.53749  Biso   1.000  C
  H417     1.0000 0.61710  0.35239  0.52219  Biso   1.000  H
  H418     1.0000 0.64239  0.34029  0.54130  Biso   1.000  H
  C725     1.0000 0.59478  0.30832  0.58418  Biso   1.000  C
  N97      1.0000 0.59227  0.35292  0.61499  Biso   1.000  N
  H419     1.0000 0.62720  0.33371  0.59810  Biso   1.000  H
  C726     1.0000 0.60661  0.29349  0.55884  Biso   1.000  C
  H420     1.0000 0.62110  0.30449  0.52249  Biso   1.000  H
  H421     1.0000 0.59081  0.31680  0.52960  Biso   1.000  H
  N98      1.0000 0.59538  0.29067  0.60837  Biso   1.000  N
  H422     1.0000 0.57439  0.31179  0.57989  Biso   1.000  H
  C727     1.0000 0.60701  0.35922  0.63517  Biso   1.000  C
  H423     1.0000 0.62510  0.28471  0.56349  Biso   1.000  H
  H424     1.0000 0.59349  0.27849  0.55241  Biso   1.000  H
  C728     1.0000 0.57212  0.28266  0.61844  Biso   1.000  C
  C729     1.0000 0.59751  0.37439  0.66088  Biso   1.000  C
  H425     1.0000 0.62639  0.35389  0.63439  Biso   1.000  H
  C730     1.0000 0.57168  0.26139  0.64495  Biso   1.000  C
  H426     1.0000 0.55490  0.28909  0.61040  Biso   1.000  H
  C731     1.0000 0.61706  0.38207  0.67939  Biso   1.000  C
  C732     1.0000 0.57138  0.38097  0.66405  Biso   1.000  C
  C733     1.0000 0.54473  0.24984  0.65195  Biso   1.000  C
  C734     1.0000 0.59512  0.25253  0.65959  Biso   1.000  C
  C735     1.0000 0.60815  0.39921  0.70268  Biso   1.000  C
  H427     1.0000 0.63619  0.37640  0.67729  Biso   1.000  H
  H428     1.0000 0.55820  0.37431  0.65040  Biso   1.000  H
  C736     1.0000 0.56095  0.39771  0.68688  Biso   1.000  C
  C737     1.0000 0.54589  0.23133  0.67490  Biso   1.000  C
  H429     1.0000 0.52780  0.25431  0.64209  Biso   1.000  H
  H430     1.0000 0.61329  0.25970  0.65489  Biso   1.000  H
  C738     1.0000 0.59229  0.23448  0.67975  Biso   1.000  C
  C739     1.0000 0.58023  0.40606  0.70596  Biso   1.000  C
  H431     1.0000 0.62169  0.40589  0.71599  Biso   1.000  H
  H432     1.0000 0.54149  0.40270  0.68849  Biso   1.000  H
  C740     1.0000 0.56910  0.22439  0.68728  Biso   1.000  C
  H433     1.0000 0.52869  0.22350  0.68170  Biso   1.000  H
  H434     1.0000 0.60879  0.22849  0.68950  Biso   1.000  H
  N99      1.0000 0.57289  0.42358  0.73065  Biso   1.000  N
  N100     1.0000 0.56702  0.20317  0.71110  Biso   1.000  N
  C741     1.0000 0.58937  0.44836  0.73715  Biso   1.000  C
  C742     1.0000 0.54839  0.41823  0.74519  Biso   1.000  C
  C743     1.0000 0.58672  0.18106  0.71324  Biso   1.000  C
  C744     1.0000 0.54312  0.20499  0.72854  Biso   1.000  C
  C745     1.0000 0.59413  0.45570  0.76323  Biso   1.000  C
  C746     1.0000 0.60176  0.46308  0.71650  Biso   1.000  C
  C747     1.0000 0.54200  0.38910  0.75253  Biso   1.000  C
  C748     1.0000 0.53053  0.43837  0.75433  Biso   1.000  C
  C749     1.0000 0.59540  0.16957  0.68516  Biso   1.000  C
  C750     1.0000 0.59700  0.17063  0.73603  Biso   1.000  C
  C751     1.0000 0.53235  0.18024  0.73981  Biso   1.000  C
  C752     1.0000 0.53296  0.23112  0.73776  Biso   1.000  C
  H435     1.0000 0.58499  0.44539  0.77790  Biso   1.000  H
  C753     1.0000 0.61234  0.47834  0.77093  Biso   1.000  C
  C754     1.0000 0.61825  0.48701  0.72287  Biso   1.000  C
  H436     1.0000 0.59939  0.45739  0.69739  Biso   1.000  H
  H437     1.0000 0.55469  0.37439  0.74749  Biso   1.000  H
  C755     1.0000 0.51796  0.38296  0.76660  Biso   1.000  C
  C756     1.0000 0.50724  0.43196  0.77045  Biso   1.000  C
  H438     1.0000 0.53410  0.45750  0.74950  Biso   1.000  H
  H439     1.0000 0.58920  0.17729  0.66769  Biso   1.000  H
  C757     1.0000 0.61482  0.14465  0.68717  Biso   1.000  C
  C758     1.0000 0.61433  0.14596  0.73833  Biso   1.000  C
  H440     1.0000 0.59269  0.18030  0.75310  Biso   1.000  H
  H441     1.0000 0.54079  0.16229  0.73630  Biso   1.000  H
  C759     1.0000 0.50690  0.18354  0.75763  Biso   1.000  C
  C760     1.0000 0.51075  0.23188  0.75574  Biso   1.000  C
  H442     1.0000 0.54149  0.24819  0.73150  Biso   1.000  H
  H443     1.0000 0.61729  0.48170  0.79010  Biso   1.000  H
  C761     1.0000 0.62265  0.49554  0.74923  Biso   1.000  C
  H444     1.0000 0.62650  0.49740  0.70780  Biso   1.000  H
  H445     1.0000 0.51291  0.36369  0.76960  Biso   1.000  H
  C762     1.0000 0.50028  0.40452  0.77699  Biso   1.000  C
  H446     1.0000 0.49560  0.44690  0.77730  Biso   1.000  H
  H447     1.0000 0.62188  0.13559  0.67069  Biso   1.000  H
  C763     1.0000 0.62208  0.13543  0.71375  Biso   1.000  C
  H448     1.0000 0.61979  0.13790  0.75600  Biso   1.000  H
  H449     1.0000 0.49689  0.16720  0.76378  Biso   1.000  H
  C764     1.0000 0.49763  0.20992  0.76543  Biso   1.000  C
  H450     1.0000 0.50429  0.24990  0.76179  Biso   1.000  H
  C765     1.0000 0.64143  0.51993  0.75608  Biso   1.000  C
  C766     1.0000 0.47262  0.39796  0.79387  Biso   1.000  C
  C767     1.0000 0.64165  0.10784  0.71758  Biso   1.000  C
  C768     1.0000 0.47214  0.21017  0.78373  Biso   1.000  C
  N101     1.0000 0.64958  0.53734  0.73753  Biso   1.000  N
  H451     1.0000 0.64748  0.52249  0.77510  Biso   1.000  H
  N102     1.0000 0.45477  0.41546  0.80153  Biso   1.000  N
  H452     1.0000 0.46920  0.37879  0.79869  Biso   1.000  H
  N103     1.0000 0.64988  0.09764  0.73744  Biso   1.000  N
  H453     1.0000 0.64710  0.09880  0.70050  Biso   1.000  H
  N104     1.0000 0.46044  0.23304  0.79046  Biso   1.000  N
  H454     1.0000 0.46460  0.19280  0.79048  Biso   1.000  H
  C769     1.0000 0.66625  0.56114  0.74927  Biso   1.000  C
  C770     1.0000 0.43042  0.40562  0.81532  Biso   1.000  C
  C771     1.0000 0.66737  0.07320  0.73545  Biso   1.000  C
  C772     1.0000 0.43539  0.23270  0.80908  Biso   1.000  C
  C773     1.0000 0.69090  0.56461  0.73270  Biso   1.000  C
  H455     1.0000 0.67150  0.55710  0.76939  Biso   1.000  H
  C774     1.0000 0.64634  0.58926  0.74770  Biso   1.000  C
  H456     1.0000 0.43520  0.38569  0.82070  Biso   1.000  H
  C775     1.0000 0.42680  0.41990  0.84228  Biso   1.000  C
  C776     1.0000 0.40699  0.40278  0.79789  Biso   1.000  C
  C777     1.0000 0.69337  0.07735  0.74925  Biso   1.000  C
  H457     1.0000 0.67129  0.06961  0.71500  Biso   1.000  H
  C778     1.0000 0.65220  0.04946  0.74631  Biso   1.000  C
  H458     1.0000 0.43120  0.21269  0.81469  Biso   1.000  H
  C779     1.0000 0.43886  0.24927  0.83373  Biso   1.000  C
  C780     1.0000 0.40936  0.24464  0.79029  Biso   1.000  C
  N105     1.0000 0.70952  0.53954  0.73304  Biso   1.000  N
  H459     1.0000 0.68529  0.56880  0.71269  Biso   1.000  H
  C781     1.0000 0.70969  0.59064  0.74464  Biso   1.000  C
  H460     1.0000 0.63879  0.59169  0.72830  Biso   1.000  H
  H461     1.0000 0.63020  0.58750  0.76099  Biso   1.000  H
  C782     1.0000 0.66473  0.61454  0.75577  Biso   1.000  C
  N106     1.0000 0.45007  0.42015  0.86102  Biso   1.000  N
  H462     1.0000 0.42409  0.44019  0.83709  Biso   1.000  H
  C783     1.0000 0.39904  0.41182  0.85723  Biso   1.000  C
  C784     1.0000 0.37773  0.39335  0.81263  Biso   1.000  C
  H463     1.0000 0.41161  0.38869  0.78310  Biso   1.000  H
  H464     1.0000 0.40380  0.42111  0.78828  Biso   1.000  H
  N107     1.0000 0.71186  0.10071  0.73689  Biso   1.000  N
  H465     1.0000 0.68849  0.08359  0.76890  Biso   1.000  H
  C785     1.0000 0.71330  0.05114  0.75291  Biso   1.000  C
  H466     1.0000 0.63549  0.04629  0.73410  Biso   1.000  H
  H467     1.0000 0.64509  0.05450  0.76539  Biso   1.000  H
  C786     1.0000 0.66881  0.02044  0.74874  Biso   1.000  C
  N108     1.0000 0.46264  0.23753  0.85042  Biso   1.000  N
  H468     1.0000 0.44290  0.26939  0.82850  Biso   1.000  H
  C787     1.0000 0.41072  0.24770  0.85364  Biso   1.000  C
  C788     1.0000 0.38237  0.24225  0.80842  Biso   1.000  C
  H469     1.0000 0.41279  0.26459  0.78498  Biso   1.000  H
  H470     1.0000 0.40729  0.23340  0.77280  Biso   1.000  H
  C789     1.0000 0.71624  0.52786  0.71017  Biso   1.000  C
  C790     1.0000 0.69155  0.61763  0.74225  Biso   1.000  C
  H471     1.0000 0.71500  0.58719  0.76459  Biso   1.000  H
  H472     1.0000 0.72720  0.59269  0.73340  Biso   1.000  H
  H473     1.0000 0.65370  0.63189  0.75200  Biso   1.000  H
  H474     1.0000 0.66809  0.61370  0.77639  Biso   1.000  H
  C791     1.0000 0.45955  0.44412  0.86993  Biso   1.000  C
  H475     1.0000 0.40149  0.39290  0.86580  Biso   1.000  H
  H476     1.0000 0.39580  0.42540  0.87289  Biso   1.000  H
  C792     1.0000 0.37257  0.41120  0.83876  Biso   1.000  C
  H477     1.0000 0.36189  0.39580  0.79920  Biso   1.000  H
  H478     1.0000 0.37869  0.37310  0.81799  Biso   1.000  H
  C793     1.0000 0.71935  0.12133  0.75202  Biso   1.000  C
  C794     1.0000 0.69524  0.02609  0.76664  Biso   1.000  C
  H479     1.0000 0.72940  0.05600  0.76539  Biso   1.000  H
  H480     1.0000 0.72090  0.04519  0.73429  Biso   1.000  H
  H481     1.0000 0.65679  0.00590  0.75790  Biso   1.000  H
  H482     1.0000 0.67429  0.01360  0.72970  Biso   1.000  H
  C795     1.0000 0.48007  0.25608  0.85857  Biso   1.000  C
  H483     1.0000 0.40831  0.22830  0.86119  Biso   1.000  H
  H484     1.0000 0.41250  0.26099  0.86980  Biso   1.000  H
  C796     1.0000 0.38546  0.25579  0.83527  Biso   1.000  C
  H485     1.0000 0.36639  0.25100  0.79810  Biso   1.000  H
  H486     1.0000 0.37780  0.22200  0.81139  Biso   1.000  H
  C797     1.0000 0.73454  0.50237  0.70990  Biso   1.000  C
  H487     1.0000 0.70950  0.53540  0.69280  Biso   1.000  H
  H488     1.0000 0.70190  0.63358  0.75098  Biso   1.000  H
  H489     1.0000 0.68859  0.62220  0.72200  Biso   1.000  H
  C798     1.0000 0.48413  0.44535  0.88823  Biso   1.000  C
  H490     1.0000 0.45030  0.46109  0.86449  Biso   1.000  H
  H491     1.0000 0.35660  0.40329  0.84970  Biso   1.000  H
  H492     1.0000 0.36749  0.43069  0.83309  Biso   1.000  H
  C799     1.0000 0.73522  0.14611  0.74165  Biso   1.000  C
  H493     1.0000 0.71440  0.12089  0.77148  Biso   1.000  H
  H494     1.0000 0.70689  0.00870  0.76770  Biso   1.000  H
  H495     1.0000 0.68959  0.03129  0.78608  Biso   1.000  H
  C800     1.0000 0.50446  0.24923  0.87733  Biso   1.000  C
  H496     1.0000 0.47749  0.27510  0.85249  Biso   1.000  H
  H497     1.0000 0.36809  0.25200  0.84630  Biso   1.000  H
  H498     1.0000 0.38630  0.27639  0.83189  Biso   1.000  H
  C801     1.0000 0.74235  0.49310  0.68351  Biso   1.000  C
  C802     1.0000 0.74423  0.48925  0.73188  Biso   1.000  C
  C803     1.0000 0.49924  0.42098  0.90008  Biso   1.000  C
  C804     1.0000 0.49448  0.47038  0.89923  Biso   1.000  C
  C805     1.0000 0.74189  0.15087  0.71500  Biso   1.000  C
  C806     1.0000 0.74498  0.16581  0.75957  Biso   1.000  C
  C807     1.0000 0.52166  0.27096  0.88764  Biso   1.000  C
  C808     1.0000 0.51299  0.22287  0.88173  Biso   1.000  C
  C809     1.0000 0.76019  0.46765  0.68024  Biso   1.000  C
  H499     1.0000 0.73620  0.50309  0.66720  Biso   1.000  H
  H500     1.0000 0.73818  0.49571  0.74988  Biso   1.000  H
  C810     1.0000 0.76224  0.46704  0.73110  Biso   1.000  C
  C811     1.0000 0.51970  0.42208  0.91943  Biso   1.000  C
  H501     1.0000 0.49399  0.40281  0.89328  Biso   1.000  H
  H502     1.0000 0.48621  0.48739  0.89240  Biso   1.000  H
  C812     1.0000 0.51496  0.47309  0.91861  Biso   1.000  C
  C813     1.0000 0.75737  0.17264  0.70514  Biso   1.000  C
  C814     1.0000 0.76268  0.18749  0.75136  Biso   1.000  C
  C815     1.0000 0.54430  0.26323  0.90585  Biso   1.000  C
  H503     1.0000 0.51830  0.29010  0.88269  Biso   1.000  H
  H504     1.0000 0.50260  0.20780  0.87350  Biso   1.000  H
  C816     1.0000 0.53692  0.21650  0.89821  Biso   1.000  C
  C817     1.0000 0.77144  0.45686  0.70499  Biso   1.000  C
  H505     1.0000 0.76370  0.45919  0.66229  Biso   1.000  H
  H506     1.0000 0.76850  0.45849  0.74819  Biso   1.000  H
  C818     1.0000 0.52873  0.44814  0.92885  Biso   1.000  C
  H507     1.0000 0.52791  0.40520  0.92659  Biso   1.000  H
  H508     1.0000 0.52029  0.49120  0.92540  Biso   1.000  H
  C819     1.0000 0.76852  0.19297  0.72460  Biso   1.000  C
  H509     1.0000 0.77100  0.19900  0.76560  Biso   1.000  H
  C820     1.0000 0.55162  0.23717  0.91061  Biso   1.000  C
  H510     1.0000 0.55461  0.27790  0.91499  Biso   1.000  H
  H511     1.0000 0.54259  0.19739  0.90058  Biso   1.000  H
  N109     1.0000 0.78888  0.43295  0.70317  Biso   1.000  N
  N110     1.0000 0.55048  0.44952  0.94952  Biso   1.000  N
  N111     1.0000 0.78528  0.21472  0.71472  Biso   1.000  N
  N112     1.0000 0.57640  0.23065  0.92709  Biso   1.000  N
  C821     1.0000 0.78674  0.41326  0.68106  Biso   1.000  C
  C822     1.0000 0.81272  0.43088  0.72439  Biso   1.000  C
  C823     1.0000 0.55186  0.42885  0.97127  Biso   1.000  C
  C824     1.0000 0.57115  0.47127  0.94812  Biso   1.000  C
  C825     1.0000 0.77538  0.23148  0.69297  Biso   1.000  C
  C826     1.0000 0.80701  0.22460  0.73146  Biso   1.000  C
  C827     1.0000 0.59394  0.20596  0.91975  Biso   1.000  C
  C828     1.0000 0.58175  0.24519  0.95159  Biso   1.000  C
  C829     1.0000 0.81481  0.40460  0.66957  Biso   1.000  C
  C830     1.0000 0.76395  0.40300  0.67063  Biso   1.000  C
  C831     1.0000 0.82510  0.45411  0.73133  Biso   1.000  C
  C832     1.0000 0.82023  0.40771  0.73448  Biso   1.000  C
  C833     1.0000 0.57790  0.41943  0.98028  Biso   1.000  C
  C834     1.0000 0.52689  0.41861  0.98502  Biso   1.000  C
  C835     1.0000 0.58057  0.48030  0.92208  Biso   1.000  C
  C836     1.0000 0.58139  0.48502  0.97309  Biso   1.000  C
  C837     1.0000 0.79484  0.24261  0.67264  Biso   1.000  C
  C838     1.0000 0.74861  0.23732  0.68749  Biso   1.000  C
  C839     1.0000 0.82736  0.20516  0.74261  Biso   1.000  C
  C840     1.0000 0.81251  0.25136  0.73730  Biso   1.000  C
  C841     1.0000 0.60079  0.20268  0.89182  Biso   1.000  C
  C842     1.0000 0.60227  0.18688  0.93905  Biso   1.000  C
  C843     1.0000 0.61090  0.25253  0.95798  Biso   1.000  C
  C844     1.0000 0.56163  0.25433  0.96947  Biso   1.000  C
  H512     1.0000 0.83229  0.41080  0.67729  Biso   1.000  H
  C845     1.0000 0.81283  0.38516  0.64465  Biso   1.000  C
  C846     1.0000 0.76165  0.38565  0.64596  Biso   1.000  C
  H513     1.0000 0.74690  0.40729  0.68030  Biso   1.000  H
  H514     1.0000 0.81828  0.47129  0.72350  Biso   1.000  H
  C847     1.0000 0.84803  0.45527  0.74984  Biso   1.000  C
  C848     1.0000 0.84039  0.40488  0.75253  Biso   1.000  C
  H515     1.0000 0.81050  0.39119  0.72849  Biso   1.000  H
  H516     1.0000 0.59480  0.42661  0.97209  Biso   1.000  H
  C849     1.0000 0.57900  0.40008  0.00076  Biso   1.000  C
  H517     1.0000 0.50880  0.42540  0.97969  Biso   1.000  H
  C850     1.0000 0.52962  0.39923  0.00550  Biso   1.000  C
  H518     1.0000 0.57339  0.47209  0.90520  Biso   1.000  H
  C851     1.0000 0.59992  0.50076  0.92098  Biso   1.000  C
  C852     1.0000 0.60075  0.50550  0.97038  Biso   1.000  C
  H519     1.0000 0.57460  0.47969  0.99120  Biso   1.000  H
  C853     1.0000 0.78498  0.25811  0.65087  Biso   1.000  C
  C854     1.0000 0.74043  0.25500  0.66579  Biso   1.000  C
  H520     1.0000 0.73440  0.22900  0.69900  Biso   1.000  H
  C855     1.0000 0.84913  0.21500  0.75811  Biso   1.000  C
  C856     1.0000 0.83419  0.25957  0.75500  Biso   1.000  C
  H521     1.0000 0.80100  0.26560  0.72900  Biso   1.000  H
  H522     1.0000 0.59408  0.21599  0.87828  Biso   1.000  H
  C857     1.0000 0.61791  0.17939  0.88294  Biso   1.000  C
  C858     1.0000 0.61903  0.16405  0.92860  Biso   1.000  C
  H523     1.0000 0.59730  0.18851  0.95849  Biso   1.000  H
  H524     1.0000 0.62559  0.24749  0.94529  Biso   1.000  H
  C859     1.0000 0.61704  0.26660  0.98204  Biso   1.000  C
  C860     1.0000 0.56804  0.27045  0.99274  Biso   1.000  C
  H525     1.0000 0.54250  0.24950  0.96590  Biso   1.000  H
  H526     1.0000 0.82929  0.37809  0.63559  Biso   1.000  H
  C861     1.0000 0.78625  0.37792  0.63543  Biso   1.000  C
  H527     1.0000 0.74400  0.38019  0.63790  Biso   1.000  H
  H528     1.0000 0.85789  0.47220  0.75428  Biso   1.000  H
  C862     1.0000 0.85503  0.42830  0.76139  Biso   1.000  C
  H529     1.0000 0.84509  0.38671  0.75970  Biso   1.000  H
  H530     1.0000 0.59719  0.39331  0.00599  Biso   1.000  H
  C863     1.0000 0.55463  0.38823  0.01585  Biso   1.000  C
  H531     1.0000 0.51259  0.39240  0.01379  Biso   1.000  H
  H532     1.0000 0.60669  0.50599  0.90278  Biso   1.000  H
  C864     1.0000 0.61175  0.51585  0.94535  Biso   1.000  C
  H533     1.0000 0.60760  0.51379  0.98739  Biso   1.000  H
  C865     1.0000 0.75833  0.26478  0.64609  Biso   1.000  C
  C866     1.0000 0.85389  0.24165  0.76478  Biso   1.000  C
  H534     1.0000 0.62360  0.17729  0.86379  Biso   1.000  H
  C867     1.0000 0.62559  0.16090  0.90249  Biso   1.000  C
  H535     1.0000 0.62569  0.15040  0.94180  Biso   1.000  H
  H536     1.0000 0.63629  0.26960  0.98709  Biso   1.000  H
  C868     1.0000 0.59548  0.27699  0.99970  Biso   1.000  C
  H537     1.0000 0.55310  0.27730  0.00440  Biso   1.000  H
  C869     1.0000 0.78242  0.35833  0.60782  Biso   1.000  C
  C870     1.0000 0.88154  0.42788  0.78263  Biso   1.000  C
  C871     1.0000 0.55588  0.36993  0.04043  Biso   1.000  C
  C872     1.0000 0.63007  0.54045  0.94410  Biso   1.000  C
  C873     1.0000 0.74796  0.28065  0.62133  Biso   1.000  C
  C874     1.0000 0.87864  0.25202  0.78065  Biso   1.000  C
  C875     1.0000 0.64076  0.13517  0.89297  Biso   1.000  C
  C876     1.0000 0.60202  0.29387  0.02738  Biso   1.000  C
  N113     1.0000 0.76256  0.35010  0.59762  Biso   1.000  N
  H538     1.0000 0.79950  0.35290  0.59880  Biso   1.000  H
  N114     1.0000 0.89163  0.40462  0.79065  Biso   1.000  N
  H539     1.0000 0.88958  0.44510  0.78909  Biso   1.000  H
  N115     1.0000 0.57982  0.36102  0.04991  Biso   1.000  N
  H540     1.0000 0.53889  0.36449  0.04970  Biso   1.000  H
  N116     1.0000 0.63898  0.54991  0.92015  Biso   1.000  N
  H541     1.0000 0.63549  0.54970  0.96109  Biso   1.000  H
  N117     1.0000 0.76309  0.28811  0.60069  Biso   1.000  N
  H542     1.0000 0.72849  0.28560  0.62089  Biso   1.000  H
  N118     1.0000 0.89929  0.23691  0.78811  Biso   1.000  N
  H543     1.0000 0.87909  0.27151  0.78560  Biso   1.000  H
  N119     1.0000 0.64706  0.11499  0.90771  Biso   1.000  N
  H544     1.0000 0.64609  0.13439  0.87359  Biso   1.000  H
  N120     1.0000 0.58454  0.30153  0.04521  Biso   1.000  N
  H545     1.0000 0.62119  0.29869  0.03078  Biso   1.000  H
  C877     1.0000 0.76452  0.33261  0.57320  Biso   1.000  C
  C878     1.0000 0.91582  0.40520  0.80832  Biso   1.000  C
  C879     1.0000 0.58008  0.34228  0.07318  Biso   1.000  C
  C880     1.0000 0.65772  0.57320  0.91990  Biso   1.000  C
  C881     1.0000 0.75073  0.30661  0.57735  Biso   1.000  C
  C882     1.0000 0.92265  0.24925  0.80661  Biso   1.000  C
  C883     1.0000 0.66299  0.09165  0.89263  Biso   1.000  C
  C884     1.0000 0.59436  0.31532  0.06956  Biso   1.000  C
  H546     1.0000 0.78498  0.32869  0.56958  Biso   1.000  H
  C885     1.0000 0.75369  0.34780  0.54946  Biso   1.000  C
  C886     1.0000 0.90833  0.39263  0.83699  Biso   1.000  C
  H547     1.0000 0.92009  0.42559  0.81179  Biso   1.000  H
  C887     1.0000 0.94114  0.39337  0.79349  Biso   1.000  C
  H548     1.0000 0.55979  0.33709  0.07589  Biso   1.000  H
  C888     1.0000 0.58818  0.35725  0.10096  Biso   1.000  C
  C889     1.0000 0.68466  0.56958  0.90562  Biso   1.000  C
  H549     1.0000 0.66289  0.57589  0.94019  Biso   1.000  H
  C890     1.0000 0.64275  0.60096  0.91182  Biso   1.000  C
  H550     1.0000 0.73110  0.31149  0.58359  Biso   1.000  H
  C891     1.0000 0.74707  0.28668  0.55114  Biso   1.000  C
  H551     1.0000 0.91639  0.26890  0.81149  Biso   1.000  H
  C892     1.0000 0.92678  0.23545  0.83261  Biso   1.000  C
  C893     1.0000 0.94884  0.25291  0.78668  Biso   1.000  C
  H552     1.0000 0.66629  0.09810  0.87278  Biso   1.000  H
  C894     1.0000 0.64421  0.06580  0.89127  Biso   1.000  C
  C895     1.0000 0.69168  0.08418  0.90520  Biso   1.000  C
  H553     1.0000 0.61429  0.32070  0.06478  Biso   1.000  H
  C896     1.0000 0.59719  0.29789  0.09301  Biso   1.000  C
  H554     1.0000 0.76590  0.36449  0.54629  Biso   1.000  H
  H555     1.0000 0.73459  0.35491  0.55450  Biso   1.000  H
  C897     1.0000 0.75124  0.33117  0.52042  Biso   1.000  C
  N121     1.0000 0.88501  0.40771  0.85292  Biso   1.000  N
  H556     1.0000 0.90190  0.37280  0.83369  Biso   1.000  H
  C898     1.0000 0.93420  0.39130  0.85577  Biso   1.000  C
  H557     1.0000 0.93649  0.37490  0.78469  Biso   1.000  H
  H558     1.0000 0.94759  0.40649  0.77849  Biso   1.000  H
  C899     1.0000 0.96249  0.38998  0.81405  Biso   1.000  C
  H559     1.0000 0.60710  0.36580  0.09849  Biso   1.000  H
  H560     1.0000 0.57460  0.37289  0.10420  Biso   1.000  H
  C900     1.0000 0.58880  0.33876  0.12741  Biso   1.000  C
  N122     1.0000 0.69847  0.54523  0.91546  Biso   1.000  N
  H561     1.0000 0.67930  0.56480  0.88569  Biso   1.000  H
  C901     1.0000 0.70211  0.59301  0.90278  Biso   1.000  C
  H562     1.0000 0.63420  0.59849  0.89288  Biso   1.000  H
  H563     1.0000 0.62709  0.60420  0.92540  Biso   1.000  H
  C902     1.0000 0.66122  0.62741  0.91120  Biso   1.000  C
  C903     1.0000 0.73334  0.30474  0.52607  Biso   1.000  C
  H564     1.0000 0.73459  0.27060  0.55600  Biso   1.000  H
  H565     1.0000 0.76569  0.27910  0.54519  Biso   1.000  H
  N123     1.0000 0.90236  0.23744  0.85010  Biso   1.000  N
  H566     1.0000 0.93039  0.21500  0.82869  Biso   1.000  H
  C904     1.0000 0.95051  0.24631  0.84778  Biso   1.000  C
  C905     1.0000 0.97391  0.26664  0.80474  Biso   1.000  C
  H567     1.0000 0.94400  0.26539  0.77060  Biso   1.000  H
  H568     1.0000 0.95479  0.23429  0.77910  Biso   1.000  H
  H569     1.0000 0.62720  0.07039  0.87989  Biso   1.000  H
  H570     1.0000 0.63779  0.06110  0.91070  Biso   1.000  H
  C906     1.0000 0.65861  0.03946  0.87839  Biso   1.000  C
  N124     1.0000 0.70933  0.10837  0.90460  Biso   1.000  N
  H571     1.0000 0.68819  0.07991  0.92559  Biso   1.000  H
  C907     1.0000 0.70651  0.05884  0.89337  Biso   1.000  C
  C908     1.0000 0.60663  0.31266  0.12224  Biso   1.000  C
  H572     1.0000 0.61129  0.28310  0.08839  Biso   1.000  H
  H573     1.0000 0.57889  0.28830  0.09620  Biso   1.000  H
  H574     1.0000 0.74210  0.34321  0.50590  Biso   1.000  H
  H575     1.0000 0.77030  0.32569  0.51360  Biso   1.000  H
  C909     1.0000 0.86481  0.39297  0.85922  Biso   1.000  C
  C910     1.0000 0.96052  0.37839  0.84139  Biso   1.000  C
  H576     1.0000 0.92959  0.37989  0.87278  Biso   1.000  H
  H577     1.0000 0.93890  0.41070  0.86218  Biso   1.000  H
  H578     1.0000 0.97749  0.37890  0.80449  Biso   1.000  H
  H579     1.0000 0.97040  0.40919  0.81680  Biso   1.000  H
  H580     1.0000 0.59669  0.34970  0.14338  Biso   1.000  H
  H581     1.0000 0.56929  0.33309  0.13248  Biso   1.000  H
  C911     1.0000 0.70611  0.52738  0.89796  Biso   1.000  C
  C912     1.0000 0.68734  0.62224  0.89335  Biso   1.000  C
  H582     1.0000 0.71690  0.58839  0.88869  Biso   1.000  H
  H583     1.0000 0.71170  0.59620  0.92108  Biso   1.000  H
  H584     1.0000 0.65030  0.64340  0.90329  Biso   1.000  H
  H585     1.0000 0.66689  0.63248  0.93069  Biso   1.000  H
  H586     1.0000 0.73230  0.29311  0.50870  Biso   1.000  H
  H587     1.0000 0.71390  0.31039  0.53129  Biso   1.000  H
  C913     1.0000 0.89216  0.21758  0.85833  Biso   1.000  C
  H588     1.0000 0.95369  0.23410  0.86449  Biso   1.000  H
  H589     1.0000 0.94550  0.26539  0.85489  Biso   1.000  H
  C914     1.0000 0.97956  0.24874  0.83117  Biso   1.000  C
  H590     1.0000 0.99128  0.26770  0.79309  Biso   1.000  H
  H591     1.0000 0.96869  0.28610  0.81039  Biso   1.000  H
  C915     1.0000 0.68595  0.03749  0.88998  Biso   1.000  C
  H592     1.0000 0.64759  0.02219  0.88290  Biso   1.000  H
  H593     1.0000 0.65969  0.04130  0.85759  Biso   1.000  H
  C916     1.0000 0.71734  0.11846  0.92786  Biso   1.000  C
  H594     1.0000 0.71529  0.06349  0.87490  Biso   1.000  H
  H595     1.0000 0.72149  0.05241  0.90649  Biso   1.000  H
  H596     1.0000 0.60420  0.29920  0.13809  Biso   1.000  H
  H597     1.0000 0.62690  0.31799  0.12129  Biso   1.000  H
  C917     1.0000 0.83910  0.40249  0.87439  Biso   1.000  C
  H598     1.0000 0.86559  0.37359  0.85389  Biso   1.000  H
  H599     1.0000 0.97779  0.38290  0.85239  Biso   1.000  H
  H600     1.0000 0.95870  0.35759  0.84029  Biso   1.000  H
  C918     1.0000 0.72301  0.49972  0.90452  Biso   1.000  C
  H601     1.0000 0.70129  0.53080  0.87879  Biso   1.000  H
  H602     1.0000 0.70080  0.63809  0.89580  Biso   1.000  H
  H603     1.0000 0.68199  0.62129  0.87310  Biso   1.000  H
  C919     1.0000 0.86457  0.21375  0.87790  Biso   1.000  C
  H604     1.0000 0.90120  0.20050  0.85290  Biso   1.000  H
  H605     1.0000 0.99410  0.25790  0.84319  Biso   1.000  H
  H606     1.0000 0.98640  0.22970  0.82569  Biso   1.000  H
  H607     1.0000 0.69549  0.02249  0.87890  Biso   1.000  H
  H608     1.0000 0.68320  0.02960  0.90919  Biso   1.000  H
  C920     1.0000 0.73859  0.14495  0.92830  Biso   1.000  C
  H609     1.0000 0.71089  0.11040  0.94510  Biso   1.000  H
  C921     1.0000 0.82061  0.38294  0.88207  Biso   1.000  C
  C922     1.0000 0.83595  0.42862  0.88097  Biso   1.000  C
  C923     1.0000 0.73338  0.48204  0.88296  Biso   1.000  C
  C924     1.0000 0.72953  0.49276  0.93196  Biso   1.000  C
  C925     1.0000 0.85535  0.18717  0.88516  Biso   1.000  C
  C926     1.0000 0.85402  0.23833  0.88565  Biso   1.000  C
  C927     1.0000 0.75014  0.15195  0.95527  Biso   1.000  C
  C928     1.0000 0.74747  0.15961  0.90488  Biso   1.000  C
  C929     1.0000 0.79730  0.39185  0.89921  Biso   1.000  C
  H610     1.0000 0.82268  0.36379  0.87640  Biso   1.000  H
  H611     1.0000 0.84960  0.44180  0.87429  Biso   1.000  H
  C930     1.0000 0.81312  0.43905  0.89771  Biso   1.000  C
  C931     1.0000 0.74745  0.45800  0.88907  Biso   1.000  C
  H612     1.0000 0.73040  0.48709  0.86369  Biso   1.000  H
  H613     1.0000 0.72270  0.50440  0.94690  Biso   1.000  H
  C932     1.0000 0.74567  0.46947  0.93837  Biso   1.000  C
  C933     1.0000 0.83041  0.18516  0.90458  Biso   1.000  C
  H614     1.0000 0.86438  0.17069  0.87809  Biso   1.000  H
  H615     1.0000 0.86210  0.25600  0.88019  Biso   1.000  H
  C934     1.0000 0.82935  0.23605  0.90297  Biso   1.000  C
  C935     1.0000 0.76865  0.17490  0.95411  Biso   1.000  C
  H616     1.0000 0.74569  0.14209  0.97220  Biso   1.000  H
  H617     1.0000 0.74030  0.15489  0.88668  Biso   1.000  H
  C936     1.0000 0.76550  0.17975  0.90769  Biso   1.000  C
  C937     1.0000 0.79402  0.41975  0.90604  Biso   1.000  C
  H618     1.0000 0.78399  0.37831  0.90589  Biso   1.000  H
  H619     1.0000 0.81149  0.45849  0.90270  Biso   1.000  H
  C938     1.0000 0.75481  0.45159  0.91823  Biso   1.000  C
  H620     1.0000 0.75249  0.44529  0.87439  Biso   1.000  H
  H621     1.0000 0.75050  0.46590  0.95750  Biso   1.000  H
  C939     1.0000 0.81892  0.21324  0.91326  Biso   1.000  C
  H622     1.0000 0.82268  0.16769  0.91080  Biso   1.000  H
  H623     1.0000 0.81970  0.25310  0.90729  Biso   1.000  H
  C940     1.0000 0.77559  0.18728  0.93088  Biso   1.000  C
  H624     1.0000 0.77650  0.18170  0.97129  Biso   1.000  H
  H625     1.0000 0.77148  0.18950  0.89119  Biso   1.000  H
  N125     1.0000 0.76935  0.42711  0.92358  Biso   1.000  N
  N126     1.0000 0.79683  0.21110  0.93295  Biso   1.000  N
  C941     1.0000 0.76283  0.41063  0.94836  Biso   1.000  C
  C942     1.0000 0.79501  0.22856  0.95686  Biso   1.000  C
  C943     1.0000 0.73675  0.40587  0.95570  Biso   1.000  C
  C944     1.0000 0.78348  0.39824  0.96308  Biso   1.000  C
  C945     1.0000 0.81974  0.23981  0.96765  Biso   1.000  C
  C946     1.0000 0.76888  0.23776  0.96704  Biso   1.000  C
  H626     1.0000 0.72208  0.41499  0.94539  Biso   1.000  H
  C947     1.0000 0.72904  0.38766  0.97834  Biso   1.000  C
  C948     1.0000 0.77713  0.38175  0.98701  Biso   1.000  C
  H627     1.0000 0.80259  0.40061  0.95739  Biso   1.000  H
  H628     1.0000 0.83768  0.23630  0.95919  Biso   1.000  H
  C949     1.0000 0.81646  0.25765  0.99308  Biso   1.000  C
  C950     1.0000 0.76812  0.25577  0.98923  Biso   1.000  C
  H629     1.0000 0.75179  0.23150  0.95849  Biso   1.000  H
  H630     1.0000 0.70990  0.38271  0.98170  Biso   1.000  H
  C951     1.0000 0.75077  0.37733  0.99551  Biso   1.000  C
  H631     1.0000 0.79220  0.37350  0.99740  Biso   1.000  H
  H632     1.0000 0.83280  0.26380  0.00309  Biso   1.000  H
  C952     1.0000 0.79008  0.26546  0.00237  Biso   1.000  C
  H633     1.0000 0.75010  0.26179  0.99568  Biso   1.000  H
  C953     1.0000 0.74390  0.35857  0.01993  Biso   1.000  C
  C954     1.0000 0.78983  0.28373  0.02784  Biso   1.000  C
  N127     1.0000 0.76247  0.35042  0.03734  Biso   1.000  N
  H634     1.0000 0.72490  0.35249  0.02249  Biso   1.000  H
  N128     1.0000 0.76696  0.29046  0.03954  Biso   1.000  N
  H635     1.0000 0.80720  0.29050  0.03540  Biso   1.000  H
  C955     1.0000 0.75071  0.33373  0.06114  Biso   1.000  C
  C956     1.0000 0.76730  0.30908  0.06459  Biso   1.000  C
  H636     1.0000 0.73059  0.32850  0.05708  Biso   1.000  H
  C957     1.0000 0.75227  0.35364  0.08926  Biso   1.000  C
  H637     1.0000 0.78729  0.31469  0.06878  Biso   1.000  H
  C958     1.0000 0.75536  0.29031  0.09064  Biso   1.000  C
  H638     1.0000 0.77170  0.36119  0.09169  Biso   1.000  H
  H639     1.0000 0.73899  0.36980  0.08748  Biso   1.000  H
  C959     1.0000 0.74421  0.33527  0.11454  Biso   1.000  C
  C960     1.0000 0.75775  0.30842  0.11761  Biso   1.000  C
  H640     1.0000 0.73539  0.28500  0.08719  Biso   1.000  H
  H641     1.0000 0.76660  0.27280  0.09269  Biso   1.000  H
  H642     1.0000 0.74800  0.34630  0.13189  Biso   1.000  H
  H643     1.0000 0.72359  0.33189  0.11370  Biso   1.000  H
  H644     1.0000 0.74900  0.29810  0.13358  Biso   1.000  H
  H645     1.0000 0.77800  0.31141  0.12218  Biso   1.000  H
  C961     1.0000 0.56578  0.60870  0.35577  Biso   1.000  C
  C962     1.0000 0.53946  0.62161  0.34139  Biso   1.000  C
  C963     1.0000 0.59165  0.60735  0.33701  Biso   1.000  C
  H646     1.0000 0.57039  0.62009  0.37280  Biso   1.000  H
  H647     1.0000 0.56110  0.58930  0.36221  Biso   1.000  H
  C964     1.0000 0.53749  0.60999  0.31405  Biso   1.000  C
  H648     1.0000 0.52219  0.61710  0.35239  Biso   1.000  H
  H649     1.0000 0.54130  0.64239  0.34029  Biso   1.000  H
  C965     1.0000 0.58418  0.59478  0.30832  Biso   1.000  C
  N129     1.0000 0.61499  0.59227  0.35292  Biso   1.000  N
  H650     1.0000 0.59810  0.62720  0.33371  Biso   1.000  H
  C966     1.0000 0.55884  0.60661  0.29349  Biso   1.000  C
  H651     1.0000 0.52249  0.62110  0.30449  Biso   1.000  H
  H652     1.0000 0.52960  0.59081  0.31680  Biso   1.000  H
  N130     1.0000 0.60837  0.59538  0.29067  Biso   1.000  N
  H653     1.0000 0.57989  0.57439  0.31179  Biso   1.000  H
  C967     1.0000 0.63517  0.60701  0.35922  Biso   1.000  C
  H654     1.0000 0.56349  0.62510  0.28471  Biso   1.000  H
  H655     1.0000 0.55241  0.59349  0.27849  Biso   1.000  H
  C968     1.0000 0.61844  0.57212  0.28266  Biso   1.000  C
  C969     1.0000 0.66088  0.59751  0.37439  Biso   1.000  C
  H656     1.0000 0.63439  0.62639  0.35389  Biso   1.000  H
  C970     1.0000 0.64495  0.57168  0.26139  Biso   1.000  C
  H657     1.0000 0.61040  0.55490  0.28909  Biso   1.000  H
  C971     1.0000 0.67939  0.61706  0.38207  Biso   1.000  C
  C972     1.0000 0.66405  0.57138  0.38097  Biso   1.000  C
  C973     1.0000 0.65195  0.54473  0.24984  Biso   1.000  C
  C974     1.0000 0.65959  0.59512  0.25253  Biso   1.000  C
  C975     1.0000 0.70268  0.60815  0.39921  Biso   1.000  C
  H658     1.0000 0.67729  0.63619  0.37640  Biso   1.000  H
  H659     1.0000 0.65040  0.55820  0.37431  Biso   1.000  H
  C976     1.0000 0.68688  0.56095  0.39771  Biso   1.000  C
  C977     1.0000 0.67490  0.54589  0.23133  Biso   1.000  C
  H660     1.0000 0.64209  0.52780  0.25431  Biso   1.000  H
  H661     1.0000 0.65489  0.61329  0.25970  Biso   1.000  H
  C978     1.0000 0.67975  0.59229  0.23448  Biso   1.000  C
  C979     1.0000 0.70596  0.58023  0.40606  Biso   1.000  C
  H662     1.0000 0.71599  0.62169  0.40589  Biso   1.000  H
  H663     1.0000 0.68849  0.54149  0.40270  Biso   1.000  H
  C980     1.0000 0.68728  0.56910  0.22439  Biso   1.000  C
  H664     1.0000 0.68170  0.52869  0.22350  Biso   1.000  H
  H665     1.0000 0.68950  0.60879  0.22849  Biso   1.000  H
  N131     1.0000 0.73065  0.57289  0.42358  Biso   1.000  N
  N132     1.0000 0.71110  0.56702  0.20317  Biso   1.000  N
  C981     1.0000 0.73715  0.58937  0.44836  Biso   1.000  C
  C982     1.0000 0.74519  0.54839  0.41823  Biso   1.000  C
  C983     1.0000 0.71324  0.58672  0.18106  Biso   1.000  C
  C984     1.0000 0.72854  0.54312  0.20499  Biso   1.000  C
  C985     1.0000 0.76323  0.59413  0.45570  Biso   1.000  C
  C986     1.0000 0.71650  0.60176  0.46308  Biso   1.000  C
  C987     1.0000 0.75253  0.54200  0.38910  Biso   1.000  C
  C988     1.0000 0.75433  0.53053  0.43837  Biso   1.000  C
  C989     1.0000 0.68516  0.59540  0.16957  Biso   1.000  C
  C990     1.0000 0.73603  0.59700  0.17063  Biso   1.000  C
  C991     1.0000 0.73981  0.53235  0.18024  Biso   1.000  C
  C992     1.0000 0.73776  0.53296  0.23112  Biso   1.000  C
  H666     1.0000 0.77790  0.58499  0.44539  Biso   1.000  H
  C993     1.0000 0.77093  0.61234  0.47834  Biso   1.000  C
  C994     1.0000 0.72287  0.61825  0.48701  Biso   1.000  C
  H667     1.0000 0.69739  0.59939  0.45739  Biso   1.000  H
  H668     1.0000 0.74749  0.55469  0.37439  Biso   1.000  H
  C995     1.0000 0.76660  0.51796  0.38296  Biso   1.000  C
  C996     1.0000 0.77045  0.50724  0.43196  Biso   1.000  C
  H669     1.0000 0.74950  0.53410  0.45750  Biso   1.000  H
  H670     1.0000 0.66769  0.58920  0.17729  Biso   1.000  H
  C997     1.0000 0.68717  0.61482  0.14465  Biso   1.000  C
  C998     1.0000 0.73833  0.61433  0.14596  Biso   1.000  C
  H671     1.0000 0.75310  0.59269  0.18030  Biso   1.000  H
  H672     1.0000 0.73630  0.54079  0.16229  Biso   1.000  H
  C999     1.0000 0.75763  0.50690  0.18354  Biso   1.000  C
  C1000    1.0000 0.75574  0.51075  0.23188  Biso   1.000  C
  H673     1.0000 0.73150  0.54149  0.24819  Biso   1.000  H
  H674     1.0000 0.79010  0.61729  0.48170  Biso   1.000  H
  C1001    1.0000 0.74923  0.62265  0.49554  Biso   1.000  C
  H675     1.0000 0.70780  0.62650  0.49740  Biso   1.000  H
  H676     1.0000 0.76960  0.51291  0.36369  Biso   1.000  H
  C1002    1.0000 0.77699  0.50028  0.40452  Biso   1.000  C
  H677     1.0000 0.77730  0.49560  0.44690  Biso   1.000  H
  H678     1.0000 0.67069  0.62188  0.13559  Biso   1.000  H
  C1003    1.0000 0.71375  0.62208  0.13543  Biso   1.000  C
  H679     1.0000 0.75600  0.61979  0.13790  Biso   1.000  H
  H680     1.0000 0.76378  0.49689  0.16720  Biso   1.000  H
  C1004    1.0000 0.76543  0.49763  0.20992  Biso   1.000  C
  H681     1.0000 0.76179  0.50429  0.24990  Biso   1.000  H
  C1005    1.0000 0.75608  0.64143  0.51993  Biso   1.000  C
  C1006    1.0000 0.79387  0.47262  0.39796  Biso   1.000  C
  C1007    1.0000 0.71758  0.64165  0.10784  Biso   1.000  C
  C1008    1.0000 0.78373  0.47214  0.21017  Biso   1.000  C
  N133     1.0000 0.73753  0.64958  0.53734  Biso   1.000  N
  H682     1.0000 0.77510  0.64748  0.52249  Biso   1.000  H
  N134     1.0000 0.80153  0.45477  0.41546  Biso   1.000  N
  H683     1.0000 0.79869  0.46920  0.37879  Biso   1.000  H
  N135     1.0000 0.73744  0.64988  0.09764  Biso   1.000  N
  H684     1.0000 0.70050  0.64710  0.09880  Biso   1.000  H
  N136     1.0000 0.79046  0.46044  0.23304  Biso   1.000  N
  H685     1.0000 0.79048  0.46460  0.19280  Biso   1.000  H
  C1009    1.0000 0.74927  0.66625  0.56114  Biso   1.000  C
  C1010    1.0000 0.81532  0.43042  0.40562  Biso   1.000  C
  C1011    1.0000 0.73545  0.66737  0.07320  Biso   1.000  C
  C1012    1.0000 0.80908  0.43539  0.23270  Biso   1.000  C
  C1013    1.0000 0.73270  0.69090  0.56461  Biso   1.000  C
  H686     1.0000 0.76939  0.67150  0.55710  Biso   1.000  H
  C1014    1.0000 0.74770  0.64634  0.58926  Biso   1.000  C
  H687     1.0000 0.82070  0.43520  0.38569  Biso   1.000  H
  C1015    1.0000 0.84228  0.42680  0.41990  Biso   1.000  C
  C1016    1.0000 0.79789  0.40699  0.40278  Biso   1.000  C
  C1017    1.0000 0.74925  0.69337  0.07735  Biso   1.000  C
  H688     1.0000 0.71500  0.67129  0.06961  Biso   1.000  H
  C1018    1.0000 0.74631  0.65220  0.04946  Biso   1.000  C
  H689     1.0000 0.81469  0.43120  0.21269  Biso   1.000  H
  C1019    1.0000 0.83373  0.43886  0.24927  Biso   1.000  C
  C1020    1.0000 0.79029  0.40936  0.24464  Biso   1.000  C
  N137     1.0000 0.73304  0.70952  0.53954  Biso   1.000  N
  H690     1.0000 0.71269  0.68529  0.56880  Biso   1.000  H
  C1021    1.0000 0.74464  0.70969  0.59064  Biso   1.000  C
  H691     1.0000 0.72830  0.63879  0.59169  Biso   1.000  H
  H692     1.0000 0.76099  0.63020  0.58750  Biso   1.000  H
  C1022    1.0000 0.75577  0.66473  0.61454  Biso   1.000  C
  N138     1.0000 0.86102  0.45007  0.42015  Biso   1.000  N
  H693     1.0000 0.83709  0.42409  0.44019  Biso   1.000  H
  C1023    1.0000 0.85723  0.39904  0.41182  Biso   1.000  C
  C1024    1.0000 0.81263  0.37773  0.39335  Biso   1.000  C
  H694     1.0000 0.78310  0.41161  0.38869  Biso   1.000  H
  H695     1.0000 0.78828  0.40380  0.42111  Biso   1.000  H
  N139     1.0000 0.73689  0.71186  0.10071  Biso   1.000  N
  H696     1.0000 0.76890  0.68849  0.08359  Biso   1.000  H
  C1025    1.0000 0.75291  0.71330  0.05114  Biso   1.000  C
  H697     1.0000 0.73410  0.63549  0.04629  Biso   1.000  H
  H698     1.0000 0.76539  0.64509  0.05450  Biso   1.000  H
  C1026    1.0000 0.74874  0.66881  0.02044  Biso   1.000  C
  N140     1.0000 0.85042  0.46264  0.23753  Biso   1.000  N
  H699     1.0000 0.82850  0.44290  0.26939  Biso   1.000  H
  C1027    1.0000 0.85364  0.41072  0.24770  Biso   1.000  C
  C1028    1.0000 0.80842  0.38237  0.24225  Biso   1.000  C
  H700     1.0000 0.78498  0.41279  0.26459  Biso   1.000  H
  H701     1.0000 0.77280  0.40729  0.23340  Biso   1.000  H
  C1029    1.0000 0.71017  0.71624  0.52786  Biso   1.000  C
  C1030    1.0000 0.74225  0.69155  0.61763  Biso   1.000  C
  H702     1.0000 0.76459  0.71500  0.58719  Biso   1.000  H
  H703     1.0000 0.73340  0.72720  0.59269  Biso   1.000  H
  H704     1.0000 0.75200  0.65370  0.63189  Biso   1.000  H
  H705     1.0000 0.77639  0.66809  0.61370  Biso   1.000  H
  C1031    1.0000 0.86993  0.45955  0.44412  Biso   1.000  C
  H706     1.0000 0.86580  0.40149  0.39290  Biso   1.000  H
  H707     1.0000 0.87289  0.39580  0.42540  Biso   1.000  H
  C1032    1.0000 0.83876  0.37257  0.41120  Biso   1.000  C
  H708     1.0000 0.79920  0.36189  0.39580  Biso   1.000  H
  H709     1.0000 0.81799  0.37869  0.37310  Biso   1.000  H
  C1033    1.0000 0.75202  0.71935  0.12133  Biso   1.000  C
  C1034    1.0000 0.76664  0.69524  0.02609  Biso   1.000  C
  H710     1.0000 0.76539  0.72940  0.05600  Biso   1.000  H
  H711     1.0000 0.73429  0.72090  0.04519  Biso   1.000  H
  H712     1.0000 0.75790  0.65679  0.00590  Biso   1.000  H
  H713     1.0000 0.72970  0.67429  0.01360  Biso   1.000  H
  C1035    1.0000 0.85857  0.48007  0.25608  Biso   1.000  C
  H714     1.0000 0.86119  0.40831  0.22830  Biso   1.000  H
  H715     1.0000 0.86980  0.41250  0.26099  Biso   1.000  H
  C1036    1.0000 0.83527  0.38546  0.25579  Biso   1.000  C
  H716     1.0000 0.79810  0.36639  0.25100  Biso   1.000  H
  H717     1.0000 0.81139  0.37780  0.22200  Biso   1.000  H
  C1037    1.0000 0.70990  0.73454  0.50237  Biso   1.000  C
  H718     1.0000 0.69280  0.70950  0.53540  Biso   1.000  H
  H719     1.0000 0.75098  0.70190  0.63358  Biso   1.000  H
  H720     1.0000 0.72200  0.68859  0.62220  Biso   1.000  H
  C1038    1.0000 0.88823  0.48413  0.44535  Biso   1.000  C
  H721     1.0000 0.86449  0.45030  0.46109  Biso   1.000  H
  H722     1.0000 0.84970  0.35660  0.40329  Biso   1.000  H
  H723     1.0000 0.83309  0.36749  0.43069  Biso   1.000  H
  C1039    1.0000 0.74165  0.73522  0.14611  Biso   1.000  C
  H724     1.0000 0.77148  0.71440  0.12089  Biso   1.000  H
  H725     1.0000 0.76770  0.70689  0.00870  Biso   1.000  H
  H726     1.0000 0.78608  0.68959  0.03129  Biso   1.000  H
  C1040    1.0000 0.87733  0.50446  0.24923  Biso   1.000  C
  H727     1.0000 0.85249  0.47749  0.27510  Biso   1.000  H
  H728     1.0000 0.84630  0.36809  0.25200  Biso   1.000  H
  H729     1.0000 0.83189  0.38630  0.27639  Biso   1.000  H
  C1041    1.0000 0.68351  0.74235  0.49310  Biso   1.000  C
  C1042    1.0000 0.73188  0.74423  0.48925  Biso   1.000  C
  C1043    1.0000 0.90008  0.49924  0.42098  Biso   1.000  C
  C1044    1.0000 0.89923  0.49448  0.47038  Biso   1.000  C
  C1045    1.0000 0.71500  0.74189  0.15087  Biso   1.000  C
  C1046    1.0000 0.75957  0.74498  0.16581  Biso   1.000  C
  C1047    1.0000 0.88764  0.52166  0.27096  Biso   1.000  C
  C1048    1.0000 0.88173  0.51299  0.22287  Biso   1.000  C
  C1049    1.0000 0.68024  0.76019  0.46765  Biso   1.000  C
  H730     1.0000 0.66720  0.73620  0.50309  Biso   1.000  H
  H731     1.0000 0.74988  0.73818  0.49571  Biso   1.000  H
  C1050    1.0000 0.73110  0.76224  0.46704  Biso   1.000  C
  C1051    1.0000 0.91943  0.51970  0.42208  Biso   1.000  C
  H732     1.0000 0.89328  0.49399  0.40281  Biso   1.000  H
  H733     1.0000 0.89240  0.48621  0.48739  Biso   1.000  H
  C1052    1.0000 0.91861  0.51496  0.47309  Biso   1.000  C
  C1053    1.0000 0.70514  0.75737  0.17264  Biso   1.000  C
  C1054    1.0000 0.75136  0.76268  0.18749  Biso   1.000  C
  C1055    1.0000 0.90585  0.54430  0.26323  Biso   1.000  C
  H734     1.0000 0.88269  0.51830  0.29010  Biso   1.000  H
  H735     1.0000 0.87350  0.50260  0.20780  Biso   1.000  H
  C1056    1.0000 0.89821  0.53692  0.21650  Biso   1.000  C
  C1057    1.0000 0.70499  0.77144  0.45686  Biso   1.000  C
  H736     1.0000 0.66229  0.76370  0.45919  Biso   1.000  H
  H737     1.0000 0.74819  0.76850  0.45849  Biso   1.000  H
  C1058    1.0000 0.92885  0.52873  0.44814  Biso   1.000  C
  H738     1.0000 0.92659  0.52791  0.40520  Biso   1.000  H
  H739     1.0000 0.92540  0.52029  0.49120  Biso   1.000  H
  C1059    1.0000 0.72460  0.76852  0.19297  Biso   1.000  C
  H740     1.0000 0.76560  0.77100  0.19900  Biso   1.000  H
  C1060    1.0000 0.91061  0.55162  0.23717  Biso   1.000  C
  H741     1.0000 0.91499  0.55461  0.27790  Biso   1.000  H
  H742     1.0000 0.90058  0.54259  0.19739  Biso   1.000  H
  N141     1.0000 0.70317  0.78888  0.43295  Biso   1.000  N
  N142     1.0000 0.94952  0.55048  0.44952  Biso   1.000  N
  N143     1.0000 0.71472  0.78528  0.21472  Biso   1.000  N
  N144     1.0000 0.92709  0.57640  0.23065  Biso   1.000  N
  C1061    1.0000 0.68106  0.78674  0.41326  Biso   1.000  C
  C1062    1.0000 0.72439  0.81272  0.43088  Biso   1.000  C
  C1063    1.0000 0.94812  0.57115  0.47127  Biso   1.000  C
  C1064    1.0000 0.97127  0.55186  0.42885  Biso   1.000  C
  C1065    1.0000 0.69297  0.77538  0.23148  Biso   1.000  C
  C1066    1.0000 0.73146  0.80701  0.22460  Biso   1.000  C
  C1067    1.0000 0.91975  0.59394  0.20596  Biso   1.000  C
  C1068    1.0000 0.95159  0.58175  0.24519  Biso   1.000  C
  C1069    1.0000 0.66957  0.81481  0.40460  Biso   1.000  C
  C1070    1.0000 0.67063  0.76395  0.40300  Biso   1.000  C
  C1071    1.0000 0.73133  0.82510  0.45411  Biso   1.000  C
  C1072    1.0000 0.73448  0.82023  0.40771  Biso   1.000  C
  C1073    1.0000 0.92208  0.58057  0.48030  Biso   1.000  C
  C1074    1.0000 0.97309  0.58139  0.48502  Biso   1.000  C
  C1075    1.0000 0.98028  0.57790  0.41943  Biso   1.000  C
  C1076    1.0000 0.98502  0.52689  0.41861  Biso   1.000  C
  C1077    1.0000 0.67264  0.79484  0.24261  Biso   1.000  C
  C1078    1.0000 0.68749  0.74861  0.23732  Biso   1.000  C
  C1079    1.0000 0.74261  0.82736  0.20516  Biso   1.000  C
  C1080    1.0000 0.73730  0.81251  0.25136  Biso   1.000  C
  C1081    1.0000 0.89182  0.60079  0.20268  Biso   1.000  C
  C1082    1.0000 0.93905  0.60227  0.18688  Biso   1.000  C
  C1083    1.0000 0.95798  0.61090  0.25253  Biso   1.000  C
  C1084    1.0000 0.96947  0.56163  0.25433  Biso   1.000  C
  H743     1.0000 0.67729  0.83229  0.41080  Biso   1.000  H
  C1085    1.0000 0.64465  0.81283  0.38516  Biso   1.000  C
  C1086    1.0000 0.64596  0.76165  0.38565  Biso   1.000  C
  H744     1.0000 0.68030  0.74690  0.40729  Biso   1.000  H
  H745     1.0000 0.72350  0.81828  0.47129  Biso   1.000  H
  C1087    1.0000 0.74984  0.84803  0.45527  Biso   1.000  C
  C1088    1.0000 0.75253  0.84039  0.40488  Biso   1.000  C
  H746     1.0000 0.72849  0.81050  0.39119  Biso   1.000  H
  H747     1.0000 0.90520  0.57339  0.47209  Biso   1.000  H
  C1089    1.0000 0.92098  0.59992  0.50076  Biso   1.000  C
  C1090    1.0000 0.97038  0.60075  0.50550  Biso   1.000  C
  H748     1.0000 0.99120  0.57460  0.47969  Biso   1.000  H
  H749     1.0000 0.97209  0.59480  0.42661  Biso   1.000  H
  C1091    1.0000 0.00076  0.57900  0.40008  Biso   1.000  C
  H750     1.0000 0.97969  0.50880  0.42540  Biso   1.000  H
  C1092    1.0000 0.00550  0.52962  0.39923  Biso   1.000  C
  C1093    1.0000 0.65087  0.78498  0.25811  Biso   1.000  C
  C1094    1.0000 0.66579  0.74043  0.25500  Biso   1.000  C
  H751     1.0000 0.69900  0.73440  0.22900  Biso   1.000  H
  C1095    1.0000 0.75811  0.84913  0.21500  Biso   1.000  C
  C1096    1.0000 0.75500  0.83419  0.25957  Biso   1.000  C
  H752     1.0000 0.72900  0.80100  0.26560  Biso   1.000  H
  H753     1.0000 0.87828  0.59408  0.21599  Biso   1.000  H
  C1097    1.0000 0.88294  0.61791  0.17939  Biso   1.000  C
  C1098    1.0000 0.92860  0.61903  0.16405  Biso   1.000  C
  H754     1.0000 0.95849  0.59730  0.18851  Biso   1.000  H
  H755     1.0000 0.94529  0.62559  0.24749  Biso   1.000  H
  C1099    1.0000 0.98204  0.61704  0.26660  Biso   1.000  C
  C1100    1.0000 0.99274  0.56804  0.27045  Biso   1.000  C
  H756     1.0000 0.96590  0.54250  0.24950  Biso   1.000  H
  H757     1.0000 0.63559  0.82929  0.37809  Biso   1.000  H
  C1101    1.0000 0.63543  0.78625  0.37792  Biso   1.000  C
  H758     1.0000 0.63790  0.74400  0.38019  Biso   1.000  H
  H759     1.0000 0.75428  0.85789  0.47220  Biso   1.000  H
  C1102    1.0000 0.76139  0.85503  0.42830  Biso   1.000  C
  H760     1.0000 0.75970  0.84509  0.38671  Biso   1.000  H
  H761     1.0000 0.90278  0.60669  0.50599  Biso   1.000  H
  C1103    1.0000 0.94535  0.61175  0.51585  Biso   1.000  C
  H762     1.0000 0.98739  0.60760  0.51379  Biso   1.000  H
  H763     1.0000 0.00599  0.59719  0.39331  Biso   1.000  H
  C1104    1.0000 0.01585  0.55463  0.38823  Biso   1.000  C
  H764     1.0000 0.01379  0.51259  0.39240  Biso   1.000  H
  C1105    1.0000 0.64609  0.75833  0.26478  Biso   1.000  C
  C1106    1.0000 0.76478  0.85389  0.24165  Biso   1.000  C
  H765     1.0000 0.86379  0.62360  0.17729  Biso   1.000  H
  C1107    1.0000 0.90249  0.62559  0.16090  Biso   1.000  C
  H766     1.0000 0.94180  0.62569  0.15040  Biso   1.000  H
  H767     1.0000 0.98709  0.63629  0.26960  Biso   1.000  H
  C1108    1.0000 0.99970  0.59548  0.27699  Biso   1.000  C
  H768     1.0000 0.00440  0.55310  0.27730  Biso   1.000  H
  C1109    1.0000 0.60782  0.78242  0.35833  Biso   1.000  C
  C1110    1.0000 0.78263  0.88154  0.42788  Biso   1.000  C
  C1111    1.0000 0.94410  0.63007  0.54045  Biso   1.000  C
  C1112    1.0000 0.04043  0.55588  0.36993  Biso   1.000  C
  C1113    1.0000 0.62133  0.74796  0.28065  Biso   1.000  C
  C1114    1.0000 0.78065  0.87864  0.25202  Biso   1.000  C
  C1115    1.0000 0.89297  0.64076  0.13517  Biso   1.000  C
  C1116    1.0000 0.02738  0.60202  0.29387  Biso   1.000  C
  N145     1.0000 0.59762  0.76256  0.35010  Biso   1.000  N
  H769     1.0000 0.59880  0.79950  0.35290  Biso   1.000  H
  N146     1.0000 0.79065  0.89163  0.40462  Biso   1.000  N
  H770     1.0000 0.78909  0.88958  0.44510  Biso   1.000  H
  N147     1.0000 0.92015  0.63898  0.54991  Biso   1.000  N
  H771     1.0000 0.96109  0.63549  0.54970  Biso   1.000  H
  N148     1.0000 0.04991  0.57982  0.36102  Biso   1.000  N
  H772     1.0000 0.04970  0.53889  0.36449  Biso   1.000  H
  N149     1.0000 0.60069  0.76309  0.28811  Biso   1.000  N
  H773     1.0000 0.62089  0.72849  0.28560  Biso   1.000  H
  N150     1.0000 0.78811  0.89929  0.23691  Biso   1.000  N
  H774     1.0000 0.78560  0.87909  0.27151  Biso   1.000  H
  N151     1.0000 0.90771  0.64706  0.11499  Biso   1.000  N
  H775     1.0000 0.87359  0.64609  0.13439  Biso   1.000  H
  N152     1.0000 0.04521  0.58454  0.30153  Biso   1.000  N
  H776     1.0000 0.03078  0.62119  0.29869  Biso   1.000  H
  C1117    1.0000 0.57320  0.76452  0.33261  Biso   1.000  C
  C1118    1.0000 0.80832  0.91582  0.40520  Biso   1.000  C
  C1119    1.0000 0.91990  0.65772  0.57320  Biso   1.000  C
  C1120    1.0000 0.07318  0.58008  0.34228  Biso   1.000  C
  C1121    1.0000 0.57735  0.75073  0.30661  Biso   1.000  C
  C1122    1.0000 0.80661  0.92265  0.24925  Biso   1.000  C
  C1123    1.0000 0.89263  0.66299  0.09165  Biso   1.000  C
  C1124    1.0000 0.06956  0.59436  0.31532  Biso   1.000  C
  H777     1.0000 0.56958  0.78498  0.32869  Biso   1.000  H
  C1125    1.0000 0.54946  0.75369  0.34780  Biso   1.000  C
  H778     1.0000 0.81179  0.92009  0.42559  Biso   1.000  H
  C1126    1.0000 0.79349  0.94114  0.39337  Biso   1.000  C
  C1127    1.0000 0.83699  0.90833  0.39263  Biso   1.000  C
  C1128    1.0000 0.90562  0.68466  0.56958  Biso   1.000  C
  H779     1.0000 0.94019  0.66289  0.57589  Biso   1.000  H
  C1129    1.0000 0.91182  0.64275  0.60096  Biso   1.000  C
  H780     1.0000 0.07589  0.55979  0.33709  Biso   1.000  H
  C1130    1.0000 0.10096  0.58818  0.35725  Biso   1.000  C
  H781     1.0000 0.58359  0.73110  0.31149  Biso   1.000  H
  C1131    1.0000 0.55114  0.74707  0.28668  Biso   1.000  C
  H782     1.0000 0.81149  0.91639  0.26890  Biso   1.000  H
  C1132    1.0000 0.83261  0.92678  0.23545  Biso   1.000  C
  C1133    1.0000 0.78668  0.94884  0.25291  Biso   1.000  C
  H783     1.0000 0.87278  0.66629  0.09810  Biso   1.000  H
  C1134    1.0000 0.90520  0.69168  0.08418  Biso   1.000  C
  C1135    1.0000 0.89127  0.64421  0.06580  Biso   1.000  C
  H784     1.0000 0.06478  0.61429  0.32070  Biso   1.000  H
  C1136    1.0000 0.09301  0.59719  0.29789  Biso   1.000  C
  H785     1.0000 0.54629  0.76590  0.36449  Biso   1.000  H
  H786     1.0000 0.55450  0.73459  0.35491  Biso   1.000  H
  C1137    1.0000 0.52042  0.75124  0.33117  Biso   1.000  C
  H787     1.0000 0.78469  0.93649  0.37490  Biso   1.000  H
  H788     1.0000 0.77849  0.94759  0.40649  Biso   1.000  H
  C1138    1.0000 0.81405  0.96249  0.38998  Biso   1.000  C
  N153     1.0000 0.85292  0.88501  0.40771  Biso   1.000  N
  H789     1.0000 0.83369  0.90190  0.37280  Biso   1.000  H
  C1139    1.0000 0.85577  0.93420  0.39130  Biso   1.000  C
  N154     1.0000 0.91546  0.69847  0.54523  Biso   1.000  N
  H790     1.0000 0.88569  0.67930  0.56480  Biso   1.000  H
  C1140    1.0000 0.90278  0.70211  0.59301  Biso   1.000  C
  H791     1.0000 0.89288  0.63420  0.59849  Biso   1.000  H
  H792     1.0000 0.92540  0.62709  0.60420  Biso   1.000  H
  C1141    1.0000 0.91120  0.66122  0.62741  Biso   1.000  C
  H793     1.0000 0.09849  0.60710  0.36580  Biso   1.000  H
  H794     1.0000 0.10420  0.57460  0.37289  Biso   1.000  H
  C1142    1.0000 0.12741  0.58880  0.33876  Biso   1.000  C
  C1143    1.0000 0.52607  0.73334  0.30474  Biso   1.000  C
  H795     1.0000 0.55600  0.73459  0.27060  Biso   1.000  H
  H796     1.0000 0.54519  0.76569  0.27910  Biso   1.000  H
  N155     1.0000 0.85010  0.90236  0.23744  Biso   1.000  N
  H797     1.0000 0.82869  0.93039  0.21500  Biso   1.000  H
  C1144    1.0000 0.84778  0.95051  0.24631  Biso   1.000  C
  C1145    1.0000 0.80474  0.97391  0.26664  Biso   1.000  C
  H798     1.0000 0.77060  0.94400  0.26539  Biso   1.000  H
  H799     1.0000 0.77910  0.95479  0.23429  Biso   1.000  H
  N156     1.0000 0.90460  0.70933  0.10837  Biso   1.000  N
  H800     1.0000 0.92559  0.68819  0.07991  Biso   1.000  H
  C1146    1.0000 0.89337  0.70651  0.05884  Biso   1.000  C
  C1147    1.0000 0.87839  0.65861  0.03946  Biso   1.000  C
  H801     1.0000 0.87989  0.62720  0.07039  Biso   1.000  H
  H802     1.0000 0.91070  0.63779  0.06110  Biso   1.000  H
  C1148    1.0000 0.12224  0.60663  0.31266  Biso   1.000  C
  H803     1.0000 0.08839  0.61129  0.28310  Biso   1.000  H
  H804     1.0000 0.09620  0.57889  0.28830  Biso   1.000  H
  H805     1.0000 0.50590  0.74210  0.34321  Biso   1.000  H
  H806     1.0000 0.51360  0.77030  0.32569  Biso   1.000  H
  H807     1.0000 0.80449  0.97749  0.37890  Biso   1.000  H
  H808     1.0000 0.81680  0.97040  0.40919  Biso   1.000  H
  C1149    1.0000 0.84139  0.96052  0.37839  Biso   1.000  C
  C1150    1.0000 0.85922  0.86481  0.39297  Biso   1.000  C
  H809     1.0000 0.87278  0.92959  0.37989  Biso   1.000  H
  H810     1.0000 0.86218  0.93890  0.41070  Biso   1.000  H
  C1151    1.0000 0.89796  0.70611  0.52738  Biso   1.000  C
  C1152    1.0000 0.89335  0.68734  0.62224  Biso   1.000  C
  H811     1.0000 0.88869  0.71690  0.58839  Biso   1.000  H
  H812     1.0000 0.92108  0.71170  0.59620  Biso   1.000  H
  H813     1.0000 0.90329  0.65030  0.64340  Biso   1.000  H
  H814     1.0000 0.93069  0.66689  0.63248  Biso   1.000  H
  H815     1.0000 0.14338  0.59669  0.34970  Biso   1.000  H
  H816     1.0000 0.13248  0.56929  0.33309  Biso   1.000  H
  H817     1.0000 0.50870  0.73230  0.29311  Biso   1.000  H
  H818     1.0000 0.53129  0.71390  0.31039  Biso   1.000  H
  C1153    1.0000 0.85833  0.89216  0.21758  Biso   1.000  C
  H819     1.0000 0.86449  0.95369  0.23410  Biso   1.000  H
  H820     1.0000 0.85489  0.94550  0.26539  Biso   1.000  H
  C1154    1.0000 0.83117  0.97956  0.24874  Biso   1.000  C
  H821     1.0000 0.79309  0.99128  0.26770  Biso   1.000  H
  H822     1.0000 0.81039  0.96869  0.28610  Biso   1.000  H
  C1155    1.0000 0.92786  0.71734  0.11846  Biso   1.000  C
  H823     1.0000 0.87490  0.71529  0.06349  Biso   1.000  H
  H824     1.0000 0.90649  0.72149  0.05241  Biso   1.000  H
  C1156    1.0000 0.88998  0.68595  0.03749  Biso   1.000  C
  H825     1.0000 0.88290  0.64759  0.02219  Biso   1.000  H
  H826     1.0000 0.85759  0.65969  0.04130  Biso   1.000  H
  H827     1.0000 0.13809  0.60420  0.29920  Biso   1.000  H
  H828     1.0000 0.12129  0.62690  0.31799  Biso   1.000  H
  H829     1.0000 0.85239  0.97779  0.38290  Biso   1.000  H
  H830     1.0000 0.84029  0.95870  0.35759  Biso   1.000  H
  C1157    1.0000 0.87439  0.83910  0.40249  Biso   1.000  C
  H831     1.0000 0.85389  0.86559  0.37359  Biso   1.000  H
  C1158    1.0000 0.90452  0.72301  0.49972  Biso   1.000  C
  H832     1.0000 0.87879  0.70129  0.53080  Biso   1.000  H
  H833     1.0000 0.89580  0.70080  0.63809  Biso   1.000  H
  H834     1.0000 0.87310  0.68199  0.62129  Biso   1.000  H
  C1159    1.0000 0.87790  0.86457  0.21375  Biso   1.000  C
  H835     1.0000 0.85290  0.90120  0.20050  Biso   1.000  H
  H836     1.0000 0.84319  0.99410  0.25790  Biso   1.000  H
  H837     1.0000 0.82569  0.98640  0.22970  Biso   1.000  H
  C1160    1.0000 0.92830  0.73859  0.14495  Biso   1.000  C
  H838     1.0000 0.94510  0.71089  0.11040  Biso   1.000  H
  H839     1.0000 0.87890  0.69549  0.02249  Biso   1.000  H
  H840     1.0000 0.90919  0.68320  0.02960  Biso   1.000  H
  C1161    1.0000 0.88207  0.82061  0.38294  Biso   1.000  C
  C1162    1.0000 0.88097  0.83595  0.42862  Biso   1.000  C
  C1163    1.0000 0.88296  0.73338  0.48204  Biso   1.000  C
  C1164    1.0000 0.93196  0.72953  0.49276  Biso   1.000  C
  C1165    1.0000 0.88516  0.85535  0.18717  Biso   1.000  C
  C1166    1.0000 0.88565  0.85402  0.23833  Biso   1.000  C
  C1167    1.0000 0.95527  0.75014  0.15195  Biso   1.000  C
  C1168    1.0000 0.90488  0.74747  0.15961  Biso   1.000  C
  C1169    1.0000 0.89921  0.79730  0.39185  Biso   1.000  C
  H841     1.0000 0.87640  0.82268  0.36379  Biso   1.000  H
  H842     1.0000 0.87429  0.84960  0.44180  Biso   1.000  H
  C1170    1.0000 0.89771  0.81312  0.43905  Biso   1.000  C
  C1171    1.0000 0.88907  0.74745  0.45800  Biso   1.000  C
  H843     1.0000 0.86369  0.73040  0.48709  Biso   1.000  H
  H844     1.0000 0.94690  0.72270  0.50440  Biso   1.000  H
  C1172    1.0000 0.93837  0.74567  0.46947  Biso   1.000  C
  C1173    1.0000 0.90458  0.83041  0.18516  Biso   1.000  C
  H845     1.0000 0.87809  0.86438  0.17069  Biso   1.000  H
  H846     1.0000 0.88019  0.86210  0.25600  Biso   1.000  H
  C1174    1.0000 0.90297  0.82935  0.23605  Biso   1.000  C
  C1175    1.0000 0.95411  0.76865  0.17490  Biso   1.000  C
  H847     1.0000 0.97220  0.74569  0.14209  Biso   1.000  H
  H848     1.0000 0.88668  0.74030  0.15489  Biso   1.000  H
  C1176    1.0000 0.90769  0.76550  0.17975  Biso   1.000  C
  C1177    1.0000 0.90604  0.79402  0.41975  Biso   1.000  C
  H849     1.0000 0.90589  0.78399  0.37831  Biso   1.000  H
  H850     1.0000 0.90270  0.81149  0.45849  Biso   1.000  H
  C1178    1.0000 0.91823  0.75481  0.45159  Biso   1.000  C
  H851     1.0000 0.87439  0.75249  0.44529  Biso   1.000  H
  H852     1.0000 0.95750  0.75050  0.46590  Biso   1.000  H
  C1179    1.0000 0.91326  0.81892  0.21324  Biso   1.000  C
  H853     1.0000 0.91080  0.82268  0.16769  Biso   1.000  H
  H854     1.0000 0.90729  0.81970  0.25310  Biso   1.000  H
  C1180    1.0000 0.93088  0.77559  0.18728  Biso   1.000  C
  H855     1.0000 0.97129  0.77650  0.18170  Biso   1.000  H
  H856     1.0000 0.89119  0.77148  0.18950  Biso   1.000  H
  N157     1.0000 0.92358  0.76935  0.42711  Biso   1.000  N
  N158     1.0000 0.93295  0.79683  0.21110  Biso   1.000  N
  C1181    1.0000 0.94836  0.76283  0.41063  Biso   1.000  C
  C1182    1.0000 0.95686  0.79501  0.22856  Biso   1.000  C
  C1183    1.0000 0.95570  0.73675  0.40587  Biso   1.000  C
  C1184    1.0000 0.96308  0.78348  0.39824  Biso   1.000  C
  C1185    1.0000 0.96765  0.81974  0.23981  Biso   1.000  C
  C1186    1.0000 0.96704  0.76888  0.23776  Biso   1.000  C
  H857     1.0000 0.94539  0.72208  0.41499  Biso   1.000  H
  C1187    1.0000 0.97834  0.72904  0.38766  Biso   1.000  C
  C1188    1.0000 0.98701  0.77713  0.38175  Biso   1.000  C
  H858     1.0000 0.95739  0.80259  0.40061  Biso   1.000  H
  H859     1.0000 0.95919  0.83768  0.23630  Biso   1.000  H
  C1189    1.0000 0.99308  0.81646  0.25765  Biso   1.000  C
  C1190    1.0000 0.98923  0.76812  0.25577  Biso   1.000  C
  H860     1.0000 0.95849  0.75179  0.23150  Biso   1.000  H
  H861     1.0000 0.98170  0.70990  0.38271  Biso   1.000  H
  C1191    1.0000 0.99551  0.75077  0.37733  Biso   1.000  C
  H862     1.0000 0.99740  0.79220  0.37350  Biso   1.000  H
  H863     1.0000 0.00309  0.83280  0.26380  Biso   1.000  H
  C1192    1.0000 0.00237  0.79008  0.26546  Biso   1.000  C
  H864     1.0000 0.99568  0.75010  0.26179  Biso   1.000  H
  C1193    1.0000 0.01993  0.74390  0.35857  Biso   1.000  C
  C1194    1.0000 0.02784  0.78983  0.28373  Biso   1.000  C
  N159     1.0000 0.03734  0.76247  0.35042  Biso   1.000  N
  H865     1.0000 0.02249  0.72490  0.35249  Biso   1.000  H
  N160     1.0000 0.03954  0.76696  0.29046  Biso   1.000  N
  H866     1.0000 0.03540  0.80720  0.29050  Biso   1.000  H
  C1195    1.0000 0.06114  0.75071  0.33373  Biso   1.000  C
  C1196    1.0000 0.06459  0.76730  0.30908  Biso   1.000  C
  H867     1.0000 0.05708  0.73059  0.32850  Biso   1.000  H
  C1197    1.0000 0.08926  0.75227  0.35364  Biso   1.000  C
  H868     1.0000 0.06878  0.78729  0.31469  Biso   1.000  H
  C1198    1.0000 0.09064  0.75536  0.29031  Biso   1.000  C
  H869     1.0000 0.09169  0.77170  0.36119  Biso   1.000  H
  H870     1.0000 0.08748  0.73899  0.36980  Biso   1.000  H
  C1199    1.0000 0.11454  0.74421  0.33527  Biso   1.000  C
  C1200    1.0000 0.11761  0.75775  0.30842  Biso   1.000  C
  H871     1.0000 0.08719  0.73539  0.28500  Biso   1.000  H
  H872     1.0000 0.09269  0.76660  0.27280  Biso   1.000  H
  H873     1.0000 0.13189  0.74800  0.34630  Biso   1.000  H
  H874     1.0000 0.11370  0.72359  0.33189  Biso   1.000  H
  H875     1.0000 0.13358  0.74900  0.29810  Biso   1.000  H
  H876     1.0000 0.12218  0.77800  0.31141  Biso   1.000  H
  C1201    1.0000 0.35577  0.56578  0.60870  Biso   1.000  C
  C1202    1.0000 0.34139  0.53946  0.62161  Biso   1.000  C
  C1203    1.0000 0.33701  0.59165  0.60735  Biso   1.000  C
  H877     1.0000 0.37280  0.57039  0.62009  Biso   1.000  H
  H878     1.0000 0.36221  0.56110  0.58930  Biso   1.000  H
  C1204    1.0000 0.31405  0.53749  0.60999  Biso   1.000  C
  H879     1.0000 0.35239  0.52219  0.61710  Biso   1.000  H
  H880     1.0000 0.34029  0.54130  0.64239  Biso   1.000  H
  C1205    1.0000 0.30832  0.58418  0.59478  Biso   1.000  C
  N161     1.0000 0.35292  0.61499  0.59227  Biso   1.000  N
  H881     1.0000 0.33371  0.59810  0.62720  Biso   1.000  H
  C1206    1.0000 0.29349  0.55884  0.60661  Biso   1.000  C
  H882     1.0000 0.30449  0.52249  0.62110  Biso   1.000  H
  H883     1.0000 0.31680  0.52960  0.59081  Biso   1.000  H
  N162     1.0000 0.29067  0.60837  0.59538  Biso   1.000  N
  H884     1.0000 0.31179  0.57989  0.57439  Biso   1.000  H
  C1207    1.0000 0.35922  0.63517  0.60701  Biso   1.000  C
  H885     1.0000 0.28471  0.56349  0.62510  Biso   1.000  H
  H886     1.0000 0.27849  0.55241  0.59349  Biso   1.000  H
  C1208    1.0000 0.28266  0.61844  0.57212  Biso   1.000  C
  C1209    1.0000 0.37439  0.66088  0.59751  Biso   1.000  C
  H887     1.0000 0.35389  0.63439  0.62639  Biso   1.000  H
  C1210    1.0000 0.26139  0.64495  0.57168  Biso   1.000  C
  H888     1.0000 0.28909  0.61040  0.55490  Biso   1.000  H
  C1211    1.0000 0.38207  0.67939  0.61706  Biso   1.000  C
  C1212    1.0000 0.38097  0.66405  0.57138  Biso   1.000  C
  C1213    1.0000 0.24984  0.65195  0.54473  Biso   1.000  C
  C1214    1.0000 0.25253  0.65959  0.59512  Biso   1.000  C
  C1215    1.0000 0.39921  0.70268  0.60815  Biso   1.000  C
  H889     1.0000 0.37640  0.67729  0.63619  Biso   1.000  H
  H890     1.0000 0.37431  0.65040  0.55820  Biso   1.000  H
  C1216    1.0000 0.39771  0.68688  0.56095  Biso   1.000  C
  C1217    1.0000 0.23133  0.67490  0.54589  Biso   1.000  C
  H891     1.0000 0.25431  0.64209  0.52780  Biso   1.000  H
  H892     1.0000 0.25970  0.65489  0.61329  Biso   1.000  H
  C1218    1.0000 0.23448  0.67975  0.59229  Biso   1.000  C
  C1219    1.0000 0.40606  0.70596  0.58023  Biso   1.000  C
  H893     1.0000 0.40589  0.71599  0.62169  Biso   1.000  H
  H894     1.0000 0.40270  0.68849  0.54149  Biso   1.000  H
  C1220    1.0000 0.22439  0.68728  0.56910  Biso   1.000  C
  H895     1.0000 0.22350  0.68170  0.52869  Biso   1.000  H
  H896     1.0000 0.22849  0.68950  0.60879  Biso   1.000  H
  N163     1.0000 0.42358  0.73065  0.57289  Biso   1.000  N
  N164     1.0000 0.20317  0.71110  0.56702  Biso   1.000  N
  C1221    1.0000 0.44836  0.73715  0.58937  Biso   1.000  C
  C1222    1.0000 0.41823  0.74519  0.54839  Biso   1.000  C
  C1223    1.0000 0.18106  0.71324  0.58672  Biso   1.000  C
  C1224    1.0000 0.20499  0.72854  0.54312  Biso   1.000  C
  C1225    1.0000 0.45570  0.76323  0.59413  Biso   1.000  C
  C1226    1.0000 0.46308  0.71650  0.60176  Biso   1.000  C
  C1227    1.0000 0.38910  0.75253  0.54200  Biso   1.000  C
  C1228    1.0000 0.43837  0.75433  0.53053  Biso   1.000  C
  C1229    1.0000 0.16957  0.68516  0.59540  Biso   1.000  C
  C1230    1.0000 0.17063  0.73603  0.59700  Biso   1.000  C
  C1231    1.0000 0.18024  0.73981  0.53235  Biso   1.000  C
  C1232    1.0000 0.23112  0.73776  0.53296  Biso   1.000  C
  H897     1.0000 0.44539  0.77790  0.58499  Biso   1.000  H
  C1233    1.0000 0.47834  0.77093  0.61234  Biso   1.000  C
  C1234    1.0000 0.48701  0.72287  0.61825  Biso   1.000  C
  H898     1.0000 0.45739  0.69739  0.59939  Biso   1.000  H
  H899     1.0000 0.37439  0.74749  0.55469  Biso   1.000  H
  C1235    1.0000 0.38296  0.76660  0.51796  Biso   1.000  C
  C1236    1.0000 0.43196  0.77045  0.50724  Biso   1.000  C
  H900     1.0000 0.45750  0.74950  0.53410  Biso   1.000  H
  H901     1.0000 0.17729  0.66769  0.58920  Biso   1.000  H
  C1237    1.0000 0.14465  0.68717  0.61482  Biso   1.000  C
  C1238    1.0000 0.14596  0.73833  0.61433  Biso   1.000  C
  H902     1.0000 0.18030  0.75310  0.59269  Biso   1.000  H
  H903     1.0000 0.16229  0.73630  0.54079  Biso   1.000  H
  C1239    1.0000 0.18354  0.75763  0.50690  Biso   1.000  C
  C1240    1.0000 0.23188  0.75574  0.51075  Biso   1.000  C
  H904     1.0000 0.24819  0.73150  0.54149  Biso   1.000  H
  H905     1.0000 0.48170  0.79010  0.61729  Biso   1.000  H
  C1241    1.0000 0.49554  0.74923  0.62265  Biso   1.000  C
  H906     1.0000 0.49740  0.70780  0.62650  Biso   1.000  H
  H907     1.0000 0.36369  0.76960  0.51291  Biso   1.000  H
  C1242    1.0000 0.40452  0.77699  0.50028  Biso   1.000  C
  H908     1.0000 0.44690  0.77730  0.49560  Biso   1.000  H
  H909     1.0000 0.13559  0.67069  0.62188  Biso   1.000  H
  C1243    1.0000 0.13543  0.71375  0.62208  Biso   1.000  C
  H910     1.0000 0.13790  0.75600  0.61979  Biso   1.000  H
  H911     1.0000 0.16720  0.76378  0.49689  Biso   1.000  H
  C1244    1.0000 0.20992  0.76543  0.49763  Biso   1.000  C
  H912     1.0000 0.24990  0.76179  0.50429  Biso   1.000  H
  C1245    1.0000 0.51993  0.75608  0.64143  Biso   1.000  C
  C1246    1.0000 0.39796  0.79387  0.47262  Biso   1.000  C
  C1247    1.0000 0.10784  0.71758  0.64165  Biso   1.000  C
  C1248    1.0000 0.21017  0.78373  0.47214  Biso   1.000  C
  N165     1.0000 0.53734  0.73753  0.64958  Biso   1.000  N
  H913     1.0000 0.52249  0.77510  0.64748  Biso   1.000  H
  N166     1.0000 0.41546  0.80153  0.45477  Biso   1.000  N
  H914     1.0000 0.37879  0.79869  0.46920  Biso   1.000  H
  N167     1.0000 0.09764  0.73744  0.64988  Biso   1.000  N
  H915     1.0000 0.09880  0.70050  0.64710  Biso   1.000  H
  N168     1.0000 0.23304  0.79046  0.46044  Biso   1.000  N
  H916     1.0000 0.19280  0.79048  0.46460  Biso   1.000  H
  C1249    1.0000 0.56114  0.74927  0.66625  Biso   1.000  C
  C1250    1.0000 0.40562  0.81532  0.43042  Biso   1.000  C
  C1251    1.0000 0.07320  0.73545  0.66737  Biso   1.000  C
  C1252    1.0000 0.23270  0.80908  0.43539  Biso   1.000  C
  C1253    1.0000 0.56461  0.73270  0.69090  Biso   1.000  C
  H917     1.0000 0.55710  0.76939  0.67150  Biso   1.000  H
  C1254    1.0000 0.58926  0.74770  0.64634  Biso   1.000  C
  H918     1.0000 0.38569  0.82070  0.43520  Biso   1.000  H
  C1255    1.0000 0.41990  0.84228  0.42680  Biso   1.000  C
  C1256    1.0000 0.40278  0.79789  0.40699  Biso   1.000  C
  C1257    1.0000 0.07735  0.74925  0.69337  Biso   1.000  C
  H919     1.0000 0.06961  0.71500  0.67129  Biso   1.000  H
  C1258    1.0000 0.04946  0.74631  0.65220  Biso   1.000  C
  H920     1.0000 0.21269  0.81469  0.43120  Biso   1.000  H
  C1259    1.0000 0.24927  0.83373  0.43886  Biso   1.000  C
  C1260    1.0000 0.24464  0.79029  0.40936  Biso   1.000  C
  N169     1.0000 0.53954  0.73304  0.70952  Biso   1.000  N
  H921     1.0000 0.56880  0.71269  0.68529  Biso   1.000  H
  C1261    1.0000 0.59064  0.74464  0.70969  Biso   1.000  C
  H922     1.0000 0.59169  0.72830  0.63879  Biso   1.000  H
  H923     1.0000 0.58750  0.76099  0.63020  Biso   1.000  H
  C1262    1.0000 0.61454  0.75577  0.66473  Biso   1.000  C
  N170     1.0000 0.42015  0.86102  0.45007  Biso   1.000  N
  H924     1.0000 0.44019  0.83709  0.42409  Biso   1.000  H
  C1263    1.0000 0.41182  0.85723  0.39904  Biso   1.000  C
  C1264    1.0000 0.39335  0.81263  0.37773  Biso   1.000  C
  H925     1.0000 0.38869  0.78310  0.41161  Biso   1.000  H
  H926     1.0000 0.42111  0.78828  0.40380  Biso   1.000  H
  N171     1.0000 0.10071  0.73689  0.71186  Biso   1.000  N
  H927     1.0000 0.08359  0.76890  0.68849  Biso   1.000  H
  C1265    1.0000 0.05114  0.75291  0.71330  Biso   1.000  C
  H928     1.0000 0.04629  0.73410  0.63549  Biso   1.000  H
  H929     1.0000 0.05450  0.76539  0.64509  Biso   1.000  H
  C1266    1.0000 0.02044  0.74874  0.66881  Biso   1.000  C
  N172     1.0000 0.23753  0.85042  0.46264  Biso   1.000  N
  H930     1.0000 0.26939  0.82850  0.44290  Biso   1.000  H
  C1267    1.0000 0.24770  0.85364  0.41072  Biso   1.000  C
  C1268    1.0000 0.24225  0.80842  0.38237  Biso   1.000  C
  H931     1.0000 0.26459  0.78498  0.41279  Biso   1.000  H
  H932     1.0000 0.23340  0.77280  0.40729  Biso   1.000  H
  C1269    1.0000 0.52786  0.71017  0.71624  Biso   1.000  C
  C1270    1.0000 0.61763  0.74225  0.69155  Biso   1.000  C
  H933     1.0000 0.58719  0.76459  0.71500  Biso   1.000  H
  H934     1.0000 0.59269  0.73340  0.72720  Biso   1.000  H
  H935     1.0000 0.63189  0.75200  0.65370  Biso   1.000  H
  H936     1.0000 0.61370  0.77639  0.66809  Biso   1.000  H
  C1271    1.0000 0.44412  0.86993  0.45955  Biso   1.000  C
  H937     1.0000 0.39290  0.86580  0.40149  Biso   1.000  H
  H938     1.0000 0.42540  0.87289  0.39580  Biso   1.000  H
  C1272    1.0000 0.41120  0.83876  0.37257  Biso   1.000  C
  H939     1.0000 0.39580  0.79920  0.36189  Biso   1.000  H
  H940     1.0000 0.37310  0.81799  0.37869  Biso   1.000  H
  C1273    1.0000 0.12133  0.75202  0.71935  Biso   1.000  C
  C1274    1.0000 0.02609  0.76664  0.69524  Biso   1.000  C
  H941     1.0000 0.05600  0.76539  0.72940  Biso   1.000  H
  H942     1.0000 0.04519  0.73429  0.72090  Biso   1.000  H
  H943     1.0000 0.00590  0.75790  0.65679  Biso   1.000  H
  H944     1.0000 0.01360  0.72970  0.67429  Biso   1.000  H
  C1275    1.0000 0.25608  0.85857  0.48007  Biso   1.000  C
  H945     1.0000 0.22830  0.86119  0.40831  Biso   1.000  H
  H946     1.0000 0.26099  0.86980  0.41250  Biso   1.000  H
  C1276    1.0000 0.25579  0.83527  0.38546  Biso   1.000  C
  H947     1.0000 0.25100  0.79810  0.36639  Biso   1.000  H
  H948     1.0000 0.22200  0.81139  0.37780  Biso   1.000  H
  C1277    1.0000 0.50237  0.70990  0.73454  Biso   1.000  C
  H949     1.0000 0.53540  0.69280  0.70950  Biso   1.000  H
  H950     1.0000 0.63358  0.75098  0.70190  Biso   1.000  H
  H951     1.0000 0.62220  0.72200  0.68859  Biso   1.000  H
  C1278    1.0000 0.44535  0.88823  0.48413  Biso   1.000  C
  H952     1.0000 0.46109  0.86449  0.45030  Biso   1.000  H
  H953     1.0000 0.40329  0.84970  0.35660  Biso   1.000  H
  H954     1.0000 0.43069  0.83309  0.36749  Biso   1.000  H
  C1279    1.0000 0.14611  0.74165  0.73522  Biso   1.000  C
  H955     1.0000 0.12089  0.77148  0.71440  Biso   1.000  H
  H956     1.0000 0.00870  0.76770  0.70689  Biso   1.000  H
  H957     1.0000 0.03129  0.78608  0.68959  Biso   1.000  H
  C1280    1.0000 0.24923  0.87733  0.50446  Biso   1.000  C
  H958     1.0000 0.27510  0.85249  0.47749  Biso   1.000  H
  H959     1.0000 0.25200  0.84630  0.36809  Biso   1.000  H
  H960     1.0000 0.27639  0.83189  0.38630  Biso   1.000  H
  C1281    1.0000 0.49310  0.68351  0.74235  Biso   1.000  C
  C1282    1.0000 0.48925  0.73188  0.74423  Biso   1.000  C
  C1283    1.0000 0.42098  0.90008  0.49924  Biso   1.000  C
  C1284    1.0000 0.47038  0.89923  0.49448  Biso   1.000  C
  C1285    1.0000 0.15087  0.71500  0.74189  Biso   1.000  C
  C1286    1.0000 0.16581  0.75957  0.74498  Biso   1.000  C
  C1287    1.0000 0.27096  0.88764  0.52166  Biso   1.000  C
  C1288    1.0000 0.22287  0.88173  0.51299  Biso   1.000  C
  C1289    1.0000 0.46765  0.68024  0.76019  Biso   1.000  C
  H961     1.0000 0.50309  0.66720  0.73620  Biso   1.000  H
  H962     1.0000 0.49571  0.74988  0.73818  Biso   1.000  H
  C1290    1.0000 0.46704  0.73110  0.76224  Biso   1.000  C
  C1291    1.0000 0.42208  0.91943  0.51970  Biso   1.000  C
  H963     1.0000 0.40281  0.89328  0.49399  Biso   1.000  H
  H964     1.0000 0.48739  0.89240  0.48621  Biso   1.000  H
  C1292    1.0000 0.47309  0.91861  0.51496  Biso   1.000  C
  C1293    1.0000 0.17264  0.70514  0.75737  Biso   1.000  C
  C1294    1.0000 0.18749  0.75136  0.76268  Biso   1.000  C
  C1295    1.0000 0.26323  0.90585  0.54430  Biso   1.000  C
  H965     1.0000 0.29010  0.88269  0.51830  Biso   1.000  H
  H966     1.0000 0.20780  0.87350  0.50260  Biso   1.000  H
  C1296    1.0000 0.21650  0.89821  0.53692  Biso   1.000  C
  C1297    1.0000 0.45686  0.70499  0.77144  Biso   1.000  C
  H967     1.0000 0.45919  0.66229  0.76370  Biso   1.000  H
  H968     1.0000 0.45849  0.74819  0.76850  Biso   1.000  H
  C1298    1.0000 0.44814  0.92885  0.52873  Biso   1.000  C
  H969     1.0000 0.40520  0.92659  0.52791  Biso   1.000  H
  H970     1.0000 0.49120  0.92540  0.52029  Biso   1.000  H
  C1299    1.0000 0.19297  0.72460  0.76852  Biso   1.000  C
  H971     1.0000 0.19900  0.76560  0.77100  Biso   1.000  H
  C1300    1.0000 0.23717  0.91061  0.55162  Biso   1.000  C
  H972     1.0000 0.27790  0.91499  0.55461  Biso   1.000  H
  H973     1.0000 0.19739  0.90058  0.54259  Biso   1.000  H
  N173     1.0000 0.43295  0.70317  0.78888  Biso   1.000  N
  N174     1.0000 0.44952  0.94952  0.55048  Biso   1.000  N
  N175     1.0000 0.21472  0.71472  0.78528  Biso   1.000  N
  N176     1.0000 0.23065  0.92709  0.57640  Biso   1.000  N
  C1301    1.0000 0.41326  0.68106  0.78674  Biso   1.000  C
  C1302    1.0000 0.43088  0.72439  0.81272  Biso   1.000  C
  C1303    1.0000 0.42885  0.97127  0.55186  Biso   1.000  C
  C1304    1.0000 0.47127  0.94812  0.57115  Biso   1.000  C
  C1305    1.0000 0.23148  0.69297  0.77538  Biso   1.000  C
  C1306    1.0000 0.22460  0.73146  0.80701  Biso   1.000  C
  C1307    1.0000 0.20596  0.91975  0.59394  Biso   1.000  C
  C1308    1.0000 0.24519  0.95159  0.58175  Biso   1.000  C
  C1309    1.0000 0.40460  0.66957  0.81481  Biso   1.000  C
  C1310    1.0000 0.40300  0.67063  0.76395  Biso   1.000  C
  C1311    1.0000 0.45411  0.73133  0.82510  Biso   1.000  C
  C1312    1.0000 0.40771  0.73448  0.82023  Biso   1.000  C
  C1313    1.0000 0.41943  0.98028  0.57790  Biso   1.000  C
  C1314    1.0000 0.41861  0.98502  0.52689  Biso   1.000  C
  C1315    1.0000 0.48030  0.92208  0.58057  Biso   1.000  C
  C1316    1.0000 0.48502  0.97309  0.58139  Biso   1.000  C
  C1317    1.0000 0.24261  0.67264  0.79484  Biso   1.000  C
  C1318    1.0000 0.23732  0.68749  0.74861  Biso   1.000  C
  C1319    1.0000 0.20516  0.74261  0.82736  Biso   1.000  C
  C1320    1.0000 0.25136  0.73730  0.81251  Biso   1.000  C
  C1321    1.0000 0.20268  0.89182  0.60079  Biso   1.000  C
  C1322    1.0000 0.18688  0.93905  0.60227  Biso   1.000  C
  C1323    1.0000 0.25253  0.95798  0.61090  Biso   1.000  C
  C1324    1.0000 0.25433  0.96947  0.56163  Biso   1.000  C
  H974     1.0000 0.41080  0.67729  0.83229  Biso   1.000  H
  C1325    1.0000 0.38516  0.64465  0.81283  Biso   1.000  C
  C1326    1.0000 0.38565  0.64596  0.76165  Biso   1.000  C
  H975     1.0000 0.40729  0.68030  0.74690  Biso   1.000  H
  H976     1.0000 0.47129  0.72350  0.81828  Biso   1.000  H
  C1327    1.0000 0.45527  0.74984  0.84803  Biso   1.000  C
  C1328    1.0000 0.40488  0.75253  0.84039  Biso   1.000  C
  H977     1.0000 0.39119  0.72849  0.81050  Biso   1.000  H
  H978     1.0000 0.42661  0.97209  0.59480  Biso   1.000  H
  C1329    1.0000 0.40008  0.00076  0.57900  Biso   1.000  C
  H979     1.0000 0.42540  0.97969  0.50880  Biso   1.000  H
  C1330    1.0000 0.39923  0.00550  0.52962  Biso   1.000  C
  H980     1.0000 0.47209  0.90520  0.57339  Biso   1.000  H
  C1331    1.0000 0.50076  0.92098  0.59992  Biso   1.000  C
  C1332    1.0000 0.50550  0.97038  0.60075  Biso   1.000  C
  H981     1.0000 0.47969  0.99120  0.57460  Biso   1.000  H
  C1333    1.0000 0.25811  0.65087  0.78498  Biso   1.000  C
  C1334    1.0000 0.25500  0.66579  0.74043  Biso   1.000  C
  H982     1.0000 0.22900  0.69900  0.73440  Biso   1.000  H
  C1335    1.0000 0.21500  0.75811  0.84913  Biso   1.000  C
  C1336    1.0000 0.25957  0.75500  0.83419  Biso   1.000  C
  H983     1.0000 0.26560  0.72900  0.80100  Biso   1.000  H
  H984     1.0000 0.21599  0.87828  0.59408  Biso   1.000  H
  C1337    1.0000 0.17939  0.88294  0.61791  Biso   1.000  C
  C1338    1.0000 0.16405  0.92860  0.61903  Biso   1.000  C
  H985     1.0000 0.18851  0.95849  0.59730  Biso   1.000  H
  H986     1.0000 0.24749  0.94529  0.62559  Biso   1.000  H
  C1339    1.0000 0.26660  0.98204  0.61704  Biso   1.000  C
  C1340    1.0000 0.27045  0.99274  0.56804  Biso   1.000  C
  H987     1.0000 0.24950  0.96590  0.54250  Biso   1.000  H
  H988     1.0000 0.37809  0.63559  0.82929  Biso   1.000  H
  C1341    1.0000 0.37792  0.63543  0.78625  Biso   1.000  C
  H989     1.0000 0.38019  0.63790  0.74400  Biso   1.000  H
  H990     1.0000 0.47220  0.75428  0.85789  Biso   1.000  H
  C1342    1.0000 0.42830  0.76139  0.85503  Biso   1.000  C
  H991     1.0000 0.38671  0.75970  0.84509  Biso   1.000  H
  H992     1.0000 0.39331  0.00599  0.59719  Biso   1.000  H
  C1343    1.0000 0.38823  0.01585  0.55463  Biso   1.000  C
  H993     1.0000 0.39240  0.01379  0.51259  Biso   1.000  H
  H994     1.0000 0.50599  0.90278  0.60669  Biso   1.000  H
  C1344    1.0000 0.51585  0.94535  0.61175  Biso   1.000  C
  H995     1.0000 0.51379  0.98739  0.60760  Biso   1.000  H
  C1345    1.0000 0.26478  0.64609  0.75833  Biso   1.000  C
  C1346    1.0000 0.24165  0.76478  0.85389  Biso   1.000  C
  H996     1.0000 0.17729  0.86379  0.62360  Biso   1.000  H
  C1347    1.0000 0.16090  0.90249  0.62559  Biso   1.000  C
  H997     1.0000 0.15040  0.94180  0.62569  Biso   1.000  H
  H998     1.0000 0.26960  0.98709  0.63629  Biso   1.000  H
  C1348    1.0000 0.27699  0.99970  0.59548  Biso   1.000  C
  H999     1.0000 0.27730  0.00440  0.55310  Biso   1.000  H
  C1349    1.0000 0.35833  0.60782  0.78242  Biso   1.000  C
  C1350    1.0000 0.42788  0.78263  0.88154  Biso   1.000  C
  C1351    1.0000 0.36993  0.04043  0.55588  Biso   1.000  C
  C1352    1.0000 0.54045  0.94410  0.63007  Biso   1.000  C
  C1353    1.0000 0.28065  0.62133  0.74796  Biso   1.000  C
  C1354    1.0000 0.25202  0.78065  0.87864  Biso   1.000  C
  C1355    1.0000 0.13517  0.89297  0.64076  Biso   1.000  C
  C1356    1.0000 0.29387  0.02738  0.60202  Biso   1.000  C
  N177     1.0000 0.35010  0.59762  0.76256  Biso   1.000  N
  H1000    1.0000 0.35290  0.59880  0.79950  Biso   1.000  H
  N178     1.0000 0.40462  0.79065  0.89163  Biso   1.000  N
  H1001    1.0000 0.44510  0.78909  0.88958  Biso   1.000  H
  N179     1.0000 0.36102  0.04991  0.57982  Biso   1.000  N
  H1002    1.0000 0.36449  0.04970  0.53889  Biso   1.000  H
  N180     1.0000 0.54991  0.92015  0.63898  Biso   1.000  N
  H1003    1.0000 0.54970  0.96109  0.63549  Biso   1.000  H
  N181     1.0000 0.28811  0.60069  0.76309  Biso   1.000  N
  H1004    1.0000 0.28560  0.62089  0.72849  Biso   1.000  H
  N182     1.0000 0.23691  0.78811  0.89929  Biso   1.000  N
  H1005    1.0000 0.27151  0.78560  0.87909  Biso   1.000  H
  N183     1.0000 0.11499  0.90771  0.64706  Biso   1.000  N
  H1006    1.0000 0.13439  0.87359  0.64609  Biso   1.000  H
  N184     1.0000 0.30153  0.04521  0.58454  Biso   1.000  N
  H1007    1.0000 0.29869  0.03078  0.62119  Biso   1.000  H
  C1357    1.0000 0.33261  0.57320  0.76452  Biso   1.000  C
  C1358    1.0000 0.40520  0.80832  0.91582  Biso   1.000  C
  C1359    1.0000 0.34228  0.07318  0.58008  Biso   1.000  C
  C1360    1.0000 0.57320  0.91990  0.65772  Biso   1.000  C
  C1361    1.0000 0.30661  0.57735  0.75073  Biso   1.000  C
  C1362    1.0000 0.24925  0.80661  0.92265  Biso   1.000  C
  C1363    1.0000 0.09165  0.89263  0.66299  Biso   1.000  C
  C1364    1.0000 0.31532  0.06956  0.59436  Biso   1.000  C
  H1008    1.0000 0.32869  0.56958  0.78498  Biso   1.000  H
  C1365    1.0000 0.34780  0.54946  0.75369  Biso   1.000  C
  C1366    1.0000 0.39263  0.83699  0.90833  Biso   1.000  C
  H1009    1.0000 0.42559  0.81179  0.92009  Biso   1.000  H
  C1367    1.0000 0.39337  0.79349  0.94114  Biso   1.000  C
  H1010    1.0000 0.33709  0.07589  0.55979  Biso   1.000  H
  C1368    1.0000 0.35725  0.10096  0.58818  Biso   1.000  C
  C1369    1.0000 0.56958  0.90562  0.68466  Biso   1.000  C
  H1011    1.0000 0.57589  0.94019  0.66289  Biso   1.000  H
  C1370    1.0000 0.60096  0.91182  0.64275  Biso   1.000  C
  H1012    1.0000 0.31149  0.58359  0.73110  Biso   1.000  H
  C1371    1.0000 0.28668  0.55114  0.74707  Biso   1.000  C
  H1013    1.0000 0.26890  0.81149  0.91639  Biso   1.000  H
  C1372    1.0000 0.23545  0.83261  0.92678  Biso   1.000  C
  C1373    1.0000 0.25291  0.78668  0.94884  Biso   1.000  C
  H1014    1.0000 0.09810  0.87278  0.66629  Biso   1.000  H
  C1374    1.0000 0.06580  0.89127  0.64421  Biso   1.000  C
  C1375    1.0000 0.08418  0.90520  0.69168  Biso   1.000  C
  H1015    1.0000 0.32070  0.06478  0.61429  Biso   1.000  H
  C1376    1.0000 0.29789  0.09301  0.59719  Biso   1.000  C
  H1016    1.0000 0.36449  0.54629  0.76590  Biso   1.000  H
  H1017    1.0000 0.35491  0.55450  0.73459  Biso   1.000  H
  C1377    1.0000 0.33117  0.52042  0.75124  Biso   1.000  C
  N185     1.0000 0.40771  0.85292  0.88501  Biso   1.000  N
  H1018    1.0000 0.37280  0.83369  0.90190  Biso   1.000  H
  C1378    1.0000 0.39130  0.85577  0.93420  Biso   1.000  C
  H1019    1.0000 0.37490  0.78469  0.93649  Biso   1.000  H
  H1020    1.0000 0.40649  0.77849  0.94759  Biso   1.000  H
  C1379    1.0000 0.38998  0.81405  0.96249  Biso   1.000  C
  H1021    1.0000 0.36580  0.09849  0.60710  Biso   1.000  H
  H1022    1.0000 0.37289  0.10420  0.57460  Biso   1.000  H
  C1380    1.0000 0.33876  0.12741  0.58880  Biso   1.000  C
  N186     1.0000 0.54523  0.91546  0.69847  Biso   1.000  N
  H1023    1.0000 0.56480  0.88569  0.67930  Biso   1.000  H
  C1381    1.0000 0.59301  0.90278  0.70211  Biso   1.000  C
  H1024    1.0000 0.59849  0.89288  0.63420  Biso   1.000  H
  H1025    1.0000 0.60420  0.92540  0.62709  Biso   1.000  H
  C1382    1.0000 0.62741  0.91120  0.66122  Biso   1.000  C
  C1383    1.0000 0.30474  0.52607  0.73334  Biso   1.000  C
  H1026    1.0000 0.27060  0.55600  0.73459  Biso   1.000  H
  H1027    1.0000 0.27910  0.54519  0.76569  Biso   1.000  H
  N187     1.0000 0.23744  0.85010  0.90236  Biso   1.000  N
  H1028    1.0000 0.21500  0.82869  0.93039  Biso   1.000  H
  C1384    1.0000 0.24631  0.84778  0.95051  Biso   1.000  C
  C1385    1.0000 0.26664  0.80474  0.97391  Biso   1.000  C
  H1029    1.0000 0.26539  0.77060  0.94400  Biso   1.000  H
  H1030    1.0000 0.23429  0.77910  0.95479  Biso   1.000  H
  H1031    1.0000 0.07039  0.87989  0.62720  Biso   1.000  H
  H1032    1.0000 0.06110  0.91070  0.63779  Biso   1.000  H
  C1386    1.0000 0.03946  0.87839  0.65861  Biso   1.000  C
  N188     1.0000 0.10837  0.90460  0.70933  Biso   1.000  N
  H1033    1.0000 0.07991  0.92559  0.68819  Biso   1.000  H
  C1387    1.0000 0.05884  0.89337  0.70651  Biso   1.000  C
  C1388    1.0000 0.31266  0.12224  0.60663  Biso   1.000  C
  H1034    1.0000 0.28310  0.08839  0.61129  Biso   1.000  H
  H1035    1.0000 0.28830  0.09620  0.57889  Biso   1.000  H
  H1036    1.0000 0.34321  0.50590  0.74210  Biso   1.000  H
  H1037    1.0000 0.32569  0.51360  0.77030  Biso   1.000  H
  C1389    1.0000 0.39297  0.85922  0.86481  Biso   1.000  C
  C1390    1.0000 0.37839  0.84139  0.96052  Biso   1.000  C
  H1038    1.0000 0.37989  0.87278  0.92959  Biso   1.000  H
  H1039    1.0000 0.41070  0.86218  0.93890  Biso   1.000  H
  H1040    1.0000 0.37890  0.80449  0.97749  Biso   1.000  H
  H1041    1.0000 0.40919  0.81680  0.97040  Biso   1.000  H
  H1042    1.0000 0.34970  0.14338  0.59669  Biso   1.000  H
  H1043    1.0000 0.33309  0.13248  0.56929  Biso   1.000  H
  C1391    1.0000 0.52738  0.89796  0.70611  Biso   1.000  C
  C1392    1.0000 0.62224  0.89335  0.68734  Biso   1.000  C
  H1044    1.0000 0.58839  0.88869  0.71690  Biso   1.000  H
  H1045    1.0000 0.59620  0.92108  0.71170  Biso   1.000  H
  H1046    1.0000 0.64340  0.90329  0.65030  Biso   1.000  H
  H1047    1.0000 0.63248  0.93069  0.66689  Biso   1.000  H
  H1048    1.0000 0.29311  0.50870  0.73230  Biso   1.000  H
  H1049    1.0000 0.31039  0.53129  0.71390  Biso   1.000  H
  C1393    1.0000 0.21758  0.85833  0.89216  Biso   1.000  C
  H1050    1.0000 0.23410  0.86449  0.95369  Biso   1.000  H
  H1051    1.0000 0.26539  0.85489  0.94550  Biso   1.000  H
  C1394    1.0000 0.24874  0.83117  0.97956  Biso   1.000  C
  H1052    1.0000 0.26770  0.79309  0.99128  Biso   1.000  H
  H1053    1.0000 0.28610  0.81039  0.96869  Biso   1.000  H
  C1395    1.0000 0.03749  0.88998  0.68595  Biso   1.000  C
  H1054    1.0000 0.02219  0.88290  0.64759  Biso   1.000  H
  H1055    1.0000 0.04130  0.85759  0.65969  Biso   1.000  H
  C1396    1.0000 0.11846  0.92786  0.71734  Biso   1.000  C
  H1056    1.0000 0.06349  0.87490  0.71529  Biso   1.000  H
  H1057    1.0000 0.05241  0.90649  0.72149  Biso   1.000  H
  H1058    1.0000 0.29920  0.13809  0.60420  Biso   1.000  H
  H1059    1.0000 0.31799  0.12129  0.62690  Biso   1.000  H
  C1397    1.0000 0.40249  0.87439  0.83910  Biso   1.000  C
  H1060    1.0000 0.37359  0.85389  0.86559  Biso   1.000  H
  H1061    1.0000 0.38290  0.85239  0.97779  Biso   1.000  H
  H1062    1.0000 0.35759  0.84029  0.95870  Biso   1.000  H
  C1398    1.0000 0.49972  0.90452  0.72301  Biso   1.000  C
  H1063    1.0000 0.53080  0.87879  0.70129  Biso   1.000  H
  H1064    1.0000 0.63809  0.89580  0.70080  Biso   1.000  H
  H1065    1.0000 0.62129  0.87310  0.68199  Biso   1.000  H
  C1399    1.0000 0.21375  0.87790  0.86457  Biso   1.000  C
  H1066    1.0000 0.20050  0.85290  0.90120  Biso   1.000  H
  H1067    1.0000 0.25790  0.84319  0.99410  Biso   1.000  H
  H1068    1.0000 0.22970  0.82569  0.98640  Biso   1.000  H
  H1069    1.0000 0.02249  0.87890  0.69549  Biso   1.000  H
  H1070    1.0000 0.02960  0.90919  0.68320  Biso   1.000  H
  C1400    1.0000 0.14495  0.92830  0.73859  Biso   1.000  C
  H1071    1.0000 0.11040  0.94510  0.71089  Biso   1.000  H
  C1401    1.0000 0.38294  0.88207  0.82061  Biso   1.000  C
  C1402    1.0000 0.42862  0.88097  0.83595  Biso   1.000  C
  C1403    1.0000 0.48204  0.88296  0.73338  Biso   1.000  C
  C1404    1.0000 0.49276  0.93196  0.72953  Biso   1.000  C
  C1405    1.0000 0.18717  0.88516  0.85535  Biso   1.000  C
  C1406    1.0000 0.23833  0.88565  0.85402  Biso   1.000  C
  C1407    1.0000 0.15195  0.95527  0.75014  Biso   1.000  C
  C1408    1.0000 0.15961  0.90488  0.74747  Biso   1.000  C
  C1409    1.0000 0.39185  0.89921  0.79730  Biso   1.000  C
  H1072    1.0000 0.36379  0.87640  0.82268  Biso   1.000  H
  H1073    1.0000 0.44180  0.87429  0.84960  Biso   1.000  H
  C1410    1.0000 0.43905  0.89771  0.81312  Biso   1.000  C
  C1411    1.0000 0.45800  0.88907  0.74745  Biso   1.000  C
  H1074    1.0000 0.48709  0.86369  0.73040  Biso   1.000  H
  H1075    1.0000 0.50440  0.94690  0.72270  Biso   1.000  H
  C1412    1.0000 0.46947  0.93837  0.74567  Biso   1.000  C
  C1413    1.0000 0.18516  0.90458  0.83041  Biso   1.000  C
  H1076    1.0000 0.17069  0.87809  0.86438  Biso   1.000  H
  H1077    1.0000 0.25600  0.88019  0.86210  Biso   1.000  H
  C1414    1.0000 0.23605  0.90297  0.82935  Biso   1.000  C
  C1415    1.0000 0.17490  0.95411  0.76865  Biso   1.000  C
  H1078    1.0000 0.14209  0.97220  0.74569  Biso   1.000  H
  H1079    1.0000 0.15489  0.88668  0.74030  Biso   1.000  H
  C1416    1.0000 0.17975  0.90769  0.76550  Biso   1.000  C
  C1417    1.0000 0.41975  0.90604  0.79402  Biso   1.000  C
  H1080    1.0000 0.37831  0.90589  0.78399  Biso   1.000  H
  H1081    1.0000 0.45849  0.90270  0.81149  Biso   1.000  H
  C1418    1.0000 0.45159  0.91823  0.75481  Biso   1.000  C
  H1082    1.0000 0.44529  0.87439  0.75249  Biso   1.000  H
  H1083    1.0000 0.46590  0.95750  0.75050  Biso   1.000  H
  C1419    1.0000 0.21324  0.91326  0.81892  Biso   1.000  C
  H1084    1.0000 0.16769  0.91080  0.82268  Biso   1.000  H
  H1085    1.0000 0.25310  0.90729  0.81970  Biso   1.000  H
  C1420    1.0000 0.18728  0.93088  0.77559  Biso   1.000  C
  H1086    1.0000 0.18170  0.97129  0.77650  Biso   1.000  H
  H1087    1.0000 0.18950  0.89119  0.77148  Biso   1.000  H
  N189     1.0000 0.42711  0.92358  0.76935  Biso   1.000  N
  N190     1.0000 0.21110  0.93295  0.79683  Biso   1.000  N
  C1421    1.0000 0.41063  0.94836  0.76283  Biso   1.000  C
  C1422    1.0000 0.22856  0.95686  0.79501  Biso   1.000  C
  C1423    1.0000 0.40587  0.95570  0.73675  Biso   1.000  C
  C1424    1.0000 0.39824  0.96308  0.78348  Biso   1.000  C
  C1425    1.0000 0.23981  0.96765  0.81974  Biso   1.000  C
  C1426    1.0000 0.23776  0.96704  0.76888  Biso   1.000  C
  H1088    1.0000 0.41499  0.94539  0.72208  Biso   1.000  H
  C1427    1.0000 0.38766  0.97834  0.72904  Biso   1.000  C
  C1428    1.0000 0.38175  0.98701  0.77713  Biso   1.000  C
  H1089    1.0000 0.40061  0.95739  0.80259  Biso   1.000  H
  H1090    1.0000 0.23630  0.95919  0.83768  Biso   1.000  H
  C1429    1.0000 0.25765  0.99308  0.81646  Biso   1.000  C
  C1430    1.0000 0.25577  0.98923  0.76812  Biso   1.000  C
  H1091    1.0000 0.23150  0.95849  0.75179  Biso   1.000  H
  H1092    1.0000 0.38271  0.98170  0.70990  Biso   1.000  H
  C1431    1.0000 0.37733  0.99551  0.75077  Biso   1.000  C
  H1093    1.0000 0.37350  0.99740  0.79220  Biso   1.000  H
  H1094    1.0000 0.26380  0.00309  0.83280  Biso   1.000  H
  C1432    1.0000 0.26546  0.00237  0.79008  Biso   1.000  C
  H1095    1.0000 0.26179  0.99568  0.75010  Biso   1.000  H
  C1433    1.0000 0.35857  0.01993  0.74390  Biso   1.000  C
  C1434    1.0000 0.28373  0.02784  0.78983  Biso   1.000  C
  N191     1.0000 0.35042  0.03734  0.76247  Biso   1.000  N
  H1096    1.0000 0.35249  0.02249  0.72490  Biso   1.000  H
  N192     1.0000 0.29046  0.03954  0.76696  Biso   1.000  N
  H1097    1.0000 0.29050  0.03540  0.80720  Biso   1.000  H
  C1435    1.0000 0.33373  0.06114  0.75071  Biso   1.000  C
  C1436    1.0000 0.30908  0.06459  0.76730  Biso   1.000  C
  H1098    1.0000 0.32850  0.05708  0.73059  Biso   1.000  H
  C1437    1.0000 0.35364  0.08926  0.75227  Biso   1.000  C
  H1099    1.0000 0.31469  0.06878  0.78729  Biso   1.000  H
  C1438    1.0000 0.29031  0.09064  0.75536  Biso   1.000  C
  H1100    1.0000 0.36119  0.09169  0.77170  Biso   1.000  H
  H1101    1.0000 0.36980  0.08748  0.73899  Biso   1.000  H
  C1439    1.0000 0.33527  0.11454  0.74421  Biso   1.000  C
  C1440    1.0000 0.30842  0.11761  0.75775  Biso   1.000  C
  H1102    1.0000 0.28500  0.08719  0.73539  Biso   1.000  H
  H1103    1.0000 0.27280  0.09269  0.76660  Biso   1.000  H
  H1104    1.0000 0.34630  0.13189  0.74800  Biso   1.000  H
  H1105    1.0000 0.33189  0.11370  0.72359  Biso   1.000  H
  H1106    1.0000 0.29810  0.13358  0.74900  Biso   1.000  H
  H1107    1.0000 0.31141  0.12218  0.77800  Biso   1.000  H
  C1441    1.0000 0.74161  0.67721  0.69244  Biso   1.000  C
  C1442    1.0000 0.75773  0.65256  0.69411  Biso   1.000  C
  C1443    1.0000 0.73306  0.69107  0.71597  Biso   1.000  C
  H1108    1.0000 0.73649  0.68440  0.67440  Biso   1.000  H
  H1109    1.0000 0.76220  0.64220  0.67740  Biso   1.000  H
  C1444    1.0000 0.76759  0.64285  0.72119  Biso   1.000  C
  N193     1.0000 0.71521  0.71521  0.71521  Biso   1.000  N
  C1445    1.0000 0.74358  0.67949  0.74115  Biso   1.000  C
  C1446    1.0000 0.75957  0.65715  0.74320  Biso   1.000  C
  C1447    1.0000 0.78492  0.61611  0.71971  Biso   1.000  C
  C1448    1.0000 0.69107  0.71597  0.73306  Biso   1.000  C
  C1449    1.0000 0.71597  0.73306  0.69107  Biso   1.000  C
  H1110    1.0000 0.73859  0.68880  0.75830  Biso   1.000  H
  H1111    1.0000 0.76550  0.65110  0.76139  Biso   1.000  H
  N194     1.0000 0.79216  0.60610  0.74313  Biso   1.000  N
  H1112    1.0000 0.79000  0.60750  0.70230  Biso   1.000  H
  C1450    1.0000 0.67721  0.69244  0.74161  Biso   1.000  C
  C1451    1.0000 0.67949  0.74115  0.74358  Biso   1.000  C
  C1452    1.0000 0.69244  0.74161  0.67721  Biso   1.000  C
  C1453    1.0000 0.74115  0.74358  0.67949  Biso   1.000  C
  C1454    1.0000 0.80885  0.57959  0.74070  Biso   1.000  C
  H1113    1.0000 0.68440  0.67440  0.73649  Biso   1.000  H
  C1455    1.0000 0.65256  0.69411  0.75773  Biso   1.000  C
  C1456    1.0000 0.65715  0.74320  0.75957  Biso   1.000  C
  H1114    1.0000 0.68880  0.75830  0.73859  Biso   1.000  H
  H1115    1.0000 0.67440  0.73649  0.68440  Biso   1.000  H
  C1457    1.0000 0.69411  0.75773  0.65256  Biso   1.000  C
  C1458    1.0000 0.74320  0.75957  0.65715  Biso   1.000  C
  H1116    1.0000 0.75830  0.73859  0.68880  Biso   1.000  H
  H1117    1.0000 0.81179  0.57519  0.72020  Biso   1.000  H
  C1459    1.0000 0.83788  0.58285  0.75526  Biso   1.000  C
  C1460    1.0000 0.79412  0.55518  0.75452  Biso   1.000  C
  H1118    1.0000 0.64220  0.67740  0.76220  Biso   1.000  H
  C1461    1.0000 0.64285  0.72119  0.76759  Biso   1.000  C
  H1119    1.0000 0.65110  0.76139  0.76550  Biso   1.000  H
  H1120    1.0000 0.67740  0.76220  0.64220  Biso   1.000  H
  C1462    1.0000 0.72119  0.76759  0.64285  Biso   1.000  C
  H1121    1.0000 0.76139  0.76550  0.65110  Biso   1.000  H
  N195     1.0000 0.85370  0.60712  0.74062  Biso   1.000  N
  H1122    1.0000 0.83479  0.58799  0.77559  Biso   1.000  H
  C1463    1.0000 0.85499  0.55501  0.75397  Biso   1.000  C
  C1464    1.0000 0.81022  0.52676  0.75096  Biso   1.000  C
  H1123    1.0000 0.77500  0.55319  0.74629  Biso   1.000  H
  H1124    1.0000 0.79190  0.55920  0.77500  Biso   1.000  H
  C1465    1.0000 0.61611  0.71971  0.78492  Biso   1.000  C
  C1466    1.0000 0.71971  0.78492  0.61611  Biso   1.000  C
  C1467    1.0000 0.86402  0.62601  0.75397  Biso   1.000  C
  H1125    1.0000 0.85979  0.55040  0.73410  Biso   1.000  H
  H1126    1.0000 0.87278  0.55700  0.76480  Biso   1.000  H
  C1468    1.0000 0.83792  0.53336  0.76590  Biso   1.000  C
  H1127    1.0000 0.80009  0.51100  0.76019  Biso   1.000  H
  H1128    1.0000 0.81329  0.52209  0.73080  Biso   1.000  H
  N196     1.0000 0.60610  0.74313  0.79216  Biso   1.000  N
  H1129    1.0000 0.60750  0.70230  0.79000  Biso   1.000  H
  N197     1.0000 0.74313  0.79216  0.60610  Biso   1.000  N
  H1130    1.0000 0.70230  0.79000  0.60750  Biso   1.000  H
  C1469    1.0000 0.88010  0.64930  0.74415  Biso   1.000  C
  H1131    1.0000 0.86108  0.62529  0.77379  Biso   1.000  H
  H1132    1.0000 0.83350  0.53870  0.78570  Biso   1.000  H
  H1133    1.0000 0.84930  0.51580  0.76660  Biso   1.000  H
  C1470    1.0000 0.57959  0.74070  0.80885  Biso   1.000  C
  C1471    1.0000 0.74070  0.80885  0.57959  Biso   1.000  C
  C1472    1.0000 0.88933  0.67076  0.76249  Biso   1.000  C
  C1473    1.0000 0.88505  0.65468  0.71540  Biso   1.000  C
  H1134    1.0000 0.57519  0.72020  0.81179  Biso   1.000  H
  C1474    1.0000 0.58285  0.75526  0.83788  Biso   1.000  C
  C1475    1.0000 0.55518  0.75452  0.79412  Biso   1.000  C
  H1135    1.0000 0.72020  0.81179  0.57519  Biso   1.000  H
  C1476    1.0000 0.75526  0.83788  0.58285  Biso   1.000  C
  C1477    1.0000 0.75452  0.79412  0.55518  Biso   1.000  C
  C1478    1.0000 0.90873  0.69028  0.75405  Biso   1.000  C
  H1136    1.0000 0.88190  0.67169  0.78109  Biso   1.000  H
  H1137    1.0000 0.87729  0.64239  0.70150  Biso   1.000  H
  C1479    1.0000 0.90061  0.67687  0.70736  Biso   1.000  C
  N198     1.0000 0.60712  0.74062  0.85370  Biso   1.000  N
  H1138    1.0000 0.58799  0.77559  0.83479  Biso   1.000  H
  C1480    1.0000 0.55501  0.75397  0.85499  Biso   1.000  C
  C1481    1.0000 0.52676  0.75096  0.81022  Biso   1.000  C
  H1139    1.0000 0.55319  0.74629  0.77500  Biso   1.000  H
  H1140    1.0000 0.55920  0.77500  0.79190  Biso   1.000  H
  N199     1.0000 0.74062  0.85370  0.60712  Biso   1.000  N
  H1141    1.0000 0.77559  0.83479  0.58799  Biso   1.000  H
  C1482    1.0000 0.75397  0.85499  0.55501  Biso   1.000  C
  C1483    1.0000 0.75096  0.81022  0.52676  Biso   1.000  C
  H1142    1.0000 0.74629  0.77500  0.55319  Biso   1.000  H
  H1143    1.0000 0.77500  0.79190  0.55920  Biso   1.000  H
  C1484    1.0000 0.91214  0.69627  0.72653  Biso   1.000  C
  H1144    1.0000 0.91990  0.69978  0.76780  Biso   1.000  H
  H1145    1.0000 0.90399  0.67960  0.68770  Biso   1.000  H
  C1485    1.0000 0.62601  0.75397  0.86402  Biso   1.000  C
  H1146    1.0000 0.55040  0.73410  0.85979  Biso   1.000  H
  H1147    1.0000 0.55700  0.76480  0.87278  Biso   1.000  H
  C1486    1.0000 0.53336  0.76590  0.83792  Biso   1.000  C
  H1148    1.0000 0.51100  0.76019  0.80009  Biso   1.000  H
  H1149    1.0000 0.52209  0.73080  0.81329  Biso   1.000  H
  C1487    1.0000 0.75397  0.86402  0.62601  Biso   1.000  C
  H1150    1.0000 0.73410  0.85979  0.55040  Biso   1.000  H
  H1151    1.0000 0.76480  0.87278  0.55700  Biso   1.000  H
  C1488    1.0000 0.76590  0.83792  0.53336  Biso   1.000  C
  H1152    1.0000 0.76019  0.80009  0.51100  Biso   1.000  H
  H1153    1.0000 0.73080  0.81329  0.52209  Biso   1.000  H
  N200     1.0000 0.92965  0.71961  0.71872  Biso   1.000  N
  C1489    1.0000 0.64930  0.74415  0.88010  Biso   1.000  C
  H1154    1.0000 0.62529  0.77379  0.86108  Biso   1.000  H
  H1155    1.0000 0.53870  0.78570  0.83350  Biso   1.000  H
  H1156    1.0000 0.51580  0.76660  0.84930  Biso   1.000  H
  C1490    1.0000 0.74415  0.88010  0.64930  Biso   1.000  C
  H1157    1.0000 0.77379  0.86108  0.62529  Biso   1.000  H
  H1158    1.0000 0.78570  0.83350  0.53870  Biso   1.000  H
  H1159    1.0000 0.76660  0.84930  0.51580  Biso   1.000  H
  C1491    1.0000 0.92295  0.73584  0.69265  Biso   1.000  C
  C1492    1.0000 0.95424  0.72625  0.73471  Biso   1.000  C
  C1493    1.0000 0.67076  0.76249  0.88933  Biso   1.000  C
  C1494    1.0000 0.65468  0.71540  0.88505  Biso   1.000  C
  C1495    1.0000 0.76249  0.88933  0.67076  Biso   1.000  C
  C1496    1.0000 0.71540  0.88505  0.65468  Biso   1.000  C
  C1497    1.0000 0.89536  0.74117  0.68544  Biso   1.000  C
  C1498    1.0000 0.94482  0.74519  0.67414  Biso   1.000  C
  C1499    1.0000 0.95792  0.75314  0.74172  Biso   1.000  C
  C1500    1.0000 0.97178  0.70473  0.74390  Biso   1.000  C
  C1501    1.0000 0.69028  0.75405  0.90873  Biso   1.000  C
  H1160    1.0000 0.67169  0.78109  0.88190  Biso   1.000  H
  H1161    1.0000 0.64239  0.70150  0.87729  Biso   1.000  H
  C1502    1.0000 0.67687  0.70736  0.90061  Biso   1.000  C
  C1503    1.0000 0.75405  0.90873  0.69028  Biso   1.000  C
  H1162    1.0000 0.78109  0.88190  0.67169  Biso   1.000  H
  H1163    1.0000 0.70150  0.87729  0.64239  Biso   1.000  H
  C1504    1.0000 0.70736  0.90061  0.67687  Biso   1.000  C
  H1164    1.0000 0.88029  0.73389  0.69659  Biso   1.000  H
  C1505    1.0000 0.88977  0.75725  0.66172  Biso   1.000  C
  C1506    1.0000 0.93606  0.76031  0.65140  Biso   1.000  C
  H1165    1.0000 0.96418  0.74110  0.67748  Biso   1.000  H
  H1166    1.0000 0.94489  0.76708  0.73539  Biso   1.000  H
  C1507    1.0000 0.98081  0.76078  0.75835  Biso   1.000  C
  C1508    1.0000 0.99573  0.71379  0.76012  Biso   1.000  C
  H1167    1.0000 0.96820  0.68540  0.73979  Biso   1.000  H
  C1509    1.0000 0.69627  0.72653  0.91214  Biso   1.000  C
  H1168    1.0000 0.69978  0.76780  0.91990  Biso   1.000  H
  H1169    1.0000 0.67960  0.68770  0.90399  Biso   1.000  H
  C1510    1.0000 0.72653  0.91214  0.69627  Biso   1.000  C
  H1170    1.0000 0.76780  0.91990  0.69978  Biso   1.000  H
  H1171    1.0000 0.68770  0.90399  0.67960  Biso   1.000  H
  H1172    1.0000 0.87058  0.76190  0.65789  Biso   1.000  H
  C1511    1.0000 0.90900  0.76643  0.64421  Biso   1.000  C
  H1173    1.0000 0.95039  0.76740  0.63919  Biso   1.000  H
  H1174    1.0000 0.98369  0.78010  0.76330  Biso   1.000  H
  C1512    1.0000 0.99924  0.74055  0.76768  Biso   1.000  C
  H1175    1.0000 0.00950  0.70019  0.76560  Biso   1.000  H
  N201     1.0000 0.71961  0.71872  0.92965  Biso   1.000  N
  N202     1.0000 0.71872  0.92965  0.71961  Biso   1.000  N
  C1513    1.0000 0.89963  0.78227  0.61767  Biso   1.000  C
  C1514    1.0000 0.02463  0.74952  0.78492  Biso   1.000  C
  C1515    1.0000 0.73584  0.69265  0.92295  Biso   1.000  C
  C1516    1.0000 0.72625  0.73471  0.95424  Biso   1.000  C
  C1517    1.0000 0.69265  0.92295  0.73584  Biso   1.000  C
  C1518    1.0000 0.73471  0.95424  0.72625  Biso   1.000  C
  N203     1.0000 0.91857  0.78902  0.60014  Biso   1.000  N
  H1176    1.0000 0.88029  0.78689  0.61450  Biso   1.000  H
  N204     1.0000 0.04248  0.73251  0.79304  Biso   1.000  N
  H1177    1.0000 0.02678  0.76890  0.78960  Biso   1.000  H
  C1519    1.0000 0.74117  0.68544  0.89536  Biso   1.000  C
  C1520    1.0000 0.74519  0.67414  0.94482  Biso   1.000  C
  C1521    1.0000 0.75314  0.74172  0.95792  Biso   1.000  C
  C1522    1.0000 0.70473  0.74390  0.97178  Biso   1.000  C
  C1523    1.0000 0.68544  0.89536  0.74117  Biso   1.000  C
  C1524    1.0000 0.67414  0.94482  0.74519  Biso   1.000  C
  C1525    1.0000 0.74172  0.95792  0.75314  Biso   1.000  C
  C1526    1.0000 0.74390  0.97178  0.70473  Biso   1.000  C
  C1527    1.0000 0.90319  0.80172  0.57483  Biso   1.000  C
  C1528    1.0000 0.06762  0.74246  0.80950  Biso   1.000  C
  H1178    1.0000 0.73389  0.69659  0.88029  Biso   1.000  H
  C1529    1.0000 0.75725  0.66172  0.88977  Biso   1.000  C
  C1530    1.0000 0.76031  0.65140  0.93606  Biso   1.000  C
  H1179    1.0000 0.74110  0.67748  0.96418  Biso   1.000  H
  H1180    1.0000 0.76708  0.73539  0.94489  Biso   1.000  H
  C1531    1.0000 0.76078  0.75835  0.98081  Biso   1.000  C
  C1532    1.0000 0.71379  0.76012  0.99573  Biso   1.000  C
  H1181    1.0000 0.68540  0.73979  0.96820  Biso   1.000  H
  H1182    1.0000 0.69659  0.88029  0.73389  Biso   1.000  H
  C1533    1.0000 0.66172  0.88977  0.75725  Biso   1.000  C
  C1534    1.0000 0.65140  0.93606  0.76031  Biso   1.000  C
  H1183    1.0000 0.67748  0.96418  0.74110  Biso   1.000  H
  H1184    1.0000 0.73539  0.94489  0.76708  Biso   1.000  H
  C1535    1.0000 0.75835  0.98081  0.76078  Biso   1.000  C
  C1536    1.0000 0.76012  0.99573  0.71379  Biso   1.000  C
  H1185    1.0000 0.73979  0.96820  0.68540  Biso   1.000  H
  C1537    1.0000 0.91747  0.83113  0.57005  Biso   1.000  C
  C1538    1.0000 0.90939  0.78367  0.55050  Biso   1.000  C
  H1186    1.0000 0.06279  0.76230  0.81530  Biso   1.000  H
  C1539    1.0000 0.07107  0.72703  0.83637  Biso   1.000  C
  C1540    1.0000 0.09351  0.74521  0.79249  Biso   1.000  C
  H1187    1.0000 0.76190  0.65789  0.87058  Biso   1.000  H
  C1541    1.0000 0.76643  0.64421  0.90900  Biso   1.000  C
  H1188    1.0000 0.76740  0.63919  0.95039  Biso   1.000  H
  H1189    1.0000 0.78010  0.76330  0.98369  Biso   1.000  H
  C1542    1.0000 0.74055  0.76768  0.99924  Biso   1.000  C
  H1190    1.0000 0.70019  0.76560  0.00950  Biso   1.000  H
  H1191    1.0000 0.65789  0.87058  0.76190  Biso   1.000  H
  C1543    1.0000 0.64421  0.90900  0.76643  Biso   1.000  C
  H1192    1.0000 0.63919  0.95039  0.76740  Biso   1.000  H
  H1193    1.0000 0.76330  0.98369  0.78010  Biso   1.000  H
  C1544    1.0000 0.76768  0.99924  0.74055  Biso   1.000  C
  H1194    1.0000 0.76560  0.00950  0.70019  Biso   1.000  H
  N205     1.0000 0.91774  0.85154  0.59364  Biso   1.000  N
  C1545    1.0000 0.90824  0.84714  0.54373  Biso   1.000  C
  C1546    1.0000 0.89915  0.80077  0.52238  Biso   1.000  C
  N206     1.0000 0.04506  0.72697  0.85222  Biso   1.000  N
  H1195    1.0000 0.07519  0.70689  0.83140  Biso   1.000  H
  C1547    1.0000 0.09546  0.73740  0.85296  Biso   1.000  C
  C1548    1.0000 0.11814  0.75748  0.81010  Biso   1.000  C
  H1196    1.0000 0.08979  0.75780  0.77620  Biso   1.000  H
  H1197    1.0000 0.09899  0.72640  0.78509  Biso   1.000  H
  C1549    1.0000 0.78227  0.61767  0.89963  Biso   1.000  C
  C1550    1.0000 0.74952  0.78492  0.02463  Biso   1.000  C
  C1551    1.0000 0.61767  0.89963  0.78227  Biso   1.000  C
  C1552    1.0000 0.78492  0.02463  0.74952  Biso   1.000  C
  C1553    1.0000 0.93621  0.86227  0.60348  Biso   1.000  C
  C1554    1.0000 0.91406  0.82571  0.51511  Biso   1.000  C
  C1555    1.0000 0.03571  0.70347  0.86030  Biso   1.000  C
  H1198    1.0000 0.09819  0.72500  0.86959  Biso   1.000  H
  H1199    1.0000 0.09119  0.75670  0.85998  Biso   1.000  H
  C1556    1.0000 0.12231  0.73818  0.83610  Biso   1.000  C
  H1200    1.0000 0.13570  0.75799  0.79859  Biso   1.000  H
  H1201    1.0000 0.11359  0.77699  0.81619  Biso   1.000  H
  N207     1.0000 0.78902  0.60014  0.91857  Biso   1.000  N
  H1202    1.0000 0.78689  0.61450  0.88029  Biso   1.000  H
  N208     1.0000 0.73251  0.79304  0.04248  Biso   1.000  N
  H1203    1.0000 0.76890  0.78960  0.02678  Biso   1.000  H
  N209     1.0000 0.60014  0.91857  0.78902  Biso   1.000  N
  H1204    1.0000 0.61450  0.88029  0.78689  Biso   1.000  H
  N210     1.0000 0.79304  0.04248  0.73251  Biso   1.000  N
  H1205    1.0000 0.78960  0.02678  0.76890  Biso   1.000  H
  C1557    1.0000 0.93759  0.88338  0.62798  Biso   1.000  C
  C1558    1.0000 0.00897  0.70048  0.87932  Biso   1.000  C
  H1206    1.0000 0.04538  0.68679  0.85459  Biso   1.000  H
  H1207    1.0000 0.12739  0.71889  0.82990  Biso   1.000  H
  H1208    1.0000 0.13790  0.74559  0.84799  Biso   1.000  H
  C1559    1.0000 0.80172  0.57483  0.90319  Biso   1.000  C
  C1560    1.0000 0.74246  0.80950  0.06762  Biso   1.000  C
  C1561    1.0000 0.57483  0.90319  0.80172  Biso   1.000  C
  C1562    1.0000 0.80950  0.06762  0.74246  Biso   1.000  C
  C1563    1.0000 0.96162  0.89597  0.63672  Biso   1.000  C
  C1564    1.0000 0.91125  0.89328  0.63925  Biso   1.000  C
  C1565    1.0000 0.99894  0.67480  0.88946  Biso   1.000  C
  C1566    1.0000 0.99535  0.72445  0.88806  Biso   1.000  C
  C1567    1.0000 0.78367  0.55050  0.90939  Biso   1.000  C
  C1568    1.0000 0.83113  0.57005  0.91747  Biso   1.000  C
  H1209    1.0000 0.76230  0.81530  0.06279  Biso   1.000  H
  C1569    1.0000 0.72703  0.83637  0.07107  Biso   1.000  C
  C1570    1.0000 0.74521  0.79249  0.09351  Biso   1.000  C
  C1571    1.0000 0.57005  0.91747  0.83113  Biso   1.000  C
  C1572    1.0000 0.55050  0.90939  0.78367  Biso   1.000  C
  H1210    1.0000 0.81530  0.06279  0.76230  Biso   1.000  H
  C1573    1.0000 0.83637  0.07107  0.72703  Biso   1.000  C
  C1574    1.0000 0.79249  0.09351  0.74521  Biso   1.000  C
  C1575    1.0000 0.96306  0.91442  0.66047  Biso   1.000  C
  C1576    1.0000 0.91260  0.91279  0.66102  Biso   1.000  C
  C1577    1.0000 0.97664  0.67313  0.90596  Biso   1.000  C
  H1211    1.0000 0.00848  0.65789  0.88429  Biso   1.000  H
  C1578    1.0000 0.97370  0.72206  0.90507  Biso   1.000  C
  H1212    1.0000 0.00148  0.74258  0.88190  Biso   1.000  H
  C1579    1.0000 0.80077  0.52238  0.89915  Biso   1.000  C
  N211     1.0000 0.85154  0.59364  0.91774  Biso   1.000  N
  C1580    1.0000 0.84714  0.54373  0.90824  Biso   1.000  C
  N212     1.0000 0.72697  0.85222  0.04506  Biso   1.000  N
  H1213    1.0000 0.70689  0.83140  0.07519  Biso   1.000  H
  C1581    1.0000 0.73740  0.85296  0.09546  Biso   1.000  C
  C1582    1.0000 0.75748  0.81010  0.11814  Biso   1.000  C
  H1214    1.0000 0.75780  0.77620  0.08979  Biso   1.000  H
  H1215    1.0000 0.72640  0.78509  0.09899  Biso   1.000  H
  N213     1.0000 0.59364  0.91774  0.85154  Biso   1.000  N
  C1583    1.0000 0.54373  0.90824  0.84714  Biso   1.000  C
  C1584    1.0000 0.52238  0.89915  0.80077  Biso   1.000  C
  N214     1.0000 0.85222  0.04506  0.72697  Biso   1.000  N
  H1216    1.0000 0.83140  0.07519  0.70689  Biso   1.000  H
  C1585    1.0000 0.85296  0.09546  0.73740  Biso   1.000  C
  C1586    1.0000 0.81010  0.11814  0.75748  Biso   1.000  C
  H1217    1.0000 0.77620  0.08979  0.75780  Biso   1.000  H
  H1218    1.0000 0.78509  0.09899  0.72640  Biso   1.000  H
  C1587    1.0000 0.93628  0.92373  0.67044  Biso   1.000  C
  C1588    1.0000 0.96456  0.69644  0.91548  Biso   1.000  C
  H1219    1.0000 0.96920  0.65519  0.91110  Biso   1.000  H
  H1220    1.0000 0.96389  0.73869  0.91049  Biso   1.000  H
  C1589    1.0000 0.82571  0.51511  0.91406  Biso   1.000  C
  C1590    1.0000 0.86227  0.60348  0.93621  Biso   1.000  C
  C1591    1.0000 0.70347  0.86030  0.03571  Biso   1.000  C
  H1221    1.0000 0.72500  0.86959  0.09819  Biso   1.000  H
  H1222    1.0000 0.75670  0.85998  0.09119  Biso   1.000  H
  C1592    1.0000 0.73818  0.83610  0.12231  Biso   1.000  C
  H1223    1.0000 0.75799  0.79859  0.13570  Biso   1.000  H
  H1224    1.0000 0.77699  0.81619  0.11359  Biso   1.000  H
  C1593    1.0000 0.60348  0.93621  0.86227  Biso   1.000  C
  C1594    1.0000 0.51511  0.91406  0.82571  Biso   1.000  C
  C1595    1.0000 0.86030  0.03571  0.70347  Biso   1.000  C
  H1225    1.0000 0.86959  0.09819  0.72500  Biso   1.000  H
  H1226    1.0000 0.85998  0.09119  0.75670  Biso   1.000  H
  C1596    1.0000 0.83610  0.12231  0.73818  Biso   1.000  C
  H1227    1.0000 0.79859  0.13570  0.75799  Biso   1.000  H
  H1228    1.0000 0.81619  0.11359  0.77699  Biso   1.000  H
  N215     1.0000 0.93566  0.94231  0.69411  Biso   1.000  N
  N216     1.0000 0.94231  0.69411  0.93566  Biso   1.000  N
  C1597    1.0000 0.88338  0.62798  0.93759  Biso   1.000  C
  C1598    1.0000 0.70048  0.87932  0.00897  Biso   1.000  C
  H1229    1.0000 0.68679  0.85459  0.04538  Biso   1.000  H
  H1230    1.0000 0.71889  0.82990  0.12739  Biso   1.000  H
  H1231    1.0000 0.74559  0.84799  0.13790  Biso   1.000  H
  C1599    1.0000 0.62798  0.93759  0.88338  Biso   1.000  C
  C1600    1.0000 0.87932  0.00897  0.70048  Biso   1.000  C
  H1232    1.0000 0.85459  0.04538  0.68679  Biso   1.000  H
  H1233    1.0000 0.82990  0.12739  0.71889  Biso   1.000  H
  H1234    1.0000 0.84799  0.13790  0.74559  Biso   1.000  H
  C1601    1.0000 0.91548  0.96456  0.69644  Biso   1.000  C
  C1602    1.0000 0.95965  0.94178  0.71618  Biso   1.000  C
  C1603    1.0000 0.92373  0.67044  0.93628  Biso   1.000  C
  C1604    1.0000 0.94178  0.71618  0.95965  Biso   1.000  C
  C1605    1.0000 0.89597  0.63672  0.96162  Biso   1.000  C
  C1606    1.0000 0.89328  0.63925  0.91125  Biso   1.000  C
  C1607    1.0000 0.67480  0.88946  0.99894  Biso   1.000  C
  C1608    1.0000 0.72445  0.88806  0.99535  Biso   1.000  C
  C1609    1.0000 0.63672  0.96162  0.89597  Biso   1.000  C
  C1610    1.0000 0.63925  0.91125  0.89328  Biso   1.000  C
  C1611    1.0000 0.88946  0.99894  0.67480  Biso   1.000  C
  C1612    1.0000 0.88806  0.99535  0.72445  Biso   1.000  C
  C1613    1.0000 0.90596  0.97664  0.67313  Biso   1.000  C
  C1614    1.0000 0.90507  0.97370  0.72206  Biso   1.000  C
  C1615    1.0000 0.97040  0.96355  0.72585  Biso   1.000  C
  C1616    1.0000 0.96831  0.91567  0.72557  Biso   1.000  C
  C1617    1.0000 0.91442  0.66047  0.96306  Biso   1.000  C
  C1618    1.0000 0.91279  0.66102  0.91260  Biso   1.000  C
  C1619    1.0000 0.96355  0.72585  0.97040  Biso   1.000  C
  C1620    1.0000 0.91567  0.72557  0.96831  Biso   1.000  C
  C1621    1.0000 0.67313  0.90596  0.97664  Biso   1.000  C
  H1235    1.0000 0.65789  0.88429  0.00848  Biso   1.000  H
  C1622    1.0000 0.72206  0.90507  0.97370  Biso   1.000  C
  H1236    1.0000 0.74258  0.88190  0.00148  Biso   1.000  H
  C1623    1.0000 0.66047  0.96306  0.91442  Biso   1.000  C
  C1624    1.0000 0.66102  0.91260  0.91279  Biso   1.000  C
  H1237    1.0000 0.88429  0.00848  0.65789  Biso   1.000  H
  H1238    1.0000 0.88190  0.00148  0.74258  Biso   1.000  H
  H1239    1.0000 0.91110  0.96920  0.65519  Biso   1.000  H
  H1240    1.0000 0.91049  0.96389  0.73869  Biso   1.000  H
  C1625    1.0000 0.99295  0.96230  0.74580  Biso   1.000  C
  C1626    1.0000 0.98866  0.91296  0.74633  Biso   1.000  C
  C1627    1.0000 0.96230  0.74580  0.99295  Biso   1.000  C
  C1628    1.0000 0.91296  0.74633  0.98866  Biso   1.000  C
  C1629    1.0000 0.69644  0.91548  0.96456  Biso   1.000  C
  H1241    1.0000 0.65519  0.91110  0.96920  Biso   1.000  H
  H1242    1.0000 0.73869  0.91049  0.96389  Biso   1.000  H
  C1630    1.0000 0.67044  0.93628  0.92373  Biso   1.000  C
  C1631    1.0000 0.00036  0.93619  0.75496  Biso   1.000  C
  C1632    1.0000 0.93619  0.75496  0.00036  Biso   1.000  C
  N217     1.0000 0.69411  0.93566  0.94231  Biso   1.000  N
  C1633    1.0000 0.02490  0.93458  0.77491  Biso   1.000  C
  C1634    1.0000 0.93458  0.77491  0.02490  Biso   1.000  C
  C1635    1.0000 0.71618  0.95965  0.94178  Biso   1.000  C
  N218     1.0000 0.03635  0.91262  0.78352  Biso   1.000  N
  N219     1.0000 0.91262  0.78352  0.03635  Biso   1.000  N
  C1636    1.0000 0.72585  0.97040  0.96355  Biso   1.000  C
  C1637    1.0000 0.72557  0.96831  0.91567  Biso   1.000  C
  C1638    1.0000 0.05852  0.91266  0.80303  Biso   1.000  C
  C1639    1.0000 0.91266  0.80303  0.05852  Biso   1.000  C
  C1640    1.0000 0.74580  0.99295  0.96230  Biso   1.000  C
  C1641    1.0000 0.74633  0.98866  0.91296  Biso   1.000  C
  C1642    1.0000 0.05395  0.89422  0.82821  Biso   1.000  C
  C1643    1.0000 0.08780  0.90583  0.78837  Biso   1.000  C
  C1644    1.0000 0.89422  0.82821  0.05395  Biso   1.000  C
  C1645    1.0000 0.90583  0.78837  0.08780  Biso   1.000  C
  C1646    1.0000 0.75496  0.00036  0.93619  Biso   1.000  C
  N220     1.0000 0.02964  0.90496  0.84386  Biso   1.000  N
  C1647    1.0000 0.07968  0.89678  0.84941  Biso   1.000  C
  C1648    1.0000 0.11186  0.90773  0.80722  Biso   1.000  C
  N221     1.0000 0.90496  0.84386  0.02964  Biso   1.000  N
  C1649    1.0000 0.89678  0.84941  0.07968  Biso   1.000  C
  C1650    1.0000 0.90773  0.80722  0.11186  Biso   1.000  C
  C1651    1.0000 0.77491  0.02490  0.93458  Biso   1.000  C
  C1652    1.0000 0.01123  0.88895  0.84807  Biso   1.000  C
  C1653    1.0000 0.10644  0.88709  0.83574  Biso   1.000  C
  C1654    1.0000 0.88895  0.84807  0.01123  Biso   1.000  C
  C1655    1.0000 0.88709  0.83574  0.10644  Biso   1.000  C
  N222     1.0000 0.78352  0.03635  0.91262  Biso   1.000  N
  C1656    1.0000 0.98460  0.89293  0.86261  Biso   1.000  C
  H1243    1.0000 0.01428  0.87039  0.84079  Biso   1.000  H
  C1657    1.0000 0.89293  0.86261  0.98460  Biso   1.000  C
  H1244    1.0000 0.87039  0.84079  0.01428  Biso   1.000  H
  C1658    1.0000 0.80303  0.05852  0.91266  Biso   1.000  C
  C1659    1.0000 0.97573  0.92066  0.86881  Biso   1.000  C
  C1660    1.0000 0.96592  0.87240  0.87365  Biso   1.000  C
  C1661    1.0000 0.92066  0.86881  0.97573  Biso   1.000  C
  C1662    1.0000 0.87240  0.87365  0.96592  Biso   1.000  C
  C1663    1.0000 0.82821  0.05395  0.89422  Biso   1.000  C
  C1664    1.0000 0.78837  0.08780  0.90583  Biso   1.000  C
  C1665    1.0000 0.95039  0.92502  0.88324  Biso   1.000  C
  C1666    1.0000 0.94216  0.87570  0.88694  Biso   1.000  C
  C1667    1.0000 0.92502  0.88324  0.95039  Biso   1.000  C
  C1668    1.0000 0.87570  0.88694  0.94216  Biso   1.000  C
  N223     1.0000 0.84386  0.02964  0.90496  Biso   1.000  N
  C1669    1.0000 0.84941  0.07968  0.89678  Biso   1.000  C
  C1670    1.0000 0.80722  0.11186  0.90773  Biso   1.000  C
  C1671    1.0000 0.93448  0.90410  0.89307  Biso   1.000  C
  C1672    1.0000 0.90410  0.89307  0.93448  Biso   1.000  C
  C1673    1.0000 0.84807  0.01123  0.88895  Biso   1.000  C
  C1674    1.0000 0.83574  0.10644  0.88709  Biso   1.000  C
  N224     1.0000 0.90962  0.90962  0.90962  Biso   1.000  N
  C1675    1.0000 0.86261  0.98460  0.89293  Biso   1.000  C
  H1245    1.0000 0.84079  0.01428  0.87039  Biso   1.000  H
  C1676    1.0000 0.89307  0.93448  0.90410  Biso   1.000  C
  C1677    1.0000 0.86881  0.97573  0.92066  Biso   1.000  C
  C1678    1.0000 0.87365  0.96592  0.87240  Biso   1.000  C
  C1679    1.0000 0.88324  0.95039  0.92502  Biso   1.000  C
  C1680    1.0000 0.88694  0.94216  0.87570  Biso   1.000  C
  C1681    1.0000 0.32736  0.29484  0.25739  Biso   1.000  C
  C1682    1.0000 0.30701  0.27538  0.26852  Biso   1.000  C
  C1683    1.0000 0.34913  0.28500  0.24189  Biso   1.000  C
  C1684    1.0000 0.31251  0.24864  0.26268  Biso   1.000  C
  N225     1.0000 0.28528  0.28528  0.28528  Biso   1.000  N
  C1685    1.0000 0.35389  0.25835  0.23522  Biso   1.000  C
  C1686    1.0000 0.33419  0.24043  0.24500  Biso   1.000  C
  H1246    1.0000 0.30100  0.23440  0.27100  Biso   1.000  H
  C1687    1.0000 0.26852  0.30701  0.27538  Biso   1.000  C
  C1688    1.0000 0.27538  0.26852  0.30701  Biso   1.000  C
  C1689    1.0000 0.37867  0.24796  0.21935  Biso   1.000  C
  C1690    1.0000 0.25739  0.32736  0.29484  Biso   1.000  C
  C1691    1.0000 0.26268  0.31251  0.24864  Biso   1.000  C
  C1692    1.0000 0.29484  0.25739  0.32736  Biso   1.000  C
  C1693    1.0000 0.24864  0.26268  0.31251  Biso   1.000  C
  N226     1.0000 0.39929  0.26309  0.21189  Biso   1.000  N
  H1247    1.0000 0.37909  0.22849  0.21440  Biso   1.000  H
  C1694    1.0000 0.24189  0.34913  0.28500  Biso   1.000  C
  C1695    1.0000 0.24500  0.33419  0.24043  Biso   1.000  C
  H1248    1.0000 0.27100  0.30100  0.23440  Biso   1.000  H
  C1696    1.0000 0.28500  0.24189  0.34913  Biso   1.000  C
  C1697    1.0000 0.24043  0.24500  0.33419  Biso   1.000  C
  H1249    1.0000 0.23440  0.27100  0.30100  Biso   1.000  H
  C1698    1.0000 0.42265  0.25073  0.19339  Biso   1.000  C
  C1699    1.0000 0.23522  0.35389  0.25835  Biso   1.000  C
  C1700    1.0000 0.25835  0.23522  0.35389  Biso   1.000  C
  H1250    1.0000 0.41639  0.23110  0.18851  Biso   1.000  H
  C1701    1.0000 0.42678  0.26455  0.16737  Biso   1.000  C
  C1702    1.0000 0.44886  0.24707  0.21332  Biso   1.000  C
  C1703    1.0000 0.21935  0.37867  0.24796  Biso   1.000  C
  C1704    1.0000 0.24796  0.21935  0.37867  Biso   1.000  C
  N227     1.0000 0.40236  0.26256  0.14990  Biso   1.000  N
  H1251    1.0000 0.43039  0.28500  0.17131  Biso   1.000  H
  C1705    1.0000 0.45054  0.25369  0.15220  Biso   1.000  C
  C1706    1.0000 0.47391  0.23334  0.19526  Biso   1.000  C
  H1252    1.0000 0.44400  0.23461  0.22940  Biso   1.000  H
  H1253    1.0000 0.45479  0.26569  0.22090  Biso   1.000  H
  N228     1.0000 0.21189  0.39929  0.26309  Biso   1.000  N
  H1254    1.0000 0.21440  0.37909  0.22849  Biso   1.000  H
  N229     1.0000 0.26309  0.21189  0.39929  Biso   1.000  N
  H1255    1.0000 0.22849  0.21440  0.37909  Biso   1.000  H
  C1707    1.0000 0.39216  0.28242  0.14167  Biso   1.000  C
  H1256    1.0000 0.45369  0.26590  0.13549  Biso   1.000  H
  H1257    1.0000 0.44550  0.23461  0.14509  Biso   1.000  H
  C1708    1.0000 0.47956  0.25124  0.16881  Biso   1.000  C
  H1258    1.0000 0.49130  0.23230  0.20689  Biso   1.000  H
  H1259    1.0000 0.46869  0.21390  0.18961  Biso   1.000  H
  C1709    1.0000 0.19339  0.42265  0.25073  Biso   1.000  C
  C1710    1.0000 0.25073  0.19339  0.42265  Biso   1.000  C
  C1711    1.0000 0.36457  0.28625  0.12208  Biso   1.000  C
  H1260    1.0000 0.40120  0.29950  0.14710  Biso   1.000  H
  H1261    1.0000 0.49410  0.24210  0.15679  Biso   1.000  H
  H1262    1.0000 0.48640  0.27030  0.17429  Biso   1.000  H
  H1263    1.0000 0.18851  0.41639  0.23110  Biso   1.000  H
  C1712    1.0000 0.16737  0.42678  0.26455  Biso   1.000  C
  C1713    1.0000 0.21332  0.44886  0.24707  Biso   1.000  C
  H1264    1.0000 0.23110  0.18851  0.41639  Biso   1.000  H
  C1714    1.0000 0.26455  0.16737  0.42678  Biso   1.000  C
  C1715    1.0000 0.24707  0.21332  0.44886  Biso   1.000  C
  C1716    1.0000 0.35535  0.31283  0.11484  Biso   1.000  C
  C1717    1.0000 0.35402  0.26167  0.11433  Biso   1.000  C
  N230     1.0000 0.14990  0.40236  0.26256  Biso   1.000  N
  H1265    1.0000 0.17131  0.43039  0.28500  Biso   1.000  H
  C1718    1.0000 0.15220  0.45054  0.25369  Biso   1.000  C
  C1719    1.0000 0.19526  0.47391  0.23334  Biso   1.000  C
  H1266    1.0000 0.22940  0.44400  0.23461  Biso   1.000  H
  H1267    1.0000 0.22090  0.45479  0.26569  Biso   1.000  H
  N231     1.0000 0.26256  0.14990  0.40236  Biso   1.000  N
  H1268    1.0000 0.28500  0.17131  0.43039  Biso   1.000  H
  C1720    1.0000 0.25369  0.15220  0.45054  Biso   1.000  C
  C1721    1.0000 0.23334  0.19526  0.47391  Biso   1.000  C
  H1269    1.0000 0.23461  0.22940  0.44400  Biso   1.000  H
  H1270    1.0000 0.26569  0.22090  0.45479  Biso   1.000  H
  C1722    1.0000 0.33041  0.31484  0.09540  Biso   1.000  C
  H1271    1.0000 0.36441  0.32931  0.12191  Biso   1.000  H
  H1272    1.0000 0.36210  0.24400  0.11979  Biso   1.000  H
  C1723    1.0000 0.32935  0.26395  0.09700  Biso   1.000  C
  C1724    1.0000 0.14167  0.39216  0.28242  Biso   1.000  C
  H1273    1.0000 0.13549  0.45369  0.26590  Biso   1.000  H
  H1274    1.0000 0.14509  0.44550  0.23461  Biso   1.000  H
  C1725    1.0000 0.16881  0.47956  0.25124  Biso   1.000  C
  H1275    1.0000 0.20689  0.49130  0.23230  Biso   1.000  H
  H1276    1.0000 0.18961  0.46869  0.21390  Biso   1.000  H
  C1726    1.0000 0.28242  0.14167  0.39216  Biso   1.000  C
  H1277    1.0000 0.26590  0.13549  0.45369  Biso   1.000  H
  H1278    1.0000 0.23461  0.14509  0.44550  Biso   1.000  H
  C1727    1.0000 0.25124  0.16881  0.47956  Biso   1.000  C
  H1279    1.0000 0.23230  0.20689  0.49130  Biso   1.000  H
  H1280    1.0000 0.21390  0.18961  0.46869  Biso   1.000  H
  C1728    1.0000 0.31892  0.28674  0.08672  Biso   1.000  C
  H1281    1.0000 0.32271  0.33229  0.08920  Biso   1.000  H
  H1282    1.0000 0.31970  0.24690  0.09271  Biso   1.000  H
  C1729    1.0000 0.12208  0.36457  0.28625  Biso   1.000  C
  H1283    1.0000 0.14710  0.40120  0.29950  Biso   1.000  H
  H1284    1.0000 0.15679  0.49410  0.24210  Biso   1.000  H
  H1285    1.0000 0.17429  0.48640  0.27030  Biso   1.000  H
  C1730    1.0000 0.28625  0.12208  0.36457  Biso   1.000  C
  H1286    1.0000 0.29950  0.14710  0.40120  Biso   1.000  H
  H1287    1.0000 0.24210  0.15679  0.49410  Biso   1.000  H
  H1288    1.0000 0.27030  0.17429  0.48640  Biso   1.000  H
  N232     1.0000 0.29683  0.28890  0.06705  Biso   1.000  N
  C1731    1.0000 0.11484  0.35535  0.31283  Biso   1.000  C
  C1732    1.0000 0.11433  0.35402  0.26167  Biso   1.000  C
  C1733    1.0000 0.31283  0.11484  0.35535  Biso   1.000  C
  C1734    1.0000 0.26167  0.11433  0.35402  Biso   1.000  C
  C1735    1.0000 0.27559  0.31272  0.06912  Biso   1.000  C
  C1736    1.0000 0.29501  0.27144  0.04314  Biso   1.000  C
  C1737    1.0000 0.09540  0.33041  0.31484  Biso   1.000  C
  H1289    1.0000 0.12191  0.36441  0.32931  Biso   1.000  H
  H1290    1.0000 0.11979  0.36210  0.24400  Biso   1.000  H
  C1738    1.0000 0.09700  0.32935  0.26395  Biso   1.000  C
  C1739    1.0000 0.31484  0.09540  0.33041  Biso   1.000  C
  H1291    1.0000 0.32931  0.12191  0.36441  Biso   1.000  H
  H1292    1.0000 0.24400  0.11979  0.36210  Biso   1.000  H
  C1740    1.0000 0.26395  0.09700  0.32935  Biso   1.000  C
  C1741    1.0000 0.26865  0.32510  0.04589  Biso   1.000  C
  C1742    1.0000 0.26550  0.32023  0.09229  Biso   1.000  C
  C1743    1.0000 0.31976  0.26019  0.03235  Biso   1.000  C
  C1744    1.0000 0.26888  0.26224  0.03296  Biso   1.000  C
  C1745    1.0000 0.08672  0.31892  0.28674  Biso   1.000  C
  H1293    1.0000 0.08920  0.32271  0.33229  Biso   1.000  H
  H1294    1.0000 0.09271  0.31970  0.24690  Biso   1.000  H
  C1746    1.0000 0.28674  0.08672  0.31892  Biso   1.000  C
  H1295    1.0000 0.33229  0.08920  0.32271  Biso   1.000  H
  H1296    1.0000 0.24690  0.09271  0.31970  Biso   1.000  H
  H1297    1.0000 0.27650  0.31830  0.02871  Biso   1.000  H
  C1747    1.0000 0.25014  0.34803  0.04473  Biso   1.000  C
  C1748    1.0000 0.24747  0.34039  0.09512  Biso   1.000  C
  H1298    1.0000 0.27151  0.31050  0.10879  Biso   1.000  H
  H1299    1.0000 0.33771  0.26370  0.04079  Biso   1.000  H
  C1749    1.0000 0.31646  0.24235  0.00690  Biso   1.000  C
  C1750    1.0000 0.26812  0.24423  0.01075  Biso   1.000  C
  H1300    1.0000 0.25179  0.26850  0.04151  Biso   1.000  H
  N233     1.0000 0.06705  0.29683  0.28890  Biso   1.000  N
  N234     1.0000 0.28890  0.06705  0.29683  Biso   1.000  N
  H1301    1.0000 0.24569  0.35789  0.02780  Biso   1.000  H
  C1751    1.0000 0.23861  0.35505  0.07168  Biso   1.000  C
  H1302    1.0000 0.24030  0.34509  0.11329  Biso   1.000  H
  H1303    1.0000 0.33280  0.23620  0.99689  Biso   1.000  H
  C1752    1.0000 0.29008  0.23454  0.99763  Biso   1.000  C
  H1304    1.0000 0.25010  0.23821  0.00429  Biso   1.000  H
  C1753    1.0000 0.06912  0.27559  0.31272  Biso   1.000  C
  C1754    1.0000 0.04314  0.29501  0.27144  Biso   1.000  C
  C1755    1.0000 0.31272  0.06912  0.27559  Biso   1.000  C
  C1756    1.0000 0.27144  0.04314  0.29501  Biso   1.000  C
  C1757    1.0000 0.21734  0.38154  0.07212  Biso   1.000  C
  C1758    1.0000 0.28983  0.21627  0.97214  Biso   1.000  C
  C1759    1.0000 0.04589  0.26865  0.32510  Biso   1.000  C
  C1760    1.0000 0.09229  0.26550  0.32023  Biso   1.000  C
  C1761    1.0000 0.03235  0.31976  0.26019  Biso   1.000  C
  C1762    1.0000 0.03296  0.26888  0.26224  Biso   1.000  C
  C1763    1.0000 0.32510  0.04589  0.26865  Biso   1.000  C
  C1764    1.0000 0.32023  0.09229  0.26550  Biso   1.000  C
  C1765    1.0000 0.26019  0.03235  0.31976  Biso   1.000  C
  C1766    1.0000 0.26224  0.03296  0.26888  Biso   1.000  C
  N235     1.0000 0.20933  0.39163  0.09538  Biso   1.000  N
  H1305    1.0000 0.21089  0.38960  0.05490  Biso   1.000  H
  N236     1.0000 0.26696  0.20954  0.96046  Biso   1.000  N
  H1306    1.0000 0.30720  0.20950  0.96460  Biso   1.000  H
  H1307    1.0000 0.02871  0.27650  0.31830  Biso   1.000  H
  C1767    1.0000 0.04473  0.25014  0.34803  Biso   1.000  C
  C1768    1.0000 0.09512  0.24747  0.34039  Biso   1.000  C
  H1308    1.0000 0.10879  0.27151  0.31050  Biso   1.000  H
  H1309    1.0000 0.04079  0.33771  0.26370  Biso   1.000  H
  C1769    1.0000 0.00690  0.31646  0.24235  Biso   1.000  C
  C1770    1.0000 0.01075  0.26812  0.24423  Biso   1.000  C
  H1310    1.0000 0.04151  0.25179  0.26850  Biso   1.000  H
  H1311    1.0000 0.31830  0.02871  0.27650  Biso   1.000  H
  C1771    1.0000 0.34803  0.04473  0.25014  Biso   1.000  C
  C1772    1.0000 0.34039  0.09512  0.24747  Biso   1.000  C
  H1312    1.0000 0.31050  0.10879  0.27151  Biso   1.000  H
  H1313    1.0000 0.26370  0.04079  0.33771  Biso   1.000  H
  C1773    1.0000 0.24235  0.00690  0.31646  Biso   1.000  C
  C1774    1.0000 0.24423  0.01075  0.26812  Biso   1.000  C
  H1314    1.0000 0.26850  0.04151  0.25179  Biso   1.000  H
  C1775    1.0000 0.19168  0.41582  0.09478  Biso   1.000  C
  C1776    1.0000 0.26730  0.19090  0.93539  Biso   1.000  C
  H1315    1.0000 0.02780  0.24569  0.35789  Biso   1.000  H
  C1777    1.0000 0.07168  0.23861  0.35505  Biso   1.000  C
  H1316    1.0000 0.11329  0.24030  0.34509  Biso   1.000  H
  H1317    1.0000 0.99689  0.33280  0.23620  Biso   1.000  H
  C1778    1.0000 0.99763  0.29008  0.23454  Biso   1.000  C
  H1318    1.0000 0.00429  0.25010  0.23821  Biso   1.000  H
  H1319    1.0000 0.35789  0.02780  0.24569  Biso   1.000  H
  C1779    1.0000 0.35505  0.07168  0.23861  Biso   1.000  C
  H1320    1.0000 0.34509  0.11329  0.24030  Biso   1.000  H
  H1321    1.0000 0.23620  0.99689  0.33280  Biso   1.000  H
  C1780    1.0000 0.23454  0.99763  0.29008  Biso   1.000  C
  H1322    1.0000 0.23821  0.00429  0.25010  Biso   1.000  H
  H1323    1.0000 0.18819  0.42009  0.07441  Biso   1.000  H
  C1781    1.0000 0.20651  0.44116  0.10661  Biso   1.000  C
  C1782    1.0000 0.16299  0.40833  0.10735  Biso   1.000  C
  H1324    1.0000 0.28729  0.18529  0.93120  Biso   1.000  H
  C1783    1.0000 0.25071  0.16625  0.93886  Biso   1.000  C
  C1784    1.0000 0.25536  0.20969  0.90936  Biso   1.000  C
  C1785    1.0000 0.07212  0.21734  0.38154  Biso   1.000  C
  C1786    1.0000 0.97214  0.28983  0.21627  Biso   1.000  C
  C1787    1.0000 0.38154  0.07212  0.21734  Biso   1.000  C
  C1788    1.0000 0.21627  0.97214  0.28983  Biso   1.000  C
  H1325    1.0000 0.21529  0.43649  0.12510  Biso   1.000  H
  H1326    1.0000 0.22149  0.44759  0.09349  Biso   1.000  H
  C1789    1.0000 0.18595  0.46249  0.11002  Biso   1.000  C
  N237     1.0000 0.14706  0.38501  0.09229  Biso   1.000  N
  H1327    1.0000 0.16629  0.40190  0.12720  Biso   1.000  H
  C1790    1.0000 0.14423  0.43420  0.10870  Biso   1.000  C
  N238     1.0000 0.26247  0.14958  0.96266  Biso   1.000  N
  H1328    1.0000 0.23059  0.17150  0.94290  Biso   1.000  H
  C1791    1.0000 0.25230  0.14634  0.91074  Biso   1.000  C
  C1792    1.0000 0.25775  0.19158  0.88237  Biso   1.000  C
  H1329    1.0000 0.23539  0.21500  0.91279  Biso   1.000  H
  H1330    1.0000 0.26660  0.22720  0.90729  Biso   1.000  H
  N239     1.0000 0.09538  0.20933  0.39163  Biso   1.000  N
  H1331    1.0000 0.05490  0.21089  0.38960  Biso   1.000  H
  N240     1.0000 0.96046  0.26696  0.20954  Biso   1.000  N
  H1332    1.0000 0.96460  0.30720  0.20950  Biso   1.000  H
  N241     1.0000 0.39163  0.09538  0.20933  Biso   1.000  N
  H1333    1.0000 0.38960  0.05490  0.21089  Biso   1.000  H
  N242     1.0000 0.20954  0.96046  0.26696  Biso   1.000  N
  H1334    1.0000 0.20950  0.96460  0.30720  Biso   1.000  H
  H1335    1.0000 0.19549  0.47749  0.12110  Biso   1.000  H
  H1336    1.0000 0.18320  0.47040  0.09081  Biso   1.000  H
  C1793    1.0000 0.15861  0.46054  0.12161  Biso   1.000  C
  C1794    1.0000 0.14078  0.36481  0.10701  Biso   1.000  C
  H1337    1.0000 0.12720  0.42959  0.12011  Biso   1.000  H
  H1338    1.0000 0.13779  0.43890  0.08930  Biso   1.000  H
  C1795    1.0000 0.24392  0.14143  0.98007  Biso   1.000  C
  H1339    1.0000 0.27170  0.13879  0.90831  Biso   1.000  H
  H1340    1.0000 0.23899  0.13020  0.91250  Biso   1.000  H
  C1796    1.0000 0.24421  0.16473  0.88546  Biso   1.000  C
  H1341    1.0000 0.24900  0.20190  0.86639  Biso   1.000  H
  H1342    1.0000 0.27800  0.18859  0.87780  Biso   1.000  H
  C1797    1.0000 0.09478  0.19168  0.41582  Biso   1.000  C
  C1798    1.0000 0.93539  0.26730  0.19090  Biso   1.000  C
  C1799    1.0000 0.41582  0.09478  0.19168  Biso   1.000  C
  C1800    1.0000 0.19090  0.93539  0.26730  Biso   1.000  C
  H1343    1.0000 0.14759  0.47781  0.11710  Biso   1.000  H
  H1344    1.0000 0.15969  0.45870  0.14241  Biso   1.000  H
  C1801    1.0000 0.12561  0.33910  0.09751  Biso   1.000  C
  H1345    1.0000 0.14611  0.36559  0.12639  Biso   1.000  H
  C1802    1.0000 0.25077  0.12267  0.00446  Biso   1.000  C
  H1346    1.0000 0.22490  0.14751  0.97751  Biso   1.000  H
  H1347    1.0000 0.24800  0.15370  0.86811  Biso   1.000  H
  H1348    1.0000 0.22361  0.16809  0.88630  Biso   1.000  H
  C1803    1.0000 0.10735  0.16299  0.40833  Biso   1.000  C
  H1349    1.0000 0.07441  0.18819  0.42009  Biso   1.000  H
  C1804    1.0000 0.10661  0.20651  0.44116  Biso   1.000  C
  H1350    1.0000 0.93120  0.28729  0.18529  Biso   1.000  H
  C1805    1.0000 0.93886  0.25071  0.16625  Biso   1.000  C
  C1806    1.0000 0.90936  0.25536  0.20969  Biso   1.000  C
  C1807    1.0000 0.40833  0.10735  0.16299  Biso   1.000  C
  H1351    1.0000 0.42009  0.07441  0.18819  Biso   1.000  H
  C1808    1.0000 0.44116  0.10661  0.20651  Biso   1.000  C
  H1352    1.0000 0.18529  0.93120  0.28729  Biso   1.000  H
  C1809    1.0000 0.16625  0.93886  0.25071  Biso   1.000  C
  C1810    1.0000 0.20969  0.90936  0.25536  Biso   1.000  C
  C1811    1.0000 0.11793  0.32061  0.11706  Biso   1.000  C
  C1812    1.0000 0.11903  0.33595  0.07138  Biso   1.000  C
  C1813    1.0000 0.22904  0.11234  0.02166  Biso   1.000  C
  C1814    1.0000 0.27713  0.11825  0.01299  Biso   1.000  C
  N243     1.0000 0.09229  0.14706  0.38501  Biso   1.000  N
  H1353    1.0000 0.12720  0.16629  0.40190  Biso   1.000  H
  C1815    1.0000 0.10870  0.14423  0.43420  Biso   1.000  C
  H1354    1.0000 0.12510  0.21529  0.43649  Biso   1.000  H
  H1355    1.0000 0.09349  0.22149  0.44759  Biso   1.000  H
  C1816    1.0000 0.11002  0.18595  0.46249  Biso   1.000  C
  N244     1.0000 0.96266  0.26247  0.14958  Biso   1.000  N
  H1356    1.0000 0.94290  0.23059  0.17150  Biso   1.000  H
  C1817    1.0000 0.91074  0.25230  0.14634  Biso   1.000  C
  C1818    1.0000 0.88237  0.25775  0.19158  Biso   1.000  C
  H1357    1.0000 0.91279  0.23539  0.21500  Biso   1.000  H
  H1358    1.0000 0.90729  0.26660  0.22720  Biso   1.000  H
  N245     1.0000 0.38501  0.09229  0.14706  Biso   1.000  N
  H1359    1.0000 0.40190  0.12720  0.16629  Biso   1.000  H
  C1819    1.0000 0.43420  0.10870  0.14423  Biso   1.000  C
  H1360    1.0000 0.43649  0.12510  0.21529  Biso   1.000  H
  H1361    1.0000 0.44759  0.09349  0.22149  Biso   1.000  H
  C1820    1.0000 0.46249  0.11002  0.18595  Biso   1.000  C
  N246     1.0000 0.14958  0.96266  0.26247  Biso   1.000  N
  H1362    1.0000 0.17150  0.94290  0.23059  Biso   1.000  H
  C1821    1.0000 0.14634  0.91074  0.25230  Biso   1.000  C
  C1822    1.0000 0.19158  0.88237  0.25775  Biso   1.000  C
  H1363    1.0000 0.21500  0.91279  0.23539  Biso   1.000  H
  H1364    1.0000 0.22720  0.90729  0.26660  Biso   1.000  H
  C1823    1.0000 0.10079  0.29732  0.10815  Biso   1.000  C
  H1365    1.0000 0.12360  0.32271  0.13621  Biso   1.000  H
  H1366    1.0000 0.12569  0.34960  0.05820  Biso   1.000  H
  C1824    1.0000 0.10227  0.31312  0.06095  Biso   1.000  C
  C1825    1.0000 0.23677  0.09413  0.04430  Biso   1.000  C
  H1367    1.0000 0.20990  0.11729  0.01830  Biso   1.000  H
  H1368    1.0000 0.29220  0.12650  0.00260  Biso   1.000  H
  C1826    1.0000 0.28348  0.10176  0.03692  Biso   1.000  C
  C1827    1.0000 0.10701  0.14078  0.36481  Biso   1.000  C
  C1828    1.0000 0.12161  0.15861  0.46054  Biso   1.000  C
  H1369    1.0000 0.12011  0.12720  0.42959  Biso   1.000  H
  H1370    1.0000 0.08930  0.13779  0.43890  Biso   1.000  H
  H1371    1.0000 0.12110  0.19549  0.47749  Biso   1.000  H
  H1372    1.0000 0.09081  0.18320  0.47040  Biso   1.000  H
  C1829    1.0000 0.98007  0.24392  0.14143  Biso   1.000  C
  H1373    1.0000 0.90831  0.27170  0.13879  Biso   1.000  H
  H1374    1.0000 0.91250  0.23899  0.13020  Biso   1.000  H
  C1830    1.0000 0.88546  0.24421  0.16473  Biso   1.000  C
  H1375    1.0000 0.86639  0.24900  0.20190  Biso   1.000  H
  H1376    1.0000 0.87780  0.27800  0.18859  Biso   1.000  H
  C1831    1.0000 0.36481  0.10701  0.14078  Biso   1.000  C
  H1377    1.0000 0.42959  0.12011  0.12720  Biso   1.000  H
  H1378    1.0000 0.43890  0.08930  0.13779  Biso   1.000  H
  C1832    1.0000 0.46054  0.12161  0.15861  Biso   1.000  C
  H1379    1.0000 0.47749  0.12110  0.19549  Biso   1.000  H
  H1380    1.0000 0.47040  0.09081  0.18320  Biso   1.000  H
  C1833    1.0000 0.14143  0.98007  0.24392  Biso   1.000  C
  H1381    1.0000 0.13879  0.90831  0.27170  Biso   1.000  H
  H1382    1.0000 0.13020  0.91250  0.23899  Biso   1.000  H
  C1834    1.0000 0.16473  0.88546  0.24421  Biso   1.000  C
  H1383    1.0000 0.20190  0.86639  0.24900  Biso   1.000  H
  H1384    1.0000 0.18859  0.87780  0.27800  Biso   1.000  H
  C1835    1.0000 0.09394  0.29404  0.08025  Biso   1.000  C
  H1385    1.0000 0.09411  0.28399  0.12169  Biso   1.000  H
  H1386    1.0000 0.09730  0.31149  0.04151  Biso   1.000  H
  C1836    1.0000 0.26283  0.08937  0.05162  Biso   1.000  C
  H1387    1.0000 0.22210  0.08501  0.05461  Biso   1.000  H
  H1388    1.0000 0.30261  0.09939  0.04261  Biso   1.000  H
  C1837    1.0000 0.09751  0.12561  0.33910  Biso   1.000  C
  H1389    1.0000 0.12639  0.14611  0.36559  Biso   1.000  H
  H1390    1.0000 0.11710  0.14759  0.47781  Biso   1.000  H
  H1391    1.0000 0.14241  0.15969  0.45870  Biso   1.000  H
  C1838    1.0000 0.00446  0.25077  0.12267  Biso   1.000  C
  H1392    1.0000 0.97751  0.22490  0.14751  Biso   1.000  H
  H1393    1.0000 0.86811  0.24800  0.15370  Biso   1.000  H
  H1394    1.0000 0.88630  0.22361  0.16809  Biso   1.000  H
  C1839    1.0000 0.33910  0.09751  0.12561  Biso   1.000  C
  H1395    1.0000 0.36559  0.12639  0.14611  Biso   1.000  H
  H1396    1.0000 0.47781  0.11710  0.14759  Biso   1.000  H
  H1397    1.0000 0.45870  0.14241  0.15969  Biso   1.000  H
  C1840    1.0000 0.12267  0.00446  0.25077  Biso   1.000  C
  H1398    1.0000 0.14751  0.97751  0.22490  Biso   1.000  H
  H1399    1.0000 0.15370  0.86811  0.24800  Biso   1.000  H
  H1400    1.0000 0.16809  0.88630  0.22361  Biso   1.000  H
  N247     1.0000 0.07642  0.26935  0.07289  Biso   1.000  N
  N248     1.0000 0.26935  0.07289  0.07642  Biso   1.000  N
  C1841    1.0000 0.11706  0.11793  0.32061  Biso   1.000  C
  C1842    1.0000 0.07138  0.11903  0.33595  Biso   1.000  C
  C1843    1.0000 0.02166  0.22904  0.11234  Biso   1.000  C
  C1844    1.0000 0.01299  0.27713  0.11825  Biso   1.000  C
  C1845    1.0000 0.32061  0.11706  0.11793  Biso   1.000  C
  C1846    1.0000 0.33595  0.07138  0.11903  Biso   1.000  C
  C1847    1.0000 0.11234  0.02166  0.22904  Biso   1.000  C
  C1848    1.0000 0.11825  0.01299  0.27713  Biso   1.000  C
  C1849    1.0000 0.05162  0.26283  0.08937  Biso   1.000  C
  C1850    1.0000 0.08175  0.25481  0.04841  Biso   1.000  C
  C1851    1.0000 0.29404  0.08025  0.09394  Biso   1.000  C
  C1852    1.0000 0.25481  0.04841  0.08175  Biso   1.000  C
  C1853    1.0000 0.10815  0.10079  0.29732  Biso   1.000  C
  H1401    1.0000 0.13621  0.12360  0.32271  Biso   1.000  H
  H1402    1.0000 0.05820  0.12569  0.34960  Biso   1.000  H
  C1854    1.0000 0.06095  0.10227  0.31312  Biso   1.000  C
  C1855    1.0000 0.04430  0.23677  0.09413  Biso   1.000  C
  H1403    1.0000 0.01830  0.20990  0.11729  Biso   1.000  H
  H1404    1.0000 0.00260  0.29220  0.12650  Biso   1.000  H
  C1856    1.0000 0.03692  0.28348  0.10176  Biso   1.000  C
  C1857    1.0000 0.29732  0.10815  0.10079  Biso   1.000  C
  H1405    1.0000 0.32271  0.13621  0.12360  Biso   1.000  H
  H1406    1.0000 0.34960  0.05820  0.12569  Biso   1.000  H
  C1858    1.0000 0.31312  0.06095  0.10227  Biso   1.000  C
  C1859    1.0000 0.09413  0.04430  0.23677  Biso   1.000  C
  H1407    1.0000 0.11729  0.01830  0.20990  Biso   1.000  H
  H1408    1.0000 0.12650  0.00260  0.29220  Biso   1.000  H
  C1860    1.0000 0.10176  0.03692  0.28348  Biso   1.000  C
  C1861    1.0000 0.11090  0.24745  0.04200  Biso   1.000  C
  C1862    1.0000 0.06163  0.24567  0.03053  Biso   1.000  C
  C1863    1.0000 0.24745  0.04200  0.11090  Biso   1.000  C
  C1864    1.0000 0.24567  0.03053  0.06163  Biso   1.000  C
  C1865    1.0000 0.08025  0.09394  0.29404  Biso   1.000  C
  H1409    1.0000 0.12169  0.09411  0.28399  Biso   1.000  H
  H1410    1.0000 0.04151  0.09730  0.31149  Biso   1.000  H
  H1411    1.0000 0.05461  0.22210  0.08501  Biso   1.000  H
  H1412    1.0000 0.04261  0.30261  0.09939  Biso   1.000  H
  H1413    1.0000 0.28399  0.12169  0.09411  Biso   1.000  H
  H1414    1.0000 0.31149  0.04151  0.09730  Biso   1.000  H
  C1866    1.0000 0.08937  0.05162  0.26283  Biso   1.000  C
  H1415    1.0000 0.08501  0.05461  0.22210  Biso   1.000  H
  H1416    1.0000 0.09939  0.04261  0.30261  Biso   1.000  H
  H1417    1.0000 0.12561  0.25251  0.05469  Biso   1.000  H
  C1867    1.0000 0.11704  0.23338  0.01796  Biso   1.000  C
  C1868    1.0000 0.06804  0.22953  0.00724  Biso   1.000  C
  H1418    1.0000 0.04250  0.25050  0.03410  Biso   1.000  H
  H1419    1.0000 0.25251  0.05469  0.12561  Biso   1.000  H
  C1869    1.0000 0.23338  0.01796  0.11704  Biso   1.000  C
  C1870    1.0000 0.22953  0.00724  0.06804  Biso   1.000  C
  H1420    1.0000 0.25050  0.03410  0.04250  Biso   1.000  H
  N249     1.0000 0.07289  0.07642  0.26935  Biso   1.000  N
  H1421    1.0000 0.13629  0.23040  0.01291  Biso   1.000  H
  C1871    1.0000 0.09548  0.22301  0.00028  Biso   1.000  C
  H1422    1.0000 0.05310  0.22270  0.99560  Biso   1.000  H
  H1423    1.0000 0.23040  0.01291  0.13629  Biso   1.000  H
  C1872    1.0000 0.22301  0.00028  0.09548  Biso   1.000  C
  H1424    1.0000 0.22270  0.99560  0.05310  Biso   1.000  H
  C1873    1.0000 0.04841  0.08175  0.25481  Biso   1.000  C
  C1874    1.0000 0.10204  0.20611  0.97262  Biso   1.000  C
  C1875    1.0000 0.20611  0.97262  0.10204  Biso   1.000  C
  C1876    1.0000 0.04200  0.11090  0.24745  Biso   1.000  C
  C1877    1.0000 0.03053  0.06163  0.24567  Biso   1.000  C
  N250     1.0000 0.08454  0.19847  0.95477  Biso   1.000  N
  H1425    1.0000 0.12121  0.20131  0.96920  Biso   1.000  H
  N251     1.0000 0.19847  0.95477  0.08454  Biso   1.000  N
  H1426    1.0000 0.20131  0.96920  0.12121  Biso   1.000  H
  H1427    1.0000 0.05469  0.12561  0.25251  Biso   1.000  H
  C1878    1.0000 0.01796  0.11704  0.23338  Biso   1.000  C
  C1879    1.0000 0.00724  0.06804  0.22953  Biso   1.000  C
  H1428    1.0000 0.03410  0.04250  0.25050  Biso   1.000  H
  C1880    1.0000 0.09436  0.18468  0.93042  Biso   1.000  C
  C1881    1.0000 0.18468  0.93042  0.09436  Biso   1.000  C
  H1429    1.0000 0.01291  0.13629  0.23040  Biso   1.000  H
  C1882    1.0000 0.00028  0.09548  0.22301  Biso   1.000  C
  H1430    1.0000 0.99560  0.05310  0.22270  Biso   1.000  H
  H1431    1.0000 0.11429  0.17930  0.93520  Biso   1.000  H
  C1883    1.0000 0.08010  0.15772  0.92680  Biso   1.000  C
  C1884    1.0000 0.09722  0.20211  0.90699  Biso   1.000  C
  H1432    1.0000 0.17930  0.93520  0.11429  Biso   1.000  H
  C1885    1.0000 0.15772  0.92680  0.08010  Biso   1.000  C
  C1886    1.0000 0.20211  0.90699  0.09722  Biso   1.000  C
  C1887    1.0000 0.97262  0.10204  0.20611  Biso   1.000  C
  N252     1.0000 0.07985  0.13898  0.95009  Biso   1.000  N
  H1433    1.0000 0.05979  0.16291  0.92411  Biso   1.000  H
  C1888    1.0000 0.08818  0.14275  0.89904  Biso   1.000  C
  C1889    1.0000 0.10663  0.18734  0.87773  Biso   1.000  C
  H1434    1.0000 0.11131  0.21690  0.91161  Biso   1.000  H
  H1435    1.0000 0.07889  0.21170  0.90380  Biso   1.000  H
  N253     1.0000 0.13898  0.95009  0.07985  Biso   1.000  N
  H1436    1.0000 0.16291  0.92411  0.05979  Biso   1.000  H
  C1890    1.0000 0.14275  0.89904  0.08818  Biso   1.000  C
  C1891    1.0000 0.18734  0.87773  0.10663  Biso   1.000  C
  H1437    1.0000 0.21690  0.91161  0.11131  Biso   1.000  H
  H1438    1.0000 0.21170  0.90380  0.07889  Biso   1.000  H
  N254     1.0000 0.95477  0.08454  0.19847  Biso   1.000  N
  H1439    1.0000 0.96920  0.12121  0.20131  Biso   1.000  H
  C1892    1.0000 0.05588  0.13007  0.95955  Biso   1.000  C
  H1440    1.0000 0.10710  0.13420  0.90149  Biso   1.000  H
  H1441    1.0000 0.07460  0.12709  0.89580  Biso   1.000  H
  C1893    1.0000 0.08880  0.16124  0.87257  Biso   1.000  C
  H1442    1.0000 0.10420  0.20080  0.86191  Biso   1.000  H
  H1443    1.0000 0.12690  0.18199  0.87871  Biso   1.000  H
  C1894    1.0000 0.13007  0.95955  0.05588  Biso   1.000  C
  H1444    1.0000 0.13420  0.90149  0.10710  Biso   1.000  H
  H1445    1.0000 0.12709  0.89580  0.07460  Biso   1.000  H
  C1895    1.0000 0.16124  0.87257  0.08880  Biso   1.000  C
  H1446    1.0000 0.20080  0.86191  0.10420  Biso   1.000  H
  H1447    1.0000 0.18199  0.87871  0.12690  Biso   1.000  H
  C1896    1.0000 0.93042  0.09436  0.18468  Biso   1.000  C
  C1897    1.0000 0.05465  0.11175  0.98413  Biso   1.000  C
  H1448    1.0000 0.03891  0.13549  0.95030  Biso   1.000  H
  H1449    1.0000 0.09671  0.15030  0.85660  Biso   1.000  H
  H1450    1.0000 0.06931  0.16691  0.86749  Biso   1.000  H
  C1898    1.0000 0.11175  0.98413  0.05465  Biso   1.000  C
  H1451    1.0000 0.13549  0.95030  0.03891  Biso   1.000  H
  H1452    1.0000 0.15030  0.85660  0.09671  Biso   1.000  H
  H1453    1.0000 0.16691  0.86749  0.06931  Biso   1.000  H
  H1454    1.0000 0.93520  0.11429  0.17930  Biso   1.000  H
  C1899    1.0000 0.92680  0.08010  0.15772  Biso   1.000  C
  C1900    1.0000 0.90699  0.09722  0.20211  Biso   1.000  C
  C1901    1.0000 0.07900  0.09992  0.99924  Biso   1.000  C
  C1902    1.0000 0.02962  0.10075  0.99450  Biso   1.000  C
  C1903    1.0000 0.09992  0.99924  0.07900  Biso   1.000  C
  C1904    1.0000 0.10075  0.99450  0.02962  Biso   1.000  C
  N255     1.0000 0.95009  0.07985  0.13898  Biso   1.000  N
  H1455    1.0000 0.92411  0.05979  0.16291  Biso   1.000  H
  C1905    1.0000 0.89904  0.08818  0.14275  Biso   1.000  C
  C1906    1.0000 0.87773  0.10663  0.18734  Biso   1.000  C
  H1456    1.0000 0.91161  0.11131  0.21690  Biso   1.000  H
  H1457    1.0000 0.90380  0.07889  0.21170  Biso   1.000  H
  C1907    1.0000 0.07790  0.08057  0.01970  Biso   1.000  C
  H1458    1.0000 0.09719  0.10669  0.99399  Biso   1.000  H
  C1908    1.0000 0.02689  0.08139  0.01498  Biso   1.000  C
  H1459    1.0000 0.01261  0.10760  0.98621  Biso   1.000  H
  C1909    1.0000 0.08057  0.01970  0.07790  Biso   1.000  C
  H1460    1.0000 0.10669  0.99399  0.09719  Biso   1.000  H
  C1910    1.0000 0.08139  0.01498  0.02689  Biso   1.000  C
  H1461    1.0000 0.10760  0.98621  0.01261  Biso   1.000  H
  C1911    1.0000 0.95955  0.05588  0.13007  Biso   1.000  C
  H1462    1.0000 0.90149  0.10710  0.13420  Biso   1.000  H
  H1463    1.0000 0.89580  0.07460  0.12709  Biso   1.000  H
  C1912    1.0000 0.87257  0.08880  0.16124  Biso   1.000  C
  H1464    1.0000 0.86191  0.10420  0.20080  Biso   1.000  H
  H1465    1.0000 0.87871  0.12690  0.18199  Biso   1.000  H
  C1913    1.0000 0.05186  0.07115  0.02873  Biso   1.000  C
  H1466    1.0000 0.09480  0.07339  0.02791  Biso   1.000  H
  H1467    1.0000 0.00880  0.07460  0.02029  Biso   1.000  H
  C1914    1.0000 0.07115  0.02873  0.05186  Biso   1.000  C
  H1468    1.0000 0.07339  0.02791  0.09480  Biso   1.000  H
  H1469    1.0000 0.07460  0.02029  0.00880  Biso   1.000  H
  C1915    1.0000 0.98413  0.05465  0.11175  Biso   1.000  C
  H1470    1.0000 0.95030  0.03891  0.13549  Biso   1.000  H
  H1471    1.0000 0.85660  0.09671  0.15030  Biso   1.000  H
  H1472    1.0000 0.86749  0.06931  0.16691  Biso   1.000  H
  N256     1.0000 0.05048  0.05048  0.05048  Biso   1.000  N
  C1916    1.0000 0.99924  0.07900  0.09992  Biso   1.000  C
  C1917    1.0000 0.99450  0.02962  0.10075  Biso   1.000  C
  C1918    1.0000 0.02873  0.05186  0.07115  Biso   1.000  C
  C1919    1.0000 0.01970  0.07790  0.08057  Biso   1.000  C
  H1473    1.0000 0.99399  0.09719  0.10669  Biso   1.000  H
  C1920    1.0000 0.01498  0.02689  0.08139  Biso   1.000  C
  H1474    1.0000 0.98621  0.01261  0.10760  Biso   1.000  H
  H1475    1.0000 0.02791  0.09480  0.07339  Biso   1.000  H
  H1476    1.0000 0.02029  0.00880  0.07460  Biso   1.000  H
