data_image0
_cell_length_a       12.398
_cell_length_b       12.927
_cell_length_c       13.03
_cell_angle_alpha    93.79
_cell_angle_beta     113.71
_cell_angle_gamma    104.74

_symmetry_space_group_name_H-M    "P 1"
_symmetry_int_tables_number       1

loop_
  _symmetry_equiv_pos_as_xyz
  'x, y, z'

loop_
  _atom_site_label
  _atom_site_occupancy
  _atom_site_fract_x
  _atom_site_fract_y
  _atom_site_fract_z
  _atom_site_thermal_displace_type
  _atom_site_B_iso_or_equiv
  _atom_site_type_symbol
  C1       1.0000 0.68420  0.70326  0.90164  Biso   1.000  C
  O1       1.0000 0.70343  0.70416  0.00137  Biso   1.000  O
  O2       1.0000 0.70351  0.70416  0.00137  Biso   1.000  O
  O3       1.0000 0.70346  0.70424  0.00137  Biso   1.000  O
  O4       1.0000 0.70354  0.70424  0.00137  Biso   1.000  O
  N1       1.0000 0.61247  0.75541  0.82762  Biso   1.000  N
  N2       1.0000 0.72970  0.64817  0.84273  Biso   1.000  N
  N3       1.0000 0.61245  0.75533  0.82762  Biso   1.000  N
  N4       1.0000 0.72968  0.64809  0.84273  Biso   1.000  N
  N5       1.0000 0.72960  0.64809  0.84273  Biso   1.000  N
  N6       1.0000 0.61237  0.75533  0.82762  Biso   1.000  N
  C2       1.0000 0.68418  0.70318  0.90164  Biso   1.000  C
  C3       1.0000 0.68410  0.70318  0.90164  Biso   1.000  C
  C4       1.0000 0.60595  0.73603  0.71423  Biso   1.000  C
  C5       1.0000 0.53803  0.81171  0.85528  Biso   1.000  C
  C6       1.0000 0.60593  0.73595  0.71423  Biso   1.000  C
  C7       1.0000 0.53801  0.81163  0.85528  Biso   1.000  C
  C8       1.0000 0.60585  0.73595  0.71423  Biso   1.000  C
  C9       1.0000 0.68486  0.65844  0.72388  Biso   1.000  C
  C10      1.0000 0.79815  0.57432  0.88977  Biso   1.000  C
  C11      1.0000 0.68492  0.65836  0.72388  Biso   1.000  C
  C12      1.0000 0.79813  0.57424  0.88977  Biso   1.000  C
  C13      1.0000 0.79821  0.57424  0.88977  Biso   1.000  C
  C14      1.0000 0.68484  0.65836  0.72388  Biso   1.000  C
  C15      1.0000 0.68494  0.65844  0.72388  Biso   1.000  C
  N7       1.0000 0.66993  0.83042  0.68384  Biso   1.000  N
  H1       1.0000 0.51875  0.70223  0.65490  Biso   1.000  H
  N8       1.0000 0.66991  0.83034  0.68384  Biso   1.000  N
  H2       1.0000 0.51873  0.70215  0.65490  Biso   1.000  H
  N9       1.0000 0.66983  0.83034  0.68384  Biso   1.000  N
  H3       1.0000 0.51867  0.70223  0.65490  Biso   1.000  H
  H4       1.0000 0.51865  0.70215  0.65490  Biso   1.000  H
  H5       1.0000 0.52908  0.78826  0.92307  Biso   1.000  H
  H6       1.0000 0.45435  0.78946  0.79091  Biso   1.000  H
  N10      1.0000 0.58767  0.92962  0.87868  Biso   1.000  N
  H7       1.0000 0.52916  0.78826  0.92307  Biso   1.000  H
  H8       1.0000 0.45433  0.78938  0.79091  Biso   1.000  H
  N11      1.0000 0.58775  0.92962  0.87868  Biso   1.000  N
  H9       1.0000 0.52914  0.78818  0.92307  Biso   1.000  H
  H10      1.0000 0.45425  0.78938  0.79091  Biso   1.000  H
  H11      1.0000 0.52906  0.78818  0.92307  Biso   1.000  H
  N12      1.0000 0.77914  0.71673  0.69204  Biso   1.000  N
  H12      1.0000 0.63445  0.58635  0.67180  Biso   1.000  H
  N13      1.0000 0.77912  0.71665  0.69204  Biso   1.000  N
  H13      1.0000 0.63443  0.58627  0.67180  Biso   1.000  H
  H14      1.0000 0.63435  0.58627  0.67180  Biso   1.000  H
  N14      1.0000 0.77904  0.71665  0.69204  Biso   1.000  N
  N15      1.0000 0.93019  0.61844  0.92487  Biso   1.000  N
  H15      1.0000 0.76522  0.50672  0.83197  Biso   1.000  H
  H16      1.0000 0.78441  0.55438  0.95663  Biso   1.000  H
  N16      1.0000 0.93016  0.61836  0.92487  Biso   1.000  N
  H17      1.0000 0.78447  0.55430  0.95663  Biso   1.000  H
  H18      1.0000 0.78449  0.55438  0.95663  Biso   1.000  H
  N17      1.0000 0.93008  0.61836  0.92487  Biso   1.000  N
  H19      1.0000 0.76514  0.50672  0.83197  Biso   1.000  H
  H20      1.0000 0.78439  0.55430  0.95663  Biso   1.000  H
  C16      1.0000 0.76318  0.81319  0.66070  Biso   1.000  C
  C17      1.0000 0.61152  0.91170  0.63850  Biso   1.000  C
  C18      1.0000 0.76316  0.81311  0.66070  Biso   1.000  C
  C19      1.0000 0.61150  0.91162  0.63850  Biso   1.000  C
  C20      1.0000 0.76308  0.81311  0.66070  Biso   1.000  C
  C21      1.0000 0.61144  0.91170  0.63850  Biso   1.000  C
  C22      1.0000 0.61142  0.91162  0.63850  Biso   1.000  C
  C23      1.0000 0.63428  0.99082  0.98625  Biso   1.000  C
  C24      1.0000 0.56161  0.99557  0.79031  Biso   1.000  C
  C25      1.0000 0.63426  0.99074  0.98625  Biso   1.000  C
  C26      1.0000 0.56159  0.99549  0.79031  Biso   1.000  C
  C27      1.0000 0.63418  0.99074  0.98625  Biso   1.000  C
  C28      1.0000 0.56151  0.99549  0.79031  Biso   1.000  C
  C29      1.0000 0.86005  0.66683  0.66745  Biso   1.000  C
  C30      1.0000 0.86002  0.66675  0.66745  Biso   1.000  C
  C31      1.0000 0.85996  0.66683  0.66745  Biso   1.000  C
  C32      1.0000 0.85994  0.66675  0.66745  Biso   1.000  C
  C33      1.0000 0.98916  0.60730  0.84982  Biso   1.000  C
  C34      1.0000 0.98914  0.60722  0.84982  Biso   1.000  C
  C35      1.0000 0.98922  0.60722  0.84982  Biso   1.000  C
  C36      1.0000 0.01323  0.64546  0.03799  Biso   1.000  C
  C37      1.0000 0.01333  0.64554  0.03799  Biso   1.000  C
  C38      1.0000 0.01331  0.64546  0.03799  Biso   1.000  C
  C39      1.0000 0.01325  0.64554  0.03799  Biso   1.000  C
  O5       1.0000 0.82178  0.87268  0.61963  Biso   1.000  O
  O6       1.0000 0.82170  0.87268  0.61963  Biso   1.000  O
  H21      1.0000 0.64280  0.94195  0.58437  Biso   1.000  H
  H22      1.0000 0.52112  0.87603  0.59530  Biso   1.000  H
  N18      1.0000 0.63361  0.00009  0.72576  Biso   1.000  N
  H23      1.0000 0.64290  0.94189  0.58446  Biso   1.000  H
  N19      1.0000 0.63367  0.00001  0.72576  Biso   1.000  N
  H24      1.0000 0.64286  0.94187  0.58437  Biso   1.000  H
  H25      1.0000 0.52118  0.87595  0.59530  Biso   1.000  H
  H26      1.0000 0.64282  0.94189  0.58446  Biso   1.000  H
  N20      1.0000 0.63359  0.00001  0.72576  Biso   1.000  N
  H27      1.0000 0.64288  0.94195  0.58437  Biso   1.000  H
  N21      1.0000 0.63369  0.00009  0.72576  Biso   1.000  N
  H28      1.0000 0.64278  0.94187  0.58437  Biso   1.000  H
  H29      1.0000 0.52110  0.87595  0.59530  Biso   1.000  H
  O7       1.0000 0.65347  0.95547  0.07445  Biso   1.000  O
  O8       1.0000 0.65341  0.95555  0.07445  Biso   1.000  O
  O9       1.0000 0.65339  0.95547  0.07445  Biso   1.000  O
  O10      1.0000 0.65349  0.95555  0.07445  Biso   1.000  O
  N22      1.0000 0.65279  0.09750  0.97644  Biso   1.000  N
  N23      1.0000 0.65273  0.09758  0.97644  Biso   1.000  N
  N24      1.0000 0.65271  0.09750  0.97644  Biso   1.000  N
  N25      1.0000 0.65281  0.09758  0.97644  Biso   1.000  N
  H30      1.0000 0.47096  0.97507  0.73908  Biso   1.000  H
  H31      1.0000 0.47094  0.97499  0.73908  Biso   1.000  H
  H32      1.0000 0.47086  0.97499  0.73908  Biso   1.000  H
  C40      1.0000 0.61174  0.11308  0.85998  Biso   1.000  C
  C41      1.0000 0.61182  0.11308  0.85998  Biso   1.000  C
  N26      1.0000 0.97405  0.67593  0.76563  Biso   1.000  N
  H33      1.0000 0.88053  0.70104  0.60913  Biso   1.000  H
  H34      1.0000 0.81501  0.58875  0.63432  Biso   1.000  H
  N27      1.0000 0.97402  0.67585  0.76563  Biso   1.000  N
  H35      1.0000 0.88059  0.70096  0.60913  Biso   1.000  H
  H36      1.0000 0.81507  0.58867  0.63432  Biso   1.000  H
  N28      1.0000 0.97394  0.67585  0.76563  Biso   1.000  N
  H37      1.0000 0.81499  0.58867  0.63432  Biso   1.000  H
  H38      1.0000 0.81509  0.58875  0.63432  Biso   1.000  H
  H39      1.0000 0.88051  0.70096  0.60913  Biso   1.000  H
  H40      1.0000 0.96663  0.52925  0.81421  Biso   1.000  H
  H41      1.0000 0.96661  0.52917  0.81421  Biso   1.000  H
  C42      1.0000 0.12936  0.65358  0.93246  Biso   1.000  C
  C43      1.0000 0.12928  0.65358  0.93246  Biso   1.000  C
  C44      1.0000 0.12934  0.65350  0.93246  Biso   1.000  C
  O11      1.0000 0.98752  0.64536  0.11902  Biso   1.000  O
  O12      1.0000 0.98746  0.64544  0.11902  Biso   1.000  O
  O13      1.0000 0.98744  0.64536  0.11902  Biso   1.000  O
  O14      1.0000 0.98754  0.64544  0.11902  Biso   1.000  O
  N29      1.0000 0.13007  0.66745  0.04414  Biso   1.000  N
  N30      1.0000 0.13015  0.66745  0.04414  Biso   1.000  N
  C45      1.0000 0.71817  0.10046  0.74813  Biso   1.000  C
  C46      1.0000 0.71819  0.10054  0.74813  Biso   1.000  C
  C47      1.0000 0.71808  0.10046  0.74813  Biso   1.000  C
  C48      1.0000 0.70234  0.18660  0.07155  Biso   1.000  C
  C49      1.0000 0.70245  0.18668  0.07155  Biso   1.000  C
  C50      1.0000 0.70242  0.18660  0.07155  Biso   1.000  C
  N31      1.0000 0.71040  0.16677  0.83052  Biso   1.000  N
  H42      1.0000 0.54597  0.14971  0.83880  Biso   1.000  H
  N32      1.0000 0.71034  0.16685  0.83052  Biso   1.000  N
  H43      1.0000 0.54589  0.14971  0.83880  Biso   1.000  H
  N33      1.0000 0.71032  0.16677  0.83052  Biso   1.000  N
  N34      1.0000 0.71043  0.16685  0.83052  Biso   1.000  N
  C51      1.0000 0.08038  0.75918  0.79150  Biso   1.000  C
  C52      1.0000 0.08046  0.75918  0.79150  Biso   1.000  C
  N35      1.0000 0.16866  0.75388  0.89456  Biso   1.000  N
  H44      1.0000 0.17535  0.60207  0.92589  Biso   1.000  H
  H45      1.0000 0.17525  0.60199  0.92589  Biso   1.000  H
  H46      1.0000 0.17533  0.60199  0.92589  Biso   1.000  H
  N36      1.0000 0.16874  0.75388  0.89456  Biso   1.000  N
  C53      1.0000 0.24066  0.71551  0.15027  Biso   1.000  C
  C54      1.0000 0.24068  0.71559  0.15027  Biso   1.000  C
  O15      1.0000 0.78732  0.12687  0.70279  Biso   1.000  O
  O16      1.0000 0.78723  0.12687  0.70279  Biso   1.000  O
  N37      1.0000 0.83141  0.24634  0.10544  Biso   1.000  N
  H47      1.0000 0.65275  0.23748  0.05089  Biso   1.000  H
  H48      1.0000 0.69432  0.15777  0.13746  Biso   1.000  H
  N38      1.0000 0.83130  0.24626  0.10544  Biso   1.000  N
  H49      1.0000 0.65273  0.23740  0.05089  Biso   1.000  H
  H50      1.0000 0.69430  0.15769  0.13746  Biso   1.000  H
  H51      1.0000 0.69440  0.15777  0.13746  Biso   1.000  H
  N39      1.0000 0.83138  0.24626  0.10544  Biso   1.000  N
  C55      1.0000 0.75939  0.28464  0.84973  Biso   1.000  C
  O17      1.0000 0.09387  0.82490  0.73140  Biso   1.000  O
  O18      1.0000 0.09377  0.82482  0.73140  Biso   1.000  O
  C56      1.0000 0.29773  0.81363  0.92845  Biso   1.000  C
  C57      1.0000 0.29762  0.81355  0.92845  Biso   1.000  C
  C58      1.0000 0.29770  0.81355  0.92845  Biso   1.000  C
  N40      1.0000 0.28964  0.83338  0.16948  Biso   1.000  N
  H52      1.0000 0.30549  0.68375  0.15069  Biso   1.000  H
  H53      1.0000 0.22162  0.69532  0.21447  Biso   1.000  H
  H54      1.0000 0.30557  0.68375  0.15069  Biso   1.000  H
  H55      1.0000 0.22164  0.69540  0.21447  Biso   1.000  H
  N41      1.0000 0.28972  0.83338  0.16948  Biso   1.000  N
  C59      1.0000 0.91969  0.24105  0.20850  Biso   1.000  C
  C60      1.0000 0.87071  0.34665  0.06754  Biso   1.000  C
  C61      1.0000 0.91967  0.24097  0.20850  Biso   1.000  C
  C62      1.0000 0.87069  0.34657  0.06754  Biso   1.000  C
  C63      1.0000 0.87079  0.34665  0.06754  Biso   1.000  C
  N42      1.0000 0.86998  0.33270  0.95586  Biso   1.000  N
  H56      1.0000 0.69456  0.31640  0.84931  Biso   1.000  H
  H57      1.0000 0.77843  0.30482  0.78553  Biso   1.000  H
  N43      1.0000 0.87000  0.33278  0.95586  Biso   1.000  N
  H58      1.0000 0.69450  0.31648  0.84931  Biso   1.000  H
  H59      1.0000 0.69448  0.31640  0.84931  Biso   1.000  H
  H60      1.0000 0.69458  0.31648  0.84931  Biso   1.000  H
  N44      1.0000 0.86990  0.33270  0.95586  Biso   1.000  N
  H61      1.0000 0.34732  0.76275  0.94911  Biso   1.000  H
  H62      1.0000 0.30575  0.84246  0.86254  Biso   1.000  H
  H63      1.0000 0.30573  0.84238  0.86254  Biso   1.000  H
  N45      1.0000 0.34726  0.90264  0.02356  Biso   1.000  N
  N46      1.0000 0.34734  0.90264  0.02356  Biso   1.000  N
  C64      1.0000 0.28188  0.89969  0.25187  Biso   1.000  C
  C65      1.0000 0.38831  0.88707  0.14002  Biso   1.000  C
  C66      1.0000 0.38833  0.88715  0.14002  Biso   1.000  C
  C67      1.0000 0.28198  0.89977  0.25187  Biso   1.000  C
  C68      1.0000 0.28190  0.89977  0.25187  Biso   1.000  C
  O19      1.0000 0.90620  0.17533  0.26860  Biso   1.000  O
  O20      1.0000 0.90628  0.17533  0.26860  Biso   1.000  O
  N47      1.0000 0.02602  0.32430  0.23437  Biso   1.000  N
  N48      1.0000 0.02613  0.32438  0.23437  Biso   1.000  N
  N49      1.0000 0.02610  0.32430  0.23437  Biso   1.000  N
  N50      1.0000 0.02604  0.32438  0.23437  Biso   1.000  N
  H64      1.0000 0.82472  0.39816  0.07411  Biso   1.000  H
  H65      1.0000 0.82480  0.39816  0.07411  Biso   1.000  H
  C69      1.0000 0.01091  0.39293  0.15018  Biso   1.000  C
  C70      1.0000 0.01093  0.39301  0.15018  Biso   1.000  C
  C71      1.0000 0.01085  0.39301  0.15018  Biso   1.000  C
  C72      1.0000 0.98682  0.35469  0.96201  Biso   1.000  C
  C73      1.0000 0.98674  0.35469  0.96201  Biso   1.000  C
  C74      1.0000 0.36579  0.00941  0.01375  Biso   1.000  C
  C75      1.0000 0.36589  0.00949  0.01375  Biso   1.000  C
  C76      1.0000 0.36587  0.00941  0.01375  Biso   1.000  C
  C77      1.0000 0.36581  0.00949  0.01375  Biso   1.000  C
  O21      1.0000 0.21273  0.87328  0.29721  Biso   1.000  O
  O22      1.0000 0.21275  0.87336  0.29721  Biso   1.000  O
  O23      1.0000 0.21284  0.87336  0.29721  Biso   1.000  O
  N51      1.0000 0.36646  0.00013  0.27424  Biso   1.000  N
  N52      1.0000 0.36648  0.00021  0.27424  Biso   1.000  N
  N53      1.0000 0.36638  0.00013  0.27424  Biso   1.000  N
  N54      1.0000 0.36640  0.00021  0.27424  Biso   1.000  N
  H66      1.0000 0.45408  0.85043  0.16120  Biso   1.000  H
  H67      1.0000 0.45418  0.85051  0.16120  Biso   1.000  H
  H68      1.0000 0.45416  0.85043  0.16120  Biso   1.000  H
  H69      1.0000 0.45410  0.85051  0.16120  Biso   1.000  H
  C78      1.0000 0.43846  0.00466  0.20969  Biso   1.000  C
  C79      1.0000 0.43848  0.00474  0.20969  Biso   1.000  C
  C80      1.0000 0.43854  0.00466  0.20969  Biso   1.000  C
  C81      1.0000 0.14002  0.33340  0.33255  Biso   1.000  C
  C82      1.0000 0.14011  0.33340  0.33255  Biso   1.000  C
  C83      1.0000 0.14000  0.33332  0.33255  Biso   1.000  C
  N55      1.0000 0.06988  0.38178  0.07513  Biso   1.000  N
  H70      1.0000 0.03344  0.47098  0.18579  Biso   1.000  H
  N56      1.0000 0.06991  0.38186  0.07513  Biso   1.000  N
  N57      1.0000 0.06999  0.38186  0.07513  Biso   1.000  N
  H71      1.0000 0.03352  0.47098  0.18579  Biso   1.000  H
  H72      1.0000 0.03342  0.47090  0.18579  Biso   1.000  H
  O24      1.0000 0.01253  0.35478  0.88098  Biso   1.000  O
  O25      1.0000 0.01261  0.35478  0.88098  Biso   1.000  O
  O26      1.0000 0.34658  0.04467  0.92555  Biso   1.000  O
  O27      1.0000 0.34666  0.04467  0.92555  Biso   1.000  O
  N58      1.0000 0.41240  0.07061  0.12132  Biso   1.000  N
  N59      1.0000 0.41238  0.07053  0.12132  Biso   1.000  N
  N60      1.0000 0.41232  0.07061  0.12132  Biso   1.000  N
  C84      1.0000 0.38855  0.08852  0.36150  Biso   1.000  C
  C85      1.0000 0.38863  0.08852  0.36150  Biso   1.000  C
  C86      1.0000 0.38853  0.08844  0.36150  Biso   1.000  C
  H73      1.0000 0.52911  0.02515  0.26092  Biso   1.000  H
  H74      1.0000 0.52921  0.02523  0.26092  Biso   1.000  H
  H75      1.0000 0.52919  0.02515  0.26092  Biso   1.000  H
  H76      1.0000 0.52913  0.02523  0.26092  Biso   1.000  H
  N61      1.0000 0.22093  0.28350  0.30796  Biso   1.000  N
  H77      1.0000 0.11954  0.29919  0.39087  Biso   1.000  H
  H78      1.0000 0.18506  0.41148  0.36568  Biso   1.000  H
  N62      1.0000 0.22095  0.28358  0.30796  Biso   1.000  N
  H79      1.0000 0.18508  0.41156  0.36568  Biso   1.000  H
  N63      1.0000 0.22101  0.28350  0.30796  Biso   1.000  N
  H80      1.0000 0.18498  0.41148  0.36568  Biso   1.000  H
  H81      1.0000 0.11946  0.29919  0.39087  Biso   1.000  H
  H82      1.0000 0.18500  0.41156  0.36568  Biso   1.000  H
  C87      1.0000 0.20192  0.42591  0.11023  Biso   1.000  C
  C88      1.0000 0.20194  0.42599  0.11023  Biso   1.000  C
  C89      1.0000 0.20186  0.42599  0.11023  Biso   1.000  C
  C90      1.0000 0.46204  0.18852  0.14472  Biso   1.000  C
  C91      1.0000 0.46206  0.18860  0.14472  Biso   1.000  C
  C92      1.0000 0.46212  0.18852  0.14472  Biso   1.000  C
  N64      1.0000 0.33014  0.16980  0.31616  Biso   1.000  N
  H83      1.0000 0.35727  0.05827  0.41563  Biso   1.000  H
  H84      1.0000 0.47895  0.12420  0.40470  Biso   1.000  H
  N65      1.0000 0.33024  0.16988  0.31616  Biso   1.000  N
  H85      1.0000 0.35729  0.05835  0.41563  Biso   1.000  H
  N66      1.0000 0.33022  0.16980  0.31616  Biso   1.000  N
  H86      1.0000 0.35719  0.05827  0.41563  Biso   1.000  H
  H87      1.0000 0.47892  0.12412  0.40470  Biso   1.000  H
  N67      1.0000 0.33016  0.16988  0.31616  Biso   1.000  N
  H88      1.0000 0.35721  0.05835  0.41563  Biso   1.000  H
  H89      1.0000 0.47886  0.12420  0.40470  Biso   1.000  H
  C93      1.0000 0.23689  0.18704  0.33930  Biso   1.000  C
  C94      1.0000 0.31521  0.34179  0.27612  Biso   1.000  C
  C95      1.0000 0.23691  0.18712  0.33930  Biso   1.000  C
  C96      1.0000 0.31523  0.34187  0.27612  Biso   1.000  C
  C97      1.0000 0.23697  0.18704  0.33930  Biso   1.000  C
  C98      1.0000 0.31513  0.34179  0.27612  Biso   1.000  C
  C99      1.0000 0.31515  0.34187  0.27612  Biso   1.000  C
  N68      1.0000 0.27037  0.35206  0.15727  Biso   1.000  N
  H90      1.0000 0.23485  0.49351  0.16803  Biso   1.000  H
  H91      1.0000 0.21566  0.44585  0.04337  Biso   1.000  H
  N69      1.0000 0.27047  0.35214  0.15727  Biso   1.000  N
  H92      1.0000 0.23493  0.49351  0.16803  Biso   1.000  H
  N70      1.0000 0.27045  0.35206  0.15727  Biso   1.000  N
  H93      1.0000 0.23482  0.49343  0.16803  Biso   1.000  H
  H94      1.0000 0.21558  0.44585  0.04337  Biso   1.000  H
  N71      1.0000 0.27039  0.35214  0.15727  Biso   1.000  N
  N72      1.0000 0.38760  0.24481  0.17238  Biso   1.000  N
  H95      1.0000 0.47099  0.21197  0.07693  Biso   1.000  H
  H96      1.0000 0.54572  0.21076  0.20909  Biso   1.000  H
  N73      1.0000 0.38770  0.24489  0.17238  Biso   1.000  N
  H97      1.0000 0.54580  0.21076  0.20909  Biso   1.000  H
  N74      1.0000 0.38768  0.24481  0.17238  Biso   1.000  N
  H98      1.0000 0.47089  0.21189  0.07693  Biso   1.000  H
  N75      1.0000 0.38762  0.24489  0.17238  Biso   1.000  N
  H99      1.0000 0.47091  0.21197  0.07693  Biso   1.000  H
  H100     1.0000 0.47097  0.21189  0.07693  Biso   1.000  H
  C100     1.0000 0.39412  0.26419  0.28577  Biso   1.000  C
  C101     1.0000 0.39422  0.26427  0.28577  Biso   1.000  C
  C102     1.0000 0.39420  0.26419  0.28577  Biso   1.000  C
  C103     1.0000 0.39414  0.26427  0.28577  Biso   1.000  C
  O28      1.0000 0.17829  0.12754  0.38037  Biso   1.000  O
  O29      1.0000 0.17837  0.12754  0.38037  Biso   1.000  O
  O30      1.0000 0.17827  0.12746  0.38037  Biso   1.000  O
  H101     1.0000 0.36562  0.41388  0.32820  Biso   1.000  H
  H102     1.0000 0.36572  0.41396  0.32820  Biso   1.000  H
  H103     1.0000 0.36570  0.41388  0.32820  Biso   1.000  H
  H104     1.0000 0.36564  0.41396  0.32820  Biso   1.000  H
  C104     1.0000 0.31587  0.29697  0.09836  Biso   1.000  C
  C105     1.0000 0.31589  0.29705  0.09836  Biso   1.000  C
  C106     1.0000 0.31597  0.29705  0.09836  Biso   1.000  C
  H105     1.0000 0.48132  0.29800  0.34510  Biso   1.000  H
  H106     1.0000 0.48140  0.29800  0.34510  Biso   1.000  H
  H107     1.0000 0.48130  0.29792  0.34510  Biso   1.000  H
  O31      1.0000 0.29653  0.29599  0.99863  Biso   1.000  O
  O32      1.0000 0.29661  0.29599  0.99863  Biso   1.000  O
  C107     1.0000 0.68420  0.70326  0.90164  Biso   1.000  C
  O33      1.0000 0.70343  0.70416  0.00137  Biso   1.000  O
  O34      1.0000 0.70346  0.70424  0.00137  Biso   1.000  O
  O35      1.0000 0.70354  0.70424  0.00137  Biso   1.000  O
  N76      1.0000 0.61247  0.75541  0.82762  Biso   1.000  N
  N77      1.0000 0.72970  0.64817  0.84273  Biso   1.000  N
  N78      1.0000 0.61245  0.75533  0.82762  Biso   1.000  N
  N79      1.0000 0.72968  0.64809  0.84273  Biso   1.000  N
  N80      1.0000 0.72960  0.64809  0.84273  Biso   1.000  N
  N81      1.0000 0.61237  0.75533  0.82762  Biso   1.000  N
  O36      1.0000 0.70351  0.70416  0.00137  Biso   1.000  O
  C108     1.0000 0.68418  0.70318  0.90164  Biso   1.000  C
  C109     1.0000 0.68410  0.70318  0.90164  Biso   1.000  C
  C110     1.0000 0.60595  0.73603  0.71423  Biso   1.000  C
  C111     1.0000 0.53803  0.81171  0.85528  Biso   1.000  C
  C112     1.0000 0.60593  0.73595  0.71423  Biso   1.000  C
  C113     1.0000 0.53801  0.81163  0.85528  Biso   1.000  C
  C114     1.0000 0.60585  0.73595  0.71423  Biso   1.000  C
  C115     1.0000 0.68486  0.65844  0.72388  Biso   1.000  C
  C116     1.0000 0.79815  0.57432  0.88977  Biso   1.000  C
  C117     1.0000 0.68492  0.65836  0.72388  Biso   1.000  C
  C118     1.0000 0.79813  0.57424  0.88977  Biso   1.000  C
  C119     1.0000 0.79821  0.57424  0.88977  Biso   1.000  C
  C120     1.0000 0.68484  0.65836  0.72388  Biso   1.000  C
  C121     1.0000 0.68494  0.65844  0.72388  Biso   1.000  C
  N82      1.0000 0.66993  0.83042  0.68384  Biso   1.000  N
  H108     1.0000 0.51875  0.70223  0.65490  Biso   1.000  H
  N83      1.0000 0.66991  0.83034  0.68384  Biso   1.000  N
  H109     1.0000 0.51873  0.70215  0.65490  Biso   1.000  H
  N84      1.0000 0.66983  0.83034  0.68384  Biso   1.000  N
  H110     1.0000 0.51867  0.70223  0.65490  Biso   1.000  H
  H111     1.0000 0.51865  0.70215  0.65490  Biso   1.000  H
  H112     1.0000 0.52908  0.78826  0.92307  Biso   1.000  H
  H113     1.0000 0.45435  0.78946  0.79091  Biso   1.000  H
  N85      1.0000 0.58767  0.92962  0.87868  Biso   1.000  N
  H114     1.0000 0.52916  0.78826  0.92307  Biso   1.000  H
  H115     1.0000 0.45433  0.78938  0.79091  Biso   1.000  H
  N86      1.0000 0.58775  0.92962  0.87868  Biso   1.000  N
  H116     1.0000 0.52914  0.78818  0.92307  Biso   1.000  H
  H117     1.0000 0.45425  0.78938  0.79091  Biso   1.000  H
  H118     1.0000 0.52906  0.78818  0.92307  Biso   1.000  H
  N87      1.0000 0.77914  0.71673  0.69204  Biso   1.000  N
  H119     1.0000 0.63445  0.58635  0.67180  Biso   1.000  H
  N88      1.0000 0.77912  0.71665  0.69204  Biso   1.000  N
  H120     1.0000 0.63443  0.58627  0.67180  Biso   1.000  H
  H121     1.0000 0.63435  0.58627  0.67180  Biso   1.000  H
  N89      1.0000 0.77904  0.71665  0.69204  Biso   1.000  N
  N90      1.0000 0.93019  0.61844  0.92487  Biso   1.000  N
  H122     1.0000 0.76522  0.50672  0.83197  Biso   1.000  H
  H123     1.0000 0.78441  0.55438  0.95663  Biso   1.000  H
  N91      1.0000 0.93016  0.61836  0.92487  Biso   1.000  N
  H124     1.0000 0.78447  0.55430  0.95663  Biso   1.000  H
  H125     1.0000 0.78449  0.55438  0.95663  Biso   1.000  H
  N92      1.0000 0.93008  0.61836  0.92487  Biso   1.000  N
  H126     1.0000 0.76514  0.50672  0.83197  Biso   1.000  H
  H127     1.0000 0.78439  0.55430  0.95663  Biso   1.000  H
  C122     1.0000 0.76318  0.81319  0.66070  Biso   1.000  C
  C123     1.0000 0.61152  0.91170  0.63850  Biso   1.000  C
  C124     1.0000 0.76316  0.81311  0.66070  Biso   1.000  C
  C125     1.0000 0.61150  0.91162  0.63850  Biso   1.000  C
  C126     1.0000 0.76308  0.81311  0.66070  Biso   1.000  C
  C127     1.0000 0.61144  0.91170  0.63850  Biso   1.000  C
  C128     1.0000 0.61142  0.91162  0.63850  Biso   1.000  C
  C129     1.0000 0.63428  0.99082  0.98625  Biso   1.000  C
  C130     1.0000 0.56161  0.99557  0.79031  Biso   1.000  C
  C131     1.0000 0.63426  0.99074  0.98625  Biso   1.000  C
  C132     1.0000 0.56159  0.99549  0.79031  Biso   1.000  C
  C133     1.0000 0.63418  0.99074  0.98625  Biso   1.000  C
  C134     1.0000 0.56151  0.99549  0.79031  Biso   1.000  C
  C135     1.0000 0.86005  0.66683  0.66745  Biso   1.000  C
  C136     1.0000 0.86002  0.66675  0.66745  Biso   1.000  C
  C137     1.0000 0.85996  0.66683  0.66745  Biso   1.000  C
  C138     1.0000 0.85994  0.66675  0.66745  Biso   1.000  C
  C139     1.0000 0.98916  0.60730  0.84982  Biso   1.000  C
  C140     1.0000 0.98914  0.60722  0.84982  Biso   1.000  C
  C141     1.0000 0.98922  0.60722  0.84982  Biso   1.000  C
  C142     1.0000 0.01323  0.64546  0.03799  Biso   1.000  C
  C143     1.0000 0.01333  0.64554  0.03799  Biso   1.000  C
  C144     1.0000 0.01331  0.64546  0.03799  Biso   1.000  C
  C145     1.0000 0.01325  0.64554  0.03799  Biso   1.000  C
  O37      1.0000 0.82178  0.87268  0.61963  Biso   1.000  O
  O38      1.0000 0.82170  0.87268  0.61963  Biso   1.000  O
  H128     1.0000 0.64280  0.94195  0.58437  Biso   1.000  H
  H129     1.0000 0.52112  0.87603  0.59530  Biso   1.000  H
  N93      1.0000 0.63361  0.00009  0.72576  Biso   1.000  N
  H130     1.0000 0.64290  0.94189  0.58446  Biso   1.000  H
  N94      1.0000 0.63367  0.00001  0.72576  Biso   1.000  N
  H131     1.0000 0.64286  0.94187  0.58437  Biso   1.000  H
  H132     1.0000 0.52118  0.87595  0.59530  Biso   1.000  H
  H133     1.0000 0.64282  0.94189  0.58446  Biso   1.000  H
  N95      1.0000 0.63359  0.00001  0.72576  Biso   1.000  N
  H134     1.0000 0.64288  0.94195  0.58437  Biso   1.000  H
  N96      1.0000 0.63369  0.00009  0.72576  Biso   1.000  N
  H135     1.0000 0.64278  0.94187  0.58437  Biso   1.000  H
  H136     1.0000 0.52110  0.87595  0.59530  Biso   1.000  H
  O39      1.0000 0.65341  0.95555  0.07445  Biso   1.000  O
  O40      1.0000 0.65339  0.95547  0.07445  Biso   1.000  O
  O41      1.0000 0.65347  0.95547  0.07445  Biso   1.000  O
  O42      1.0000 0.65349  0.95555  0.07445  Biso   1.000  O
  N97      1.0000 0.65279  0.09750  0.97644  Biso   1.000  N
  N98      1.0000 0.65273  0.09758  0.97644  Biso   1.000  N
  N99      1.0000 0.65271  0.09750  0.97644  Biso   1.000  N
  N100     1.0000 0.65281  0.09758  0.97644  Biso   1.000  N
  H137     1.0000 0.47096  0.97507  0.73908  Biso   1.000  H
  H138     1.0000 0.47094  0.97499  0.73908  Biso   1.000  H
  H139     1.0000 0.47086  0.97499  0.73908  Biso   1.000  H
  C146     1.0000 0.61174  0.11308  0.85998  Biso   1.000  C
  C147     1.0000 0.61182  0.11308  0.85998  Biso   1.000  C
  N101     1.0000 0.97405  0.67593  0.76563  Biso   1.000  N
  H140     1.0000 0.88053  0.70104  0.60913  Biso   1.000  H
  H141     1.0000 0.81501  0.58875  0.63432  Biso   1.000  H
  N102     1.0000 0.97402  0.67585  0.76563  Biso   1.000  N
  H142     1.0000 0.88059  0.70096  0.60913  Biso   1.000  H
  H143     1.0000 0.81507  0.58867  0.63432  Biso   1.000  H
  N103     1.0000 0.97394  0.67585  0.76563  Biso   1.000  N
  H144     1.0000 0.81499  0.58867  0.63432  Biso   1.000  H
  H145     1.0000 0.81509  0.58875  0.63432  Biso   1.000  H
  H146     1.0000 0.88051  0.70096  0.60913  Biso   1.000  H
  H147     1.0000 0.96663  0.52925  0.81421  Biso   1.000  H
  H148     1.0000 0.96661  0.52917  0.81421  Biso   1.000  H
  C148     1.0000 0.12936  0.65358  0.93246  Biso   1.000  C
  C149     1.0000 0.12928  0.65358  0.93246  Biso   1.000  C
  C150     1.0000 0.12934  0.65350  0.93246  Biso   1.000  C
  O43      1.0000 0.98746  0.64544  0.11902  Biso   1.000  O
  O44      1.0000 0.98752  0.64536  0.11902  Biso   1.000  O
  O45      1.0000 0.98744  0.64536  0.11902  Biso   1.000  O
  O46      1.0000 0.98754  0.64544  0.11902  Biso   1.000  O
  N104     1.0000 0.13007  0.66745  0.04414  Biso   1.000  N
  N105     1.0000 0.13015  0.66745  0.04414  Biso   1.000  N
  C151     1.0000 0.71817  0.10046  0.74813  Biso   1.000  C
  C152     1.0000 0.71819  0.10054  0.74813  Biso   1.000  C
  C153     1.0000 0.71808  0.10046  0.74813  Biso   1.000  C
  C154     1.0000 0.70234  0.18660  0.07155  Biso   1.000  C
  C155     1.0000 0.70245  0.18668  0.07155  Biso   1.000  C
  C156     1.0000 0.70242  0.18660  0.07155  Biso   1.000  C
  N106     1.0000 0.71040  0.16677  0.83052  Biso   1.000  N
  H149     1.0000 0.54597  0.14971  0.83880  Biso   1.000  H
  N107     1.0000 0.71034  0.16685  0.83052  Biso   1.000  N
  H150     1.0000 0.54589  0.14971  0.83880  Biso   1.000  H
  N108     1.0000 0.71032  0.16677  0.83052  Biso   1.000  N
  N109     1.0000 0.71043  0.16685  0.83052  Biso   1.000  N
  C157     1.0000 0.08038  0.75918  0.79150  Biso   1.000  C
  C158     1.0000 0.08046  0.75918  0.79150  Biso   1.000  C
  N110     1.0000 0.16866  0.75388  0.89456  Biso   1.000  N
  H151     1.0000 0.17535  0.60207  0.92589  Biso   1.000  H
  H152     1.0000 0.17525  0.60199  0.92589  Biso   1.000  H
  H153     1.0000 0.17533  0.60199  0.92589  Biso   1.000  H
  N111     1.0000 0.16874  0.75388  0.89456  Biso   1.000  N
  C159     1.0000 0.24066  0.71551  0.15027  Biso   1.000  C
  C160     1.0000 0.24068  0.71559  0.15027  Biso   1.000  C
  O47      1.0000 0.78732  0.12687  0.70279  Biso   1.000  O
  O48      1.0000 0.78723  0.12687  0.70279  Biso   1.000  O
  N112     1.0000 0.83141  0.24634  0.10544  Biso   1.000  N
  H154     1.0000 0.65275  0.23748  0.05089  Biso   1.000  H
  H155     1.0000 0.69432  0.15777  0.13746  Biso   1.000  H
  N113     1.0000 0.83130  0.24626  0.10544  Biso   1.000  N
  H156     1.0000 0.65273  0.23740  0.05089  Biso   1.000  H
  H157     1.0000 0.69430  0.15769  0.13746  Biso   1.000  H
  H158     1.0000 0.69440  0.15777  0.13746  Biso   1.000  H
  N114     1.0000 0.83138  0.24626  0.10544  Biso   1.000  N
  C161     1.0000 0.75939  0.28464  0.84973  Biso   1.000  C
  O49      1.0000 0.09387  0.82490  0.73140  Biso   1.000  O
  O50      1.0000 0.09377  0.82482  0.73140  Biso   1.000  O
  C162     1.0000 0.29773  0.81363  0.92845  Biso   1.000  C
  C163     1.0000 0.29762  0.81355  0.92845  Biso   1.000  C
  C164     1.0000 0.29770  0.81355  0.92845  Biso   1.000  C
  N115     1.0000 0.28964  0.83338  0.16948  Biso   1.000  N
  H159     1.0000 0.30549  0.68375  0.15069  Biso   1.000  H
  H160     1.0000 0.22162  0.69532  0.21447  Biso   1.000  H
  H161     1.0000 0.30557  0.68375  0.15069  Biso   1.000  H
  H162     1.0000 0.22164  0.69540  0.21447  Biso   1.000  H
  N116     1.0000 0.28972  0.83338  0.16948  Biso   1.000  N
  C165     1.0000 0.91969  0.24105  0.20850  Biso   1.000  C
  C166     1.0000 0.87071  0.34665  0.06754  Biso   1.000  C
  C167     1.0000 0.91967  0.24097  0.20850  Biso   1.000  C
  C168     1.0000 0.87069  0.34657  0.06754  Biso   1.000  C
  C169     1.0000 0.87079  0.34665  0.06754  Biso   1.000  C
  N117     1.0000 0.86998  0.33270  0.95586  Biso   1.000  N
  H163     1.0000 0.69456  0.31640  0.84931  Biso   1.000  H
  H164     1.0000 0.77843  0.30482  0.78553  Biso   1.000  H
  N118     1.0000 0.87000  0.33278  0.95586  Biso   1.000  N
  H165     1.0000 0.69450  0.31648  0.84931  Biso   1.000  H
  H166     1.0000 0.69448  0.31640  0.84931  Biso   1.000  H
  H167     1.0000 0.69458  0.31648  0.84931  Biso   1.000  H
  N119     1.0000 0.86990  0.33270  0.95586  Biso   1.000  N
  H168     1.0000 0.34732  0.76275  0.94911  Biso   1.000  H
  H169     1.0000 0.30575  0.84246  0.86254  Biso   1.000  H
  H170     1.0000 0.30573  0.84238  0.86254  Biso   1.000  H
  N120     1.0000 0.34726  0.90264  0.02356  Biso   1.000  N
  N121     1.0000 0.34734  0.90264  0.02356  Biso   1.000  N
  C170     1.0000 0.28188  0.89969  0.25187  Biso   1.000  C
  C171     1.0000 0.38831  0.88707  0.14002  Biso   1.000  C
  C172     1.0000 0.38833  0.88715  0.14002  Biso   1.000  C
  C173     1.0000 0.28198  0.89977  0.25187  Biso   1.000  C
  C174     1.0000 0.28190  0.89977  0.25187  Biso   1.000  C
  O51      1.0000 0.90620  0.17533  0.26860  Biso   1.000  O
  O52      1.0000 0.90628  0.17533  0.26860  Biso   1.000  O
  N122     1.0000 0.02602  0.32430  0.23437  Biso   1.000  N
  N123     1.0000 0.02613  0.32438  0.23437  Biso   1.000  N
  N124     1.0000 0.02610  0.32430  0.23437  Biso   1.000  N
  N125     1.0000 0.02604  0.32438  0.23437  Biso   1.000  N
  H171     1.0000 0.82472  0.39816  0.07411  Biso   1.000  H
  H172     1.0000 0.82480  0.39816  0.07411  Biso   1.000  H
  C175     1.0000 0.01091  0.39293  0.15018  Biso   1.000  C
  C176     1.0000 0.01093  0.39301  0.15018  Biso   1.000  C
  C177     1.0000 0.01085  0.39301  0.15018  Biso   1.000  C
  C178     1.0000 0.98682  0.35469  0.96201  Biso   1.000  C
  C179     1.0000 0.98674  0.35469  0.96201  Biso   1.000  C
  C180     1.0000 0.36579  0.00941  0.01375  Biso   1.000  C
  C181     1.0000 0.36589  0.00949  0.01375  Biso   1.000  C
  C182     1.0000 0.36587  0.00941  0.01375  Biso   1.000  C
  C183     1.0000 0.36581  0.00949  0.01375  Biso   1.000  C
  O53      1.0000 0.21273  0.87328  0.29721  Biso   1.000  O
  O54      1.0000 0.21275  0.87336  0.29721  Biso   1.000  O
  O55      1.0000 0.21284  0.87336  0.29721  Biso   1.000  O
  N126     1.0000 0.36646  0.00013  0.27424  Biso   1.000  N
  N127     1.0000 0.36648  0.00021  0.27424  Biso   1.000  N
  N128     1.0000 0.36638  0.00013  0.27424  Biso   1.000  N
  N129     1.0000 0.36640  0.00021  0.27424  Biso   1.000  N
  H173     1.0000 0.45408  0.85043  0.16120  Biso   1.000  H
  H174     1.0000 0.45418  0.85051  0.16120  Biso   1.000  H
  H175     1.0000 0.45416  0.85043  0.16120  Biso   1.000  H
  H176     1.0000 0.45410  0.85051  0.16120  Biso   1.000  H
  C184     1.0000 0.43846  0.00466  0.20969  Biso   1.000  C
  C185     1.0000 0.43848  0.00474  0.20969  Biso   1.000  C
  C186     1.0000 0.43854  0.00466  0.20969  Biso   1.000  C
  C187     1.0000 0.14002  0.33340  0.33255  Biso   1.000  C
  C188     1.0000 0.14011  0.33340  0.33255  Biso   1.000  C
  C189     1.0000 0.14000  0.33332  0.33255  Biso   1.000  C
  N130     1.0000 0.06988  0.38178  0.07513  Biso   1.000  N
  H177     1.0000 0.03344  0.47098  0.18579  Biso   1.000  H
  N131     1.0000 0.06991  0.38186  0.07513  Biso   1.000  N
  N132     1.0000 0.06999  0.38186  0.07513  Biso   1.000  N
  H178     1.0000 0.03352  0.47098  0.18579  Biso   1.000  H
  H179     1.0000 0.03342  0.47090  0.18579  Biso   1.000  H
  O56      1.0000 0.01253  0.35478  0.88098  Biso   1.000  O
  O57      1.0000 0.01261  0.35478  0.88098  Biso   1.000  O
  O58      1.0000 0.34658  0.04467  0.92555  Biso   1.000  O
  O59      1.0000 0.34666  0.04467  0.92555  Biso   1.000  O
  N133     1.0000 0.41240  0.07061  0.12132  Biso   1.000  N
  N134     1.0000 0.41238  0.07053  0.12132  Biso   1.000  N
  N135     1.0000 0.41232  0.07061  0.12132  Biso   1.000  N
  C190     1.0000 0.38855  0.08852  0.36150  Biso   1.000  C
  C191     1.0000 0.38863  0.08852  0.36150  Biso   1.000  C
  C192     1.0000 0.38853  0.08844  0.36150  Biso   1.000  C
  H180     1.0000 0.52911  0.02515  0.26092  Biso   1.000  H
  H181     1.0000 0.52921  0.02523  0.26092  Biso   1.000  H
  H182     1.0000 0.52919  0.02515  0.26092  Biso   1.000  H
  H183     1.0000 0.52913  0.02523  0.26092  Biso   1.000  H
  N136     1.0000 0.22093  0.28350  0.30796  Biso   1.000  N
  H184     1.0000 0.11954  0.29919  0.39087  Biso   1.000  H
  H185     1.0000 0.18506  0.41148  0.36568  Biso   1.000  H
  N137     1.0000 0.22095  0.28358  0.30796  Biso   1.000  N
  H186     1.0000 0.18508  0.41156  0.36568  Biso   1.000  H
  N138     1.0000 0.22101  0.28350  0.30796  Biso   1.000  N
  H187     1.0000 0.18498  0.41148  0.36568  Biso   1.000  H
  H188     1.0000 0.11946  0.29919  0.39087  Biso   1.000  H
  H189     1.0000 0.18500  0.41156  0.36568  Biso   1.000  H
  C193     1.0000 0.20192  0.42591  0.11023  Biso   1.000  C
  C194     1.0000 0.20194  0.42599  0.11023  Biso   1.000  C
  C195     1.0000 0.20186  0.42599  0.11023  Biso   1.000  C
  C196     1.0000 0.46204  0.18852  0.14472  Biso   1.000  C
  C197     1.0000 0.46206  0.18860  0.14472  Biso   1.000  C
  C198     1.0000 0.46212  0.18852  0.14472  Biso   1.000  C
  N139     1.0000 0.33014  0.16980  0.31616  Biso   1.000  N
  H190     1.0000 0.35727  0.05827  0.41563  Biso   1.000  H
  H191     1.0000 0.47895  0.12420  0.40470  Biso   1.000  H
  N140     1.0000 0.33024  0.16988  0.31616  Biso   1.000  N
  H192     1.0000 0.35729  0.05835  0.41563  Biso   1.000  H
  N141     1.0000 0.33022  0.16980  0.31616  Biso   1.000  N
  H193     1.0000 0.35719  0.05827  0.41563  Biso   1.000  H
  H194     1.0000 0.47892  0.12412  0.40470  Biso   1.000  H
  N142     1.0000 0.33016  0.16988  0.31616  Biso   1.000  N
  H195     1.0000 0.35721  0.05835  0.41563  Biso   1.000  H
  H196     1.0000 0.47886  0.12420  0.40470  Biso   1.000  H
  C199     1.0000 0.23689  0.18704  0.33930  Biso   1.000  C
  C200     1.0000 0.31521  0.34179  0.27612  Biso   1.000  C
  C201     1.0000 0.23691  0.18712  0.33930  Biso   1.000  C
  C202     1.0000 0.31523  0.34187  0.27612  Biso   1.000  C
  C203     1.0000 0.23697  0.18704  0.33930  Biso   1.000  C
  C204     1.0000 0.31513  0.34179  0.27612  Biso   1.000  C
  C205     1.0000 0.31515  0.34187  0.27612  Biso   1.000  C
  N143     1.0000 0.27037  0.35206  0.15727  Biso   1.000  N
  H197     1.0000 0.23485  0.49351  0.16803  Biso   1.000  H
  H198     1.0000 0.21566  0.44585  0.04337  Biso   1.000  H
  N144     1.0000 0.27047  0.35214  0.15727  Biso   1.000  N
  H199     1.0000 0.23493  0.49351  0.16803  Biso   1.000  H
  N145     1.0000 0.27045  0.35206  0.15727  Biso   1.000  N
  H200     1.0000 0.23482  0.49343  0.16803  Biso   1.000  H
  H201     1.0000 0.21558  0.44585  0.04337  Biso   1.000  H
  N146     1.0000 0.27039  0.35214  0.15727  Biso   1.000  N
  N147     1.0000 0.38760  0.24481  0.17238  Biso   1.000  N
  H202     1.0000 0.47099  0.21197  0.07693  Biso   1.000  H
  H203     1.0000 0.54572  0.21076  0.20909  Biso   1.000  H
  N148     1.0000 0.38770  0.24489  0.17238  Biso   1.000  N
  H204     1.0000 0.54580  0.21076  0.20909  Biso   1.000  H
  N149     1.0000 0.38768  0.24481  0.17238  Biso   1.000  N
  H205     1.0000 0.47089  0.21189  0.07693  Biso   1.000  H
  N150     1.0000 0.38762  0.24489  0.17238  Biso   1.000  N
  H206     1.0000 0.47091  0.21197  0.07693  Biso   1.000  H
  H207     1.0000 0.47097  0.21189  0.07693  Biso   1.000  H
  C206     1.0000 0.39412  0.26419  0.28577  Biso   1.000  C
  C207     1.0000 0.39422  0.26427  0.28577  Biso   1.000  C
  C208     1.0000 0.39420  0.26419  0.28577  Biso   1.000  C
  C209     1.0000 0.39414  0.26427  0.28577  Biso   1.000  C
  O60      1.0000 0.17829  0.12754  0.38037  Biso   1.000  O
  O61      1.0000 0.17837  0.12754  0.38037  Biso   1.000  O
  O62      1.0000 0.17827  0.12746  0.38037  Biso   1.000  O
  H208     1.0000 0.36562  0.41388  0.32820  Biso   1.000  H
  H209     1.0000 0.36572  0.41396  0.32820  Biso   1.000  H
  H210     1.0000 0.36570  0.41388  0.32820  Biso   1.000  H
  H211     1.0000 0.36564  0.41396  0.32820  Biso   1.000  H
  C210     1.0000 0.31587  0.29697  0.09836  Biso   1.000  C
  C211     1.0000 0.31589  0.29705  0.09836  Biso   1.000  C
  C212     1.0000 0.31597  0.29705  0.09836  Biso   1.000  C
  H212     1.0000 0.48132  0.29800  0.34510  Biso   1.000  H
  H213     1.0000 0.48140  0.29800  0.34510  Biso   1.000  H
  H214     1.0000 0.48130  0.29792  0.34510  Biso   1.000  H
  O63      1.0000 0.29653  0.29599  0.99863  Biso   1.000  O
  O64      1.0000 0.29661  0.29599  0.99863  Biso   1.000  O
  C213     1.0000 0.68420  0.70326  0.90164  Biso   1.000  C
  O65      1.0000 0.70343  0.70416  0.00137  Biso   1.000  O
  N151     1.0000 0.61247  0.75541  0.82762  Biso   1.000  N
  N152     1.0000 0.72970  0.64817  0.84273  Biso   1.000  N
  N153     1.0000 0.61245  0.75533  0.82762  Biso   1.000  N
  N154     1.0000 0.72968  0.64809  0.84273  Biso   1.000  N
  N155     1.0000 0.72960  0.64809  0.84273  Biso   1.000  N
  N156     1.0000 0.61237  0.75533  0.82762  Biso   1.000  N
  O66      1.0000 0.70351  0.70416  0.00137  Biso   1.000  O
  O67      1.0000 0.70346  0.70424  0.00137  Biso   1.000  O
  O68      1.0000 0.70354  0.70424  0.00137  Biso   1.000  O
  C214     1.0000 0.68418  0.70318  0.90164  Biso   1.000  C
  C215     1.0000 0.68410  0.70318  0.90164  Biso   1.000  C
  C216     1.0000 0.60595  0.73603  0.71423  Biso   1.000  C
  C217     1.0000 0.53803  0.81171  0.85528  Biso   1.000  C
  C218     1.0000 0.60593  0.73595  0.71423  Biso   1.000  C
  C219     1.0000 0.53801  0.81163  0.85528  Biso   1.000  C
  C220     1.0000 0.60585  0.73595  0.71423  Biso   1.000  C
  C221     1.0000 0.68486  0.65844  0.72388  Biso   1.000  C
  C222     1.0000 0.79815  0.57432  0.88977  Biso   1.000  C
  C223     1.0000 0.68492  0.65836  0.72388  Biso   1.000  C
  C224     1.0000 0.79813  0.57424  0.88977  Biso   1.000  C
  C225     1.0000 0.79821  0.57424  0.88977  Biso   1.000  C
  C226     1.0000 0.68484  0.65836  0.72388  Biso   1.000  C
  C227     1.0000 0.68494  0.65844  0.72388  Biso   1.000  C
  N157     1.0000 0.66993  0.83042  0.68384  Biso   1.000  N
  H215     1.0000 0.51875  0.70223  0.65490  Biso   1.000  H
  N158     1.0000 0.66991  0.83034  0.68384  Biso   1.000  N
  H216     1.0000 0.51873  0.70215  0.65490  Biso   1.000  H
  N159     1.0000 0.66983  0.83034  0.68384  Biso   1.000  N
  H217     1.0000 0.51867  0.70223  0.65490  Biso   1.000  H
  H218     1.0000 0.51865  0.70215  0.65490  Biso   1.000  H
  H219     1.0000 0.52908  0.78826  0.92307  Biso   1.000  H
  H220     1.0000 0.45435  0.78946  0.79091  Biso   1.000  H
  N160     1.0000 0.58767  0.92962  0.87868  Biso   1.000  N
  H221     1.0000 0.52916  0.78826  0.92307  Biso   1.000  H
  H222     1.0000 0.45433  0.78938  0.79091  Biso   1.000  H
  N161     1.0000 0.58775  0.92962  0.87868  Biso   1.000  N
  H223     1.0000 0.52914  0.78818  0.92307  Biso   1.000  H
  H224     1.0000 0.45425  0.78938  0.79091  Biso   1.000  H
  H225     1.0000 0.52906  0.78818  0.92307  Biso   1.000  H
  N162     1.0000 0.77914  0.71673  0.69204  Biso   1.000  N
  H226     1.0000 0.63445  0.58635  0.67180  Biso   1.000  H
  N163     1.0000 0.77912  0.71665  0.69204  Biso   1.000  N
  H227     1.0000 0.63443  0.58627  0.67180  Biso   1.000  H
  H228     1.0000 0.63435  0.58627  0.67180  Biso   1.000  H
  N164     1.0000 0.77904  0.71665  0.69204  Biso   1.000  N
  N165     1.0000 0.93019  0.61844  0.92487  Biso   1.000  N
  H229     1.0000 0.76522  0.50672  0.83197  Biso   1.000  H
  H230     1.0000 0.78441  0.55438  0.95663  Biso   1.000  H
  N166     1.0000 0.93016  0.61836  0.92487  Biso   1.000  N
  H231     1.0000 0.78447  0.55430  0.95663  Biso   1.000  H
  H232     1.0000 0.78449  0.55438  0.95663  Biso   1.000  H
  N167     1.0000 0.93008  0.61836  0.92487  Biso   1.000  N
  H233     1.0000 0.76514  0.50672  0.83197  Biso   1.000  H
  H234     1.0000 0.78439  0.55430  0.95663  Biso   1.000  H
  C228     1.0000 0.76318  0.81319  0.66070  Biso   1.000  C
  C229     1.0000 0.61152  0.91170  0.63850  Biso   1.000  C
  C230     1.0000 0.76316  0.81311  0.66070  Biso   1.000  C
  C231     1.0000 0.61150  0.91162  0.63850  Biso   1.000  C
  C232     1.0000 0.76308  0.81311  0.66070  Biso   1.000  C
  C233     1.0000 0.61144  0.91170  0.63850  Biso   1.000  C
  C234     1.0000 0.61142  0.91162  0.63850  Biso   1.000  C
  C235     1.0000 0.63428  0.99082  0.98625  Biso   1.000  C
  C236     1.0000 0.56161  0.99557  0.79031  Biso   1.000  C
  C237     1.0000 0.63426  0.99074  0.98625  Biso   1.000  C
  C238     1.0000 0.56159  0.99549  0.79031  Biso   1.000  C
  C239     1.0000 0.63418  0.99074  0.98625  Biso   1.000  C
  C240     1.0000 0.56151  0.99549  0.79031  Biso   1.000  C
  C241     1.0000 0.86005  0.66683  0.66745  Biso   1.000  C
  C242     1.0000 0.86002  0.66675  0.66745  Biso   1.000  C
  C243     1.0000 0.85996  0.66683  0.66745  Biso   1.000  C
  C244     1.0000 0.85994  0.66675  0.66745  Biso   1.000  C
  C245     1.0000 0.98916  0.60730  0.84982  Biso   1.000  C
  C246     1.0000 0.98914  0.60722  0.84982  Biso   1.000  C
  C247     1.0000 0.98922  0.60722  0.84982  Biso   1.000  C
  C248     1.0000 0.01323  0.64546  0.03799  Biso   1.000  C
  C249     1.0000 0.01333  0.64554  0.03799  Biso   1.000  C
  C250     1.0000 0.01331  0.64546  0.03799  Biso   1.000  C
  C251     1.0000 0.01325  0.64554  0.03799  Biso   1.000  C
  O69      1.0000 0.82178  0.87268  0.61963  Biso   1.000  O
  O70      1.0000 0.82170  0.87268  0.61963  Biso   1.000  O
  H235     1.0000 0.64280  0.94195  0.58437  Biso   1.000  H
  H236     1.0000 0.52112  0.87603  0.59530  Biso   1.000  H
  N168     1.0000 0.63361  0.00009  0.72576  Biso   1.000  N
  H237     1.0000 0.64290  0.94189  0.58446  Biso   1.000  H
  N169     1.0000 0.63367  0.00001  0.72576  Biso   1.000  N
  H238     1.0000 0.64286  0.94187  0.58437  Biso   1.000  H
  H239     1.0000 0.52118  0.87595  0.59530  Biso   1.000  H
  H240     1.0000 0.64282  0.94189  0.58446  Biso   1.000  H
  N170     1.0000 0.63359  0.00001  0.72576  Biso   1.000  N
  H241     1.0000 0.64288  0.94195  0.58437  Biso   1.000  H
  N171     1.0000 0.63369  0.00009  0.72576  Biso   1.000  N
  H242     1.0000 0.64278  0.94187  0.58437  Biso   1.000  H
  H243     1.0000 0.52110  0.87595  0.59530  Biso   1.000  H
  O71      1.0000 0.65341  0.95555  0.07445  Biso   1.000  O
  O72      1.0000 0.65339  0.95547  0.07445  Biso   1.000  O
  O73      1.0000 0.65347  0.95547  0.07445  Biso   1.000  O
  O74      1.0000 0.65349  0.95555  0.07445  Biso   1.000  O
  N172     1.0000 0.65279  0.09750  0.97644  Biso   1.000  N
  N173     1.0000 0.65273  0.09758  0.97644  Biso   1.000  N
  N174     1.0000 0.65271  0.09750  0.97644  Biso   1.000  N
  N175     1.0000 0.65281  0.09758  0.97644  Biso   1.000  N
  H244     1.0000 0.47096  0.97507  0.73908  Biso   1.000  H
  H245     1.0000 0.47094  0.97499  0.73908  Biso   1.000  H
  H246     1.0000 0.47086  0.97499  0.73908  Biso   1.000  H
  C252     1.0000 0.61174  0.11308  0.85998  Biso   1.000  C
  C253     1.0000 0.61182  0.11308  0.85998  Biso   1.000  C
  N176     1.0000 0.97405  0.67593  0.76563  Biso   1.000  N
  H247     1.0000 0.88053  0.70104  0.60913  Biso   1.000  H
  H248     1.0000 0.81501  0.58875  0.63432  Biso   1.000  H
  N177     1.0000 0.97402  0.67585  0.76563  Biso   1.000  N
  H249     1.0000 0.88059  0.70096  0.60913  Biso   1.000  H
  H250     1.0000 0.81507  0.58867  0.63432  Biso   1.000  H
  N178     1.0000 0.97394  0.67585  0.76563  Biso   1.000  N
  H251     1.0000 0.81499  0.58867  0.63432  Biso   1.000  H
  H252     1.0000 0.81509  0.58875  0.63432  Biso   1.000  H
  H253     1.0000 0.88051  0.70096  0.60913  Biso   1.000  H
  H254     1.0000 0.96663  0.52925  0.81421  Biso   1.000  H
  H255     1.0000 0.96661  0.52917  0.81421  Biso   1.000  H
  C254     1.0000 0.12936  0.65358  0.93246  Biso   1.000  C
  C255     1.0000 0.12928  0.65358  0.93246  Biso   1.000  C
  C256     1.0000 0.12934  0.65350  0.93246  Biso   1.000  C
  O75      1.0000 0.98746  0.64544  0.11902  Biso   1.000  O
  O76      1.0000 0.98752  0.64536  0.11902  Biso   1.000  O
  O77      1.0000 0.98744  0.64536  0.11902  Biso   1.000  O
  O78      1.0000 0.98754  0.64544  0.11902  Biso   1.000  O
  N179     1.0000 0.13007  0.66745  0.04414  Biso   1.000  N
  N180     1.0000 0.13015  0.66745  0.04414  Biso   1.000  N
  C257     1.0000 0.71817  0.10046  0.74813  Biso   1.000  C
  C258     1.0000 0.71819  0.10054  0.74813  Biso   1.000  C
  C259     1.0000 0.71808  0.10046  0.74813  Biso   1.000  C
  C260     1.0000 0.70234  0.18660  0.07155  Biso   1.000  C
  C261     1.0000 0.70245  0.18668  0.07155  Biso   1.000  C
  C262     1.0000 0.70242  0.18660  0.07155  Biso   1.000  C
  N181     1.0000 0.71040  0.16677  0.83052  Biso   1.000  N
  H256     1.0000 0.54597  0.14971  0.83880  Biso   1.000  H
  N182     1.0000 0.71034  0.16685  0.83052  Biso   1.000  N
  H257     1.0000 0.54589  0.14971  0.83880  Biso   1.000  H
  N183     1.0000 0.71032  0.16677  0.83052  Biso   1.000  N
  N184     1.0000 0.71043  0.16685  0.83052  Biso   1.000  N
  C263     1.0000 0.08038  0.75918  0.79150  Biso   1.000  C
  C264     1.0000 0.08046  0.75918  0.79150  Biso   1.000  C
  N185     1.0000 0.16866  0.75388  0.89456  Biso   1.000  N
  H258     1.0000 0.17535  0.60207  0.92589  Biso   1.000  H
  H259     1.0000 0.17525  0.60199  0.92589  Biso   1.000  H
  H260     1.0000 0.17533  0.60199  0.92589  Biso   1.000  H
  N186     1.0000 0.16874  0.75388  0.89456  Biso   1.000  N
  C265     1.0000 0.24066  0.71551  0.15027  Biso   1.000  C
  C266     1.0000 0.24068  0.71559  0.15027  Biso   1.000  C
  O79      1.0000 0.78732  0.12687  0.70279  Biso   1.000  O
  O80      1.0000 0.78723  0.12687  0.70279  Biso   1.000  O
  N187     1.0000 0.83141  0.24634  0.10544  Biso   1.000  N
  H261     1.0000 0.65275  0.23748  0.05089  Biso   1.000  H
  H262     1.0000 0.69432  0.15777  0.13746  Biso   1.000  H
  N188     1.0000 0.83130  0.24626  0.10544  Biso   1.000  N
  H263     1.0000 0.65273  0.23740  0.05089  Biso   1.000  H
  H264     1.0000 0.69430  0.15769  0.13746  Biso   1.000  H
  H265     1.0000 0.69440  0.15777  0.13746  Biso   1.000  H
  N189     1.0000 0.83138  0.24626  0.10544  Biso   1.000  N
  C267     1.0000 0.75939  0.28464  0.84973  Biso   1.000  C
  O81      1.0000 0.09387  0.82490  0.73140  Biso   1.000  O
  O82      1.0000 0.09377  0.82482  0.73140  Biso   1.000  O
  C268     1.0000 0.29773  0.81363  0.92845  Biso   1.000  C
  C269     1.0000 0.29762  0.81355  0.92845  Biso   1.000  C
  C270     1.0000 0.29770  0.81355  0.92845  Biso   1.000  C
  N190     1.0000 0.28964  0.83338  0.16948  Biso   1.000  N
  H266     1.0000 0.30549  0.68375  0.15069  Biso   1.000  H
  H267     1.0000 0.22162  0.69532  0.21447  Biso   1.000  H
  H268     1.0000 0.30557  0.68375  0.15069  Biso   1.000  H
  H269     1.0000 0.22164  0.69540  0.21447  Biso   1.000  H
  N191     1.0000 0.28972  0.83338  0.16948  Biso   1.000  N
  C271     1.0000 0.91969  0.24105  0.20850  Biso   1.000  C
  C272     1.0000 0.87071  0.34665  0.06754  Biso   1.000  C
  C273     1.0000 0.91967  0.24097  0.20850  Biso   1.000  C
  C274     1.0000 0.87069  0.34657  0.06754  Biso   1.000  C
  C275     1.0000 0.87079  0.34665  0.06754  Biso   1.000  C
  N192     1.0000 0.86998  0.33270  0.95586  Biso   1.000  N
  H270     1.0000 0.69456  0.31640  0.84931  Biso   1.000  H
  H271     1.0000 0.77843  0.30482  0.78553  Biso   1.000  H
  N193     1.0000 0.87000  0.33278  0.95586  Biso   1.000  N
  H272     1.0000 0.69450  0.31648  0.84931  Biso   1.000  H
  H273     1.0000 0.69448  0.31640  0.84931  Biso   1.000  H
  H274     1.0000 0.69458  0.31648  0.84931  Biso   1.000  H
  N194     1.0000 0.86990  0.33270  0.95586  Biso   1.000  N
  H275     1.0000 0.34732  0.76275  0.94911  Biso   1.000  H
  H276     1.0000 0.30575  0.84246  0.86254  Biso   1.000  H
  H277     1.0000 0.30573  0.84238  0.86254  Biso   1.000  H
  N195     1.0000 0.34726  0.90264  0.02356  Biso   1.000  N
  N196     1.0000 0.34734  0.90264  0.02356  Biso   1.000  N
  C276     1.0000 0.28188  0.89969  0.25187  Biso   1.000  C
  C277     1.0000 0.38831  0.88707  0.14002  Biso   1.000  C
  C278     1.0000 0.38833  0.88715  0.14002  Biso   1.000  C
  C279     1.0000 0.28198  0.89977  0.25187  Biso   1.000  C
  C280     1.0000 0.28190  0.89977  0.25187  Biso   1.000  C
  O83      1.0000 0.90620  0.17533  0.26860  Biso   1.000  O
  O84      1.0000 0.90628  0.17533  0.26860  Biso   1.000  O
  N197     1.0000 0.02602  0.32430  0.23437  Biso   1.000  N
  N198     1.0000 0.02613  0.32438  0.23437  Biso   1.000  N
  N199     1.0000 0.02610  0.32430  0.23437  Biso   1.000  N
  N200     1.0000 0.02604  0.32438  0.23437  Biso   1.000  N
  H278     1.0000 0.82472  0.39816  0.07411  Biso   1.000  H
  H279     1.0000 0.82480  0.39816  0.07411  Biso   1.000  H
  C281     1.0000 0.01091  0.39293  0.15018  Biso   1.000  C
  C282     1.0000 0.01093  0.39301  0.15018  Biso   1.000  C
  C283     1.0000 0.01085  0.39301  0.15018  Biso   1.000  C
  C284     1.0000 0.98682  0.35469  0.96201  Biso   1.000  C
  C285     1.0000 0.98674  0.35469  0.96201  Biso   1.000  C
  C286     1.0000 0.36579  0.00941  0.01375  Biso   1.000  C
  C287     1.0000 0.36589  0.00949  0.01375  Biso   1.000  C
  C288     1.0000 0.36587  0.00941  0.01375  Biso   1.000  C
  C289     1.0000 0.36581  0.00949  0.01375  Biso   1.000  C
  O85      1.0000 0.21273  0.87328  0.29721  Biso   1.000  O
  O86      1.0000 0.21275  0.87336  0.29721  Biso   1.000  O
  O87      1.0000 0.21284  0.87336  0.29721  Biso   1.000  O
  N201     1.0000 0.36646  0.00013  0.27424  Biso   1.000  N
  N202     1.0000 0.36648  0.00021  0.27424  Biso   1.000  N
  N203     1.0000 0.36638  0.00013  0.27424  Biso   1.000  N
  N204     1.0000 0.36640  0.00021  0.27424  Biso   1.000  N
  H280     1.0000 0.45408  0.85043  0.16120  Biso   1.000  H
  H281     1.0000 0.45418  0.85051  0.16120  Biso   1.000  H
  H282     1.0000 0.45416  0.85043  0.16120  Biso   1.000  H
  H283     1.0000 0.45410  0.85051  0.16120  Biso   1.000  H
  C290     1.0000 0.43846  0.00466  0.20969  Biso   1.000  C
  C291     1.0000 0.43848  0.00474  0.20969  Biso   1.000  C
  C292     1.0000 0.43854  0.00466  0.20969  Biso   1.000  C
  C293     1.0000 0.14002  0.33340  0.33255  Biso   1.000  C
  C294     1.0000 0.14011  0.33340  0.33255  Biso   1.000  C
  C295     1.0000 0.14000  0.33332  0.33255  Biso   1.000  C
  N205     1.0000 0.06988  0.38178  0.07513  Biso   1.000  N
  H284     1.0000 0.03344  0.47098  0.18579  Biso   1.000  H
  N206     1.0000 0.06991  0.38186  0.07513  Biso   1.000  N
  N207     1.0000 0.06999  0.38186  0.07513  Biso   1.000  N
  H285     1.0000 0.03352  0.47098  0.18579  Biso   1.000  H
  H286     1.0000 0.03342  0.47090  0.18579  Biso   1.000  H
  O88      1.0000 0.01253  0.35478  0.88098  Biso   1.000  O
  O89      1.0000 0.01261  0.35478  0.88098  Biso   1.000  O
  O90      1.0000 0.34658  0.04467  0.92555  Biso   1.000  O
  O91      1.0000 0.34666  0.04467  0.92555  Biso   1.000  O
  N208     1.0000 0.41240  0.07061  0.12132  Biso   1.000  N
  N209     1.0000 0.41238  0.07053  0.12132  Biso   1.000  N
  N210     1.0000 0.41232  0.07061  0.12132  Biso   1.000  N
  C296     1.0000 0.38855  0.08852  0.36150  Biso   1.000  C
  C297     1.0000 0.38863  0.08852  0.36150  Biso   1.000  C
  C298     1.0000 0.38853  0.08844  0.36150  Biso   1.000  C
  H287     1.0000 0.52911  0.02515  0.26092  Biso   1.000  H
  H288     1.0000 0.52921  0.02523  0.26092  Biso   1.000  H
  H289     1.0000 0.52919  0.02515  0.26092  Biso   1.000  H
  H290     1.0000 0.52913  0.02523  0.26092  Biso   1.000  H
  N211     1.0000 0.22093  0.28350  0.30796  Biso   1.000  N
  H291     1.0000 0.11954  0.29919  0.39087  Biso   1.000  H
  H292     1.0000 0.18506  0.41148  0.36568  Biso   1.000  H
  N212     1.0000 0.22095  0.28358  0.30796  Biso   1.000  N
  H293     1.0000 0.18508  0.41156  0.36568  Biso   1.000  H
  N213     1.0000 0.22101  0.28350  0.30796  Biso   1.000  N
  H294     1.0000 0.18498  0.41148  0.36568  Biso   1.000  H
  H295     1.0000 0.11946  0.29919  0.39087  Biso   1.000  H
  H296     1.0000 0.18500  0.41156  0.36568  Biso   1.000  H
  C299     1.0000 0.20192  0.42591  0.11023  Biso   1.000  C
  C300     1.0000 0.20194  0.42599  0.11023  Biso   1.000  C
  C301     1.0000 0.20186  0.42599  0.11023  Biso   1.000  C
  C302     1.0000 0.46204  0.18852  0.14472  Biso   1.000  C
  C303     1.0000 0.46206  0.18860  0.14472  Biso   1.000  C
  C304     1.0000 0.46212  0.18852  0.14472  Biso   1.000  C
  N214     1.0000 0.33014  0.16980  0.31616  Biso   1.000  N
  H297     1.0000 0.35727  0.05827  0.41563  Biso   1.000  H
  H298     1.0000 0.47895  0.12420  0.40470  Biso   1.000  H
  N215     1.0000 0.33024  0.16988  0.31616  Biso   1.000  N
  H299     1.0000 0.35729  0.05835  0.41563  Biso   1.000  H
  N216     1.0000 0.33022  0.16980  0.31616  Biso   1.000  N
  H300     1.0000 0.35719  0.05827  0.41563  Biso   1.000  H
  H301     1.0000 0.47892  0.12412  0.40470  Biso   1.000  H
  N217     1.0000 0.33016  0.16988  0.31616  Biso   1.000  N
  H302     1.0000 0.35721  0.05835  0.41563  Biso   1.000  H
  H303     1.0000 0.47886  0.12420  0.40470  Biso   1.000  H
  C305     1.0000 0.23689  0.18704  0.33930  Biso   1.000  C
  C306     1.0000 0.31521  0.34179  0.27612  Biso   1.000  C
  C307     1.0000 0.23691  0.18712  0.33930  Biso   1.000  C
  C308     1.0000 0.31523  0.34187  0.27612  Biso   1.000  C
  C309     1.0000 0.23697  0.18704  0.33930  Biso   1.000  C
  C310     1.0000 0.31513  0.34179  0.27612  Biso   1.000  C
  C311     1.0000 0.31515  0.34187  0.27612  Biso   1.000  C
  N218     1.0000 0.27037  0.35206  0.15727  Biso   1.000  N
  H304     1.0000 0.23485  0.49351  0.16803  Biso   1.000  H
  H305     1.0000 0.21566  0.44585  0.04337  Biso   1.000  H
  N219     1.0000 0.27047  0.35214  0.15727  Biso   1.000  N
  H306     1.0000 0.23493  0.49351  0.16803  Biso   1.000  H
  N220     1.0000 0.27045  0.35206  0.15727  Biso   1.000  N
  H307     1.0000 0.23482  0.49343  0.16803  Biso   1.000  H
  H308     1.0000 0.21558  0.44585  0.04337  Biso   1.000  H
  N221     1.0000 0.27039  0.35214  0.15727  Biso   1.000  N
  N222     1.0000 0.38760  0.24481  0.17238  Biso   1.000  N
  H309     1.0000 0.47099  0.21197  0.07693  Biso   1.000  H
  H310     1.0000 0.54572  0.21076  0.20909  Biso   1.000  H
  N223     1.0000 0.38770  0.24489  0.17238  Biso   1.000  N
  H311     1.0000 0.54580  0.21076  0.20909  Biso   1.000  H
  N224     1.0000 0.38768  0.24481  0.17238  Biso   1.000  N
  H312     1.0000 0.47089  0.21189  0.07693  Biso   1.000  H
  N225     1.0000 0.38762  0.24489  0.17238  Biso   1.000  N
  H313     1.0000 0.47091  0.21197  0.07693  Biso   1.000  H
  H314     1.0000 0.47097  0.21189  0.07693  Biso   1.000  H
  C312     1.0000 0.39412  0.26419  0.28577  Biso   1.000  C
  C313     1.0000 0.39422  0.26427  0.28577  Biso   1.000  C
  C314     1.0000 0.39420  0.26419  0.28577  Biso   1.000  C
  C315     1.0000 0.39414  0.26427  0.28577  Biso   1.000  C
  O92      1.0000 0.17829  0.12754  0.38037  Biso   1.000  O
  O93      1.0000 0.17837  0.12754  0.38037  Biso   1.000  O
  O94      1.0000 0.17827  0.12746  0.38037  Biso   1.000  O
  H315     1.0000 0.36562  0.41388  0.32820  Biso   1.000  H
  H316     1.0000 0.36572  0.41396  0.32820  Biso   1.000  H
  H317     1.0000 0.36570  0.41388  0.32820  Biso   1.000  H
  H318     1.0000 0.36564  0.41396  0.32820  Biso   1.000  H
  C316     1.0000 0.31587  0.29697  0.09836  Biso   1.000  C
  C317     1.0000 0.31589  0.29705  0.09836  Biso   1.000  C
  C318     1.0000 0.31597  0.29705  0.09836  Biso   1.000  C
  H319     1.0000 0.48132  0.29800  0.34510  Biso   1.000  H
  H320     1.0000 0.48140  0.29800  0.34510  Biso   1.000  H
  H321     1.0000 0.48130  0.29792  0.34510  Biso   1.000  H
  O95      1.0000 0.29653  0.29599  0.99863  Biso   1.000  O
  O96      1.0000 0.29661  0.29599  0.99863  Biso   1.000  O
  C319     1.0000 0.68420  0.70326  0.90164  Biso   1.000  C
  N226     1.0000 0.72970  0.64817  0.84273  Biso   1.000  N
  N227     1.0000 0.72968  0.64809  0.84273  Biso   1.000  N
  N228     1.0000 0.72960  0.64809  0.84273  Biso   1.000  N
  N229     1.0000 0.61247  0.75541  0.82762  Biso   1.000  N
  N230     1.0000 0.61245  0.75533  0.82762  Biso   1.000  N
  N231     1.0000 0.61237  0.75533  0.82762  Biso   1.000  N
  O97      1.0000 0.70351  0.70416  0.00137  Biso   1.000  O
  O98      1.0000 0.70346  0.70424  0.00137  Biso   1.000  O
  O99      1.0000 0.70343  0.70416  0.00137  Biso   1.000  O
  O100     1.0000 0.70354  0.70424  0.00137  Biso   1.000  O
  C320     1.0000 0.79815  0.57432  0.88977  Biso   1.000  C
  C321     1.0000 0.79813  0.57424  0.88977  Biso   1.000  C
  C322     1.0000 0.79821  0.57424  0.88977  Biso   1.000  C
  C323     1.0000 0.68486  0.65844  0.72388  Biso   1.000  C
  C324     1.0000 0.68418  0.70318  0.90164  Biso   1.000  C
  C325     1.0000 0.68492  0.65836  0.72388  Biso   1.000  C
  C326     1.0000 0.68484  0.65836  0.72388  Biso   1.000  C
  C327     1.0000 0.68494  0.65844  0.72388  Biso   1.000  C
  C328     1.0000 0.68410  0.70318  0.90164  Biso   1.000  C
  C329     1.0000 0.60595  0.73603  0.71423  Biso   1.000  C
  C330     1.0000 0.60593  0.73595  0.71423  Biso   1.000  C
  C331     1.0000 0.60585  0.73595  0.71423  Biso   1.000  C
  C332     1.0000 0.53803  0.81171  0.85528  Biso   1.000  C
  C333     1.0000 0.53801  0.81163  0.85528  Biso   1.000  C
  N232     1.0000 0.93019  0.61844  0.92487  Biso   1.000  N
  N233     1.0000 0.93016  0.61836  0.92487  Biso   1.000  N
  N234     1.0000 0.93008  0.61836  0.92487  Biso   1.000  N
  H322     1.0000 0.76522  0.50672  0.83197  Biso   1.000  H
  H323     1.0000 0.78441  0.55438  0.95663  Biso   1.000  H
  H324     1.0000 0.78447  0.55430  0.95663  Biso   1.000  H
  H325     1.0000 0.78449  0.55438  0.95663  Biso   1.000  H
  H326     1.0000 0.76514  0.50672  0.83197  Biso   1.000  H
  H327     1.0000 0.78439  0.55430  0.95663  Biso   1.000  H
  N235     1.0000 0.77914  0.71673  0.69204  Biso   1.000  N
  H328     1.0000 0.63445  0.58635  0.67180  Biso   1.000  H
  N236     1.0000 0.77912  0.71665  0.69204  Biso   1.000  N
  H329     1.0000 0.63443  0.58627  0.67180  Biso   1.000  H
  H330     1.0000 0.63435  0.58627  0.67180  Biso   1.000  H
  N237     1.0000 0.77904  0.71665  0.69204  Biso   1.000  N
  N238     1.0000 0.66993  0.83042  0.68384  Biso   1.000  N
  H331     1.0000 0.51875  0.70223  0.65490  Biso   1.000  H
  N239     1.0000 0.66991  0.83034  0.68384  Biso   1.000  N
  H332     1.0000 0.51873  0.70215  0.65490  Biso   1.000  H
  N240     1.0000 0.66983  0.83034  0.68384  Biso   1.000  N
  H333     1.0000 0.51867  0.70223  0.65490  Biso   1.000  H
  H334     1.0000 0.51865  0.70215  0.65490  Biso   1.000  H
  H335     1.0000 0.52908  0.78826  0.92307  Biso   1.000  H
  H336     1.0000 0.45435  0.78946  0.79091  Biso   1.000  H
  N241     1.0000 0.58767  0.92962  0.87868  Biso   1.000  N
  H337     1.0000 0.52916  0.78826  0.92307  Biso   1.000  H
  H338     1.0000 0.45433  0.78938  0.79091  Biso   1.000  H
  N242     1.0000 0.58775  0.92962  0.87868  Biso   1.000  N
  H339     1.0000 0.52914  0.78818  0.92307  Biso   1.000  H
  H340     1.0000 0.45425  0.78938  0.79091  Biso   1.000  H
  H341     1.0000 0.52906  0.78818  0.92307  Biso   1.000  H
  C334     1.0000 0.01323  0.64546  0.03799  Biso   1.000  C
  C335     1.0000 0.01333  0.64554  0.03799  Biso   1.000  C
  C336     1.0000 0.01331  0.64546  0.03799  Biso   1.000  C
  C337     1.0000 0.01325  0.64554  0.03799  Biso   1.000  C
  C338     1.0000 0.98916  0.60730  0.84982  Biso   1.000  C
  C339     1.0000 0.98914  0.60722  0.84982  Biso   1.000  C
  C340     1.0000 0.98922  0.60722  0.84982  Biso   1.000  C
  C341     1.0000 0.86005  0.66683  0.66745  Biso   1.000  C
  C342     1.0000 0.86002  0.66675  0.66745  Biso   1.000  C
  C343     1.0000 0.85996  0.66683  0.66745  Biso   1.000  C
  C344     1.0000 0.85994  0.66675  0.66745  Biso   1.000  C
  C345     1.0000 0.76318  0.81319  0.66070  Biso   1.000  C
  C346     1.0000 0.76316  0.81311  0.66070  Biso   1.000  C
  C347     1.0000 0.76308  0.81311  0.66070  Biso   1.000  C
  C348     1.0000 0.61152  0.91170  0.63850  Biso   1.000  C
  C349     1.0000 0.61150  0.91162  0.63850  Biso   1.000  C
  C350     1.0000 0.61144  0.91170  0.63850  Biso   1.000  C
  C351     1.0000 0.61142  0.91162  0.63850  Biso   1.000  C
  C352     1.0000 0.63428  0.99082  0.98625  Biso   1.000  C
  C353     1.0000 0.56161  0.99557  0.79031  Biso   1.000  C
  C354     1.0000 0.63426  0.99074  0.98625  Biso   1.000  C
  C355     1.0000 0.56159  0.99549  0.79031  Biso   1.000  C
  C356     1.0000 0.63418  0.99074  0.98625  Biso   1.000  C
  C357     1.0000 0.56151  0.99549  0.79031  Biso   1.000  C
  O101     1.0000 0.98746  0.64544  0.11902  Biso   1.000  O
  O102     1.0000 0.98752  0.64536  0.11902  Biso   1.000  O
  O103     1.0000 0.98744  0.64536  0.11902  Biso   1.000  O
  O104     1.0000 0.98754  0.64544  0.11902  Biso   1.000  O
  N243     1.0000 0.13007  0.66745  0.04414  Biso   1.000  N
  N244     1.0000 0.13015  0.66745  0.04414  Biso   1.000  N
  C358     1.0000 0.12936  0.65358  0.93246  Biso   1.000  C
  C359     1.0000 0.12928  0.65358  0.93246  Biso   1.000  C
  C360     1.0000 0.12934  0.65350  0.93246  Biso   1.000  C
  N245     1.0000 0.97405  0.67593  0.76563  Biso   1.000  N
  H342     1.0000 0.96663  0.52925  0.81421  Biso   1.000  H
  N246     1.0000 0.97402  0.67585  0.76563  Biso   1.000  N
  H343     1.0000 0.96661  0.52917  0.81421  Biso   1.000  H
  N247     1.0000 0.97394  0.67585  0.76563  Biso   1.000  N
  H344     1.0000 0.88053  0.70104  0.60913  Biso   1.000  H
  H345     1.0000 0.81501  0.58875  0.63432  Biso   1.000  H
  H346     1.0000 0.88059  0.70096  0.60913  Biso   1.000  H
  H347     1.0000 0.81507  0.58867  0.63432  Biso   1.000  H
  H348     1.0000 0.81499  0.58867  0.63432  Biso   1.000  H
  H349     1.0000 0.81509  0.58875  0.63432  Biso   1.000  H
  H350     1.0000 0.88051  0.70096  0.60913  Biso   1.000  H
  O105     1.0000 0.82178  0.87268  0.61963  Biso   1.000  O
  O106     1.0000 0.82170  0.87268  0.61963  Biso   1.000  O
  H351     1.0000 0.64280  0.94195  0.58437  Biso   1.000  H
  H352     1.0000 0.52112  0.87603  0.59530  Biso   1.000  H
  N248     1.0000 0.63361  0.00009  0.72576  Biso   1.000  N
  H353     1.0000 0.64290  0.94189  0.58446  Biso   1.000  H
  N249     1.0000 0.63367  0.00001  0.72576  Biso   1.000  N
  H354     1.0000 0.64286  0.94187  0.58437  Biso   1.000  H
  H355     1.0000 0.52118  0.87595  0.59530  Biso   1.000  H
  H356     1.0000 0.64282  0.94189  0.58446  Biso   1.000  H
  N250     1.0000 0.63359  0.00001  0.72576  Biso   1.000  N
  H357     1.0000 0.64288  0.94195  0.58437  Biso   1.000  H
  N251     1.0000 0.63369  0.00009  0.72576  Biso   1.000  N
  H358     1.0000 0.64278  0.94187  0.58437  Biso   1.000  H
  H359     1.0000 0.52110  0.87595  0.59530  Biso   1.000  H
  O107     1.0000 0.65347  0.95547  0.07445  Biso   1.000  O
  O108     1.0000 0.65341  0.95555  0.07445  Biso   1.000  O
  O109     1.0000 0.65339  0.95547  0.07445  Biso   1.000  O
  O110     1.0000 0.65349  0.95555  0.07445  Biso   1.000  O
  N252     1.0000 0.65279  0.09750  0.97644  Biso   1.000  N
  N253     1.0000 0.65273  0.09758  0.97644  Biso   1.000  N
  N254     1.0000 0.65271  0.09750  0.97644  Biso   1.000  N
  N255     1.0000 0.65281  0.09758  0.97644  Biso   1.000  N
  H360     1.0000 0.47096  0.97507  0.73908  Biso   1.000  H
  H361     1.0000 0.47094  0.97499  0.73908  Biso   1.000  H
  H362     1.0000 0.47086  0.97499  0.73908  Biso   1.000  H
  C361     1.0000 0.61174  0.11308  0.85998  Biso   1.000  C
  C362     1.0000 0.61182  0.11308  0.85998  Biso   1.000  C
  C363     1.0000 0.24066  0.71551  0.15027  Biso   1.000  C
  C364     1.0000 0.24068  0.71559  0.15027  Biso   1.000  C
  N256     1.0000 0.16866  0.75388  0.89456  Biso   1.000  N
  H363     1.0000 0.17535  0.60207  0.92589  Biso   1.000  H
  H364     1.0000 0.17525  0.60199  0.92589  Biso   1.000  H
  H365     1.0000 0.17533  0.60199  0.92589  Biso   1.000  H
  N257     1.0000 0.16874  0.75388  0.89456  Biso   1.000  N
  C365     1.0000 0.08038  0.75918  0.79150  Biso   1.000  C
  C366     1.0000 0.08046  0.75918  0.79150  Biso   1.000  C
  C367     1.0000 0.71817  0.10046  0.74813  Biso   1.000  C
  C368     1.0000 0.71819  0.10054  0.74813  Biso   1.000  C
  C369     1.0000 0.71808  0.10046  0.74813  Biso   1.000  C
  C370     1.0000 0.70234  0.18660  0.07155  Biso   1.000  C
  C371     1.0000 0.70245  0.18668  0.07155  Biso   1.000  C
  C372     1.0000 0.70242  0.18660  0.07155  Biso   1.000  C
  N258     1.0000 0.71040  0.16677  0.83052  Biso   1.000  N
  H366     1.0000 0.54597  0.14971  0.83880  Biso   1.000  H
  N259     1.0000 0.71034  0.16685  0.83052  Biso   1.000  N
  H367     1.0000 0.54589  0.14971  0.83880  Biso   1.000  H
  N260     1.0000 0.71032  0.16677  0.83052  Biso   1.000  N
  N261     1.0000 0.71043  0.16685  0.83052  Biso   1.000  N
  N262     1.0000 0.28964  0.83338  0.16948  Biso   1.000  N
  H368     1.0000 0.30549  0.68375  0.15069  Biso   1.000  H
  H369     1.0000 0.22162  0.69532  0.21447  Biso   1.000  H
  H370     1.0000 0.30557  0.68375  0.15069  Biso   1.000  H
  H371     1.0000 0.22164  0.69540  0.21447  Biso   1.000  H
  N263     1.0000 0.28972  0.83338  0.16948  Biso   1.000  N
  C373     1.0000 0.29773  0.81363  0.92845  Biso   1.000  C
  C374     1.0000 0.29762  0.81355  0.92845  Biso   1.000  C
  C375     1.0000 0.29770  0.81355  0.92845  Biso   1.000  C
  O111     1.0000 0.09387  0.82490  0.73140  Biso   1.000  O
  O112     1.0000 0.09377  0.82482  0.73140  Biso   1.000  O
  O113     1.0000 0.78732  0.12687  0.70279  Biso   1.000  O
  O114     1.0000 0.78723  0.12687  0.70279  Biso   1.000  O
  N264     1.0000 0.83141  0.24634  0.10544  Biso   1.000  N
  H372     1.0000 0.65275  0.23748  0.05089  Biso   1.000  H
  H373     1.0000 0.69432  0.15777  0.13746  Biso   1.000  H
  N265     1.0000 0.83130  0.24626  0.10544  Biso   1.000  N
  H374     1.0000 0.65273  0.23740  0.05089  Biso   1.000  H
  H375     1.0000 0.69430  0.15769  0.13746  Biso   1.000  H
  H376     1.0000 0.69440  0.15777  0.13746  Biso   1.000  H
  N266     1.0000 0.83138  0.24626  0.10544  Biso   1.000  N
  C376     1.0000 0.75939  0.28464  0.84973  Biso   1.000  C
  C377     1.0000 0.28188  0.89969  0.25187  Biso   1.000  C
  C378     1.0000 0.38831  0.88707  0.14002  Biso   1.000  C
  C379     1.0000 0.38833  0.88715  0.14002  Biso   1.000  C
  C380     1.0000 0.28198  0.89977  0.25187  Biso   1.000  C
  C381     1.0000 0.28190  0.89977  0.25187  Biso   1.000  C
  H377     1.0000 0.34732  0.76275  0.94911  Biso   1.000  H
  H378     1.0000 0.30575  0.84246  0.86254  Biso   1.000  H
  H379     1.0000 0.30573  0.84238  0.86254  Biso   1.000  H
  N267     1.0000 0.34726  0.90264  0.02356  Biso   1.000  N
  N268     1.0000 0.34734  0.90264  0.02356  Biso   1.000  N
  C382     1.0000 0.91969  0.24105  0.20850  Biso   1.000  C
  C383     1.0000 0.87071  0.34665  0.06754  Biso   1.000  C
  C384     1.0000 0.91967  0.24097  0.20850  Biso   1.000  C
  C385     1.0000 0.87069  0.34657  0.06754  Biso   1.000  C
  C386     1.0000 0.87079  0.34665  0.06754  Biso   1.000  C
  N269     1.0000 0.86998  0.33270  0.95586  Biso   1.000  N
  H380     1.0000 0.69456  0.31640  0.84931  Biso   1.000  H
  H381     1.0000 0.77843  0.30482  0.78553  Biso   1.000  H
  N270     1.0000 0.87000  0.33278  0.95586  Biso   1.000  N
  H382     1.0000 0.69450  0.31648  0.84931  Biso   1.000  H
  H383     1.0000 0.69448  0.31640  0.84931  Biso   1.000  H
  H384     1.0000 0.69458  0.31648  0.84931  Biso   1.000  H
  N271     1.0000 0.86990  0.33270  0.95586  Biso   1.000  N
  O115     1.0000 0.21273  0.87328  0.29721  Biso   1.000  O
  O116     1.0000 0.21275  0.87336  0.29721  Biso   1.000  O
  O117     1.0000 0.21284  0.87336  0.29721  Biso   1.000  O
  N272     1.0000 0.36646  0.00013  0.27424  Biso   1.000  N
  N273     1.0000 0.36648  0.00021  0.27424  Biso   1.000  N
  N274     1.0000 0.36638  0.00013  0.27424  Biso   1.000  N
  N275     1.0000 0.36640  0.00021  0.27424  Biso   1.000  N
  H385     1.0000 0.45408  0.85043  0.16120  Biso   1.000  H
  H386     1.0000 0.45418  0.85051  0.16120  Biso   1.000  H
  H387     1.0000 0.45416  0.85043  0.16120  Biso   1.000  H
  H388     1.0000 0.45410  0.85051  0.16120  Biso   1.000  H
  C387     1.0000 0.43846  0.00466  0.20969  Biso   1.000  C
  C388     1.0000 0.43848  0.00474  0.20969  Biso   1.000  C
  C389     1.0000 0.43854  0.00466  0.20969  Biso   1.000  C
  C390     1.0000 0.36579  0.00941  0.01375  Biso   1.000  C
  C391     1.0000 0.36589  0.00949  0.01375  Biso   1.000  C
  C392     1.0000 0.36587  0.00941  0.01375  Biso   1.000  C
  C393     1.0000 0.36581  0.00949  0.01375  Biso   1.000  C
  N276     1.0000 0.02602  0.32430  0.23437  Biso   1.000  N
  N277     1.0000 0.02613  0.32438  0.23437  Biso   1.000  N
  N278     1.0000 0.02610  0.32430  0.23437  Biso   1.000  N
  N279     1.0000 0.02604  0.32438  0.23437  Biso   1.000  N
  O118     1.0000 0.90620  0.17533  0.26860  Biso   1.000  O
  O119     1.0000 0.90628  0.17533  0.26860  Biso   1.000  O
  C394     1.0000 0.01091  0.39293  0.15018  Biso   1.000  C
  C395     1.0000 0.01093  0.39301  0.15018  Biso   1.000  C
  C396     1.0000 0.01085  0.39301  0.15018  Biso   1.000  C
  H389     1.0000 0.82472  0.39816  0.07411  Biso   1.000  H
  H390     1.0000 0.82480  0.39816  0.07411  Biso   1.000  H
  C397     1.0000 0.98682  0.35469  0.96201  Biso   1.000  C
  C398     1.0000 0.98674  0.35469  0.96201  Biso   1.000  C
  C399     1.0000 0.38855  0.08852  0.36150  Biso   1.000  C
  C400     1.0000 0.38863  0.08852  0.36150  Biso   1.000  C
  C401     1.0000 0.38853  0.08844  0.36150  Biso   1.000  C
  N280     1.0000 0.41240  0.07061  0.12132  Biso   1.000  N
  H391     1.0000 0.52911  0.02515  0.26092  Biso   1.000  H
  H392     1.0000 0.52921  0.02523  0.26092  Biso   1.000  H
  H393     1.0000 0.52919  0.02515  0.26092  Biso   1.000  H
  N281     1.0000 0.41238  0.07053  0.12132  Biso   1.000  N
  N282     1.0000 0.41232  0.07061  0.12132  Biso   1.000  N
  H394     1.0000 0.52913  0.02523  0.26092  Biso   1.000  H
  O120     1.0000 0.34658  0.04467  0.92555  Biso   1.000  O
  O121     1.0000 0.34666  0.04467  0.92555  Biso   1.000  O
  C402     1.0000 0.14002  0.33340  0.33255  Biso   1.000  C
  C403     1.0000 0.14011  0.33340  0.33255  Biso   1.000  C
  C404     1.0000 0.14000  0.33332  0.33255  Biso   1.000  C
  N283     1.0000 0.06988  0.38178  0.07513  Biso   1.000  N
  N284     1.0000 0.06991  0.38186  0.07513  Biso   1.000  N
  N285     1.0000 0.06999  0.38186  0.07513  Biso   1.000  N
  H395     1.0000 0.03344  0.47098  0.18579  Biso   1.000  H
  H396     1.0000 0.03352  0.47098  0.18579  Biso   1.000  H
  H397     1.0000 0.03342  0.47090  0.18579  Biso   1.000  H
  O122     1.0000 0.01253  0.35478  0.88098  Biso   1.000  O
  O123     1.0000 0.01261  0.35478  0.88098  Biso   1.000  O
  N286     1.0000 0.33014  0.16980  0.31616  Biso   1.000  N
  H398     1.0000 0.35727  0.05827  0.41563  Biso   1.000  H
  H399     1.0000 0.47895  0.12420  0.40470  Biso   1.000  H
  N287     1.0000 0.33024  0.16988  0.31616  Biso   1.000  N
  H400     1.0000 0.35729  0.05835  0.41563  Biso   1.000  H
  N288     1.0000 0.33022  0.16980  0.31616  Biso   1.000  N
  H401     1.0000 0.35719  0.05827  0.41563  Biso   1.000  H
  H402     1.0000 0.47892  0.12412  0.40470  Biso   1.000  H
  N289     1.0000 0.33016  0.16988  0.31616  Biso   1.000  N
  H403     1.0000 0.35721  0.05835  0.41563  Biso   1.000  H
  H404     1.0000 0.47886  0.12420  0.40470  Biso   1.000  H
  C405     1.0000 0.46204  0.18852  0.14472  Biso   1.000  C
  C406     1.0000 0.46206  0.18860  0.14472  Biso   1.000  C
  C407     1.0000 0.46212  0.18852  0.14472  Biso   1.000  C
  N290     1.0000 0.22093  0.28350  0.30796  Biso   1.000  N
  N291     1.0000 0.22095  0.28358  0.30796  Biso   1.000  N
  N292     1.0000 0.22101  0.28350  0.30796  Biso   1.000  N
  H405     1.0000 0.11954  0.29919  0.39087  Biso   1.000  H
  H406     1.0000 0.18506  0.41148  0.36568  Biso   1.000  H
  H407     1.0000 0.18508  0.41156  0.36568  Biso   1.000  H
  H408     1.0000 0.18498  0.41148  0.36568  Biso   1.000  H
  H409     1.0000 0.11946  0.29919  0.39087  Biso   1.000  H
  H410     1.0000 0.18500  0.41156  0.36568  Biso   1.000  H
  C408     1.0000 0.20192  0.42591  0.11023  Biso   1.000  C
  C409     1.0000 0.20194  0.42599  0.11023  Biso   1.000  C
  C410     1.0000 0.20186  0.42599  0.11023  Biso   1.000  C
  C411     1.0000 0.23689  0.18704  0.33930  Biso   1.000  C
  C412     1.0000 0.39412  0.26419  0.28577  Biso   1.000  C
  C413     1.0000 0.23691  0.18712  0.33930  Biso   1.000  C
  C414     1.0000 0.39422  0.26427  0.28577  Biso   1.000  C
  C415     1.0000 0.23697  0.18704  0.33930  Biso   1.000  C
  C416     1.0000 0.39420  0.26419  0.28577  Biso   1.000  C
  C417     1.0000 0.39414  0.26427  0.28577  Biso   1.000  C
  N293     1.0000 0.38760  0.24481  0.17238  Biso   1.000  N
  H411     1.0000 0.47099  0.21197  0.07693  Biso   1.000  H
  H412     1.0000 0.54572  0.21076  0.20909  Biso   1.000  H
  N294     1.0000 0.38770  0.24489  0.17238  Biso   1.000  N
  H413     1.0000 0.54580  0.21076  0.20909  Biso   1.000  H
  N295     1.0000 0.38768  0.24481  0.17238  Biso   1.000  N
  H414     1.0000 0.47089  0.21189  0.07693  Biso   1.000  H
  N296     1.0000 0.38762  0.24489  0.17238  Biso   1.000  N
  H415     1.0000 0.47091  0.21197  0.07693  Biso   1.000  H
  H416     1.0000 0.47097  0.21189  0.07693  Biso   1.000  H
  C418     1.0000 0.31521  0.34179  0.27612  Biso   1.000  C
  C419     1.0000 0.31523  0.34187  0.27612  Biso   1.000  C
  C420     1.0000 0.31513  0.34179  0.27612  Biso   1.000  C
  C421     1.0000 0.31515  0.34187  0.27612  Biso   1.000  C
  N297     1.0000 0.27037  0.35206  0.15727  Biso   1.000  N
  N298     1.0000 0.27047  0.35214  0.15727  Biso   1.000  N
  N299     1.0000 0.27045  0.35206  0.15727  Biso   1.000  N
  N300     1.0000 0.27039  0.35214  0.15727  Biso   1.000  N
  H417     1.0000 0.23485  0.49351  0.16803  Biso   1.000  H
  H418     1.0000 0.21566  0.44585  0.04337  Biso   1.000  H
  H419     1.0000 0.23493  0.49351  0.16803  Biso   1.000  H
  H420     1.0000 0.23482  0.49343  0.16803  Biso   1.000  H
  H421     1.0000 0.21558  0.44585  0.04337  Biso   1.000  H
  O124     1.0000 0.17829  0.12754  0.38037  Biso   1.000  O
  O125     1.0000 0.17837  0.12754  0.38037  Biso   1.000  O
  O126     1.0000 0.17827  0.12746  0.38037  Biso   1.000  O
  H422     1.0000 0.48132  0.29800  0.34510  Biso   1.000  H
  H423     1.0000 0.48140  0.29800  0.34510  Biso   1.000  H
  H424     1.0000 0.48130  0.29792  0.34510  Biso   1.000  H
  C422     1.0000 0.31587  0.29697  0.09836  Biso   1.000  C
  C423     1.0000 0.31589  0.29705  0.09836  Biso   1.000  C
  C424     1.0000 0.31597  0.29705  0.09836  Biso   1.000  C
  H425     1.0000 0.36562  0.41388  0.32820  Biso   1.000  H
  H426     1.0000 0.36572  0.41396  0.32820  Biso   1.000  H
  H427     1.0000 0.36570  0.41388  0.32820  Biso   1.000  H
  H428     1.0000 0.36564  0.41396  0.32820  Biso   1.000  H
  O127     1.0000 0.29653  0.29599  0.99863  Biso   1.000  O
  O128     1.0000 0.29661  0.29599  0.99863  Biso   1.000  O
  C425     1.0000 0.68420  0.70326  0.90164  Biso   1.000  C
  N301     1.0000 0.72970  0.64817  0.84273  Biso   1.000  N
  N302     1.0000 0.72968  0.64809  0.84273  Biso   1.000  N
  N303     1.0000 0.72960  0.64809  0.84273  Biso   1.000  N
  N304     1.0000 0.61247  0.75541  0.82762  Biso   1.000  N
  N305     1.0000 0.61245  0.75533  0.82762  Biso   1.000  N
  N306     1.0000 0.61237  0.75533  0.82762  Biso   1.000  N
  O129     1.0000 0.70351  0.70416  0.00137  Biso   1.000  O
  O130     1.0000 0.70346  0.70424  0.00137  Biso   1.000  O
  O131     1.0000 0.70343  0.70416  0.00137  Biso   1.000  O
  O132     1.0000 0.70354  0.70424  0.00137  Biso   1.000  O
  C426     1.0000 0.79815  0.57432  0.88977  Biso   1.000  C
  C427     1.0000 0.79813  0.57424  0.88977  Biso   1.000  C
  C428     1.0000 0.79821  0.57424  0.88977  Biso   1.000  C
  C429     1.0000 0.68486  0.65844  0.72388  Biso   1.000  C
  C430     1.0000 0.68418  0.70318  0.90164  Biso   1.000  C
  C431     1.0000 0.68492  0.65836  0.72388  Biso   1.000  C
  C432     1.0000 0.68484  0.65836  0.72388  Biso   1.000  C
  C433     1.0000 0.68494  0.65844  0.72388  Biso   1.000  C
  C434     1.0000 0.68410  0.70318  0.90164  Biso   1.000  C
  C435     1.0000 0.60595  0.73603  0.71423  Biso   1.000  C
  C436     1.0000 0.60593  0.73595  0.71423  Biso   1.000  C
  C437     1.0000 0.60585  0.73595  0.71423  Biso   1.000  C
  C438     1.0000 0.53803  0.81171  0.85528  Biso   1.000  C
  C439     1.0000 0.53801  0.81163  0.85528  Biso   1.000  C
  N307     1.0000 0.93019  0.61844  0.92487  Biso   1.000  N
  N308     1.0000 0.93016  0.61836  0.92487  Biso   1.000  N
  N309     1.0000 0.93008  0.61836  0.92487  Biso   1.000  N
  H429     1.0000 0.76522  0.50672  0.83197  Biso   1.000  H
  H430     1.0000 0.78441  0.55438  0.95663  Biso   1.000  H
  H431     1.0000 0.78447  0.55430  0.95663  Biso   1.000  H
  H432     1.0000 0.78449  0.55438  0.95663  Biso   1.000  H
  H433     1.0000 0.76514  0.50672  0.83197  Biso   1.000  H
  H434     1.0000 0.78439  0.55430  0.95663  Biso   1.000  H
  N310     1.0000 0.77914  0.71673  0.69204  Biso   1.000  N
  H435     1.0000 0.63445  0.58635  0.67180  Biso   1.000  H
  N311     1.0000 0.77912  0.71665  0.69204  Biso   1.000  N
  H436     1.0000 0.63443  0.58627  0.67180  Biso   1.000  H
  H437     1.0000 0.63435  0.58627  0.67180  Biso   1.000  H
  N312     1.0000 0.77904  0.71665  0.69204  Biso   1.000  N
  N313     1.0000 0.66993  0.83042  0.68384  Biso   1.000  N
  H438     1.0000 0.51875  0.70223  0.65490  Biso   1.000  H
  N314     1.0000 0.66991  0.83034  0.68384  Biso   1.000  N
  H439     1.0000 0.51873  0.70215  0.65490  Biso   1.000  H
  N315     1.0000 0.66983  0.83034  0.68384  Biso   1.000  N
  H440     1.0000 0.51867  0.70223  0.65490  Biso   1.000  H
  H441     1.0000 0.51865  0.70215  0.65490  Biso   1.000  H
  H442     1.0000 0.52908  0.78826  0.92307  Biso   1.000  H
  H443     1.0000 0.45435  0.78946  0.79091  Biso   1.000  H
  N316     1.0000 0.58767  0.92962  0.87868  Biso   1.000  N
  H444     1.0000 0.52916  0.78826  0.92307  Biso   1.000  H
  H445     1.0000 0.45433  0.78938  0.79091  Biso   1.000  H
  N317     1.0000 0.58775  0.92962  0.87868  Biso   1.000  N
  H446     1.0000 0.52914  0.78818  0.92307  Biso   1.000  H
  H447     1.0000 0.45425  0.78938  0.79091  Biso   1.000  H
  H448     1.0000 0.52906  0.78818  0.92307  Biso   1.000  H
  C440     1.0000 0.01323  0.64546  0.03799  Biso   1.000  C
  C441     1.0000 0.01333  0.64554  0.03799  Biso   1.000  C
  C442     1.0000 0.01331  0.64546  0.03799  Biso   1.000  C
  C443     1.0000 0.01325  0.64554  0.03799  Biso   1.000  C
  C444     1.0000 0.98916  0.60730  0.84982  Biso   1.000  C
  C445     1.0000 0.98914  0.60722  0.84982  Biso   1.000  C
  C446     1.0000 0.98922  0.60722  0.84982  Biso   1.000  C
  C447     1.0000 0.86005  0.66683  0.66745  Biso   1.000  C
  C448     1.0000 0.86002  0.66675  0.66745  Biso   1.000  C
  C449     1.0000 0.85996  0.66683  0.66745  Biso   1.000  C
  C450     1.0000 0.85994  0.66675  0.66745  Biso   1.000  C
  C451     1.0000 0.76318  0.81319  0.66070  Biso   1.000  C
  C452     1.0000 0.76316  0.81311  0.66070  Biso   1.000  C
  C453     1.0000 0.76308  0.81311  0.66070  Biso   1.000  C
  C454     1.0000 0.61152  0.91170  0.63850  Biso   1.000  C
  C455     1.0000 0.61150  0.91162  0.63850  Biso   1.000  C
  C456     1.0000 0.61144  0.91170  0.63850  Biso   1.000  C
  C457     1.0000 0.61142  0.91162  0.63850  Biso   1.000  C
  C458     1.0000 0.63428  0.99082  0.98625  Biso   1.000  C
  C459     1.0000 0.56161  0.99557  0.79031  Biso   1.000  C
  C460     1.0000 0.63426  0.99074  0.98625  Biso   1.000  C
  C461     1.0000 0.56159  0.99549  0.79031  Biso   1.000  C
  C462     1.0000 0.63418  0.99074  0.98625  Biso   1.000  C
  C463     1.0000 0.56151  0.99549  0.79031  Biso   1.000  C
  O133     1.0000 0.98746  0.64544  0.11902  Biso   1.000  O
  O134     1.0000 0.98752  0.64536  0.11902  Biso   1.000  O
  O135     1.0000 0.98744  0.64536  0.11902  Biso   1.000  O
  O136     1.0000 0.98754  0.64544  0.11902  Biso   1.000  O
  N318     1.0000 0.13007  0.66745  0.04414  Biso   1.000  N
  N319     1.0000 0.13015  0.66745  0.04414  Biso   1.000  N
  C464     1.0000 0.12936  0.65358  0.93246  Biso   1.000  C
  C465     1.0000 0.12928  0.65358  0.93246  Biso   1.000  C
  C466     1.0000 0.12934  0.65350  0.93246  Biso   1.000  C
  N320     1.0000 0.97405  0.67593  0.76563  Biso   1.000  N
  H449     1.0000 0.96663  0.52925  0.81421  Biso   1.000  H
  N321     1.0000 0.97402  0.67585  0.76563  Biso   1.000  N
  H450     1.0000 0.96661  0.52917  0.81421  Biso   1.000  H
  N322     1.0000 0.97394  0.67585  0.76563  Biso   1.000  N
  H451     1.0000 0.88053  0.70104  0.60913  Biso   1.000  H
  H452     1.0000 0.81501  0.58875  0.63432  Biso   1.000  H
  H453     1.0000 0.88059  0.70096  0.60913  Biso   1.000  H
  H454     1.0000 0.81507  0.58867  0.63432  Biso   1.000  H
  H455     1.0000 0.81499  0.58867  0.63432  Biso   1.000  H
  H456     1.0000 0.81509  0.58875  0.63432  Biso   1.000  H
  H457     1.0000 0.88051  0.70096  0.60913  Biso   1.000  H
  O137     1.0000 0.82178  0.87268  0.61963  Biso   1.000  O
  O138     1.0000 0.82170  0.87268  0.61963  Biso   1.000  O
  H458     1.0000 0.64280  0.94195  0.58437  Biso   1.000  H
  H459     1.0000 0.52112  0.87603  0.59530  Biso   1.000  H
  N323     1.0000 0.63361  0.00009  0.72576  Biso   1.000  N
  H460     1.0000 0.64290  0.94189  0.58446  Biso   1.000  H
  N324     1.0000 0.63367  0.00001  0.72576  Biso   1.000  N
  H461     1.0000 0.64286  0.94187  0.58437  Biso   1.000  H
  H462     1.0000 0.52118  0.87595  0.59530  Biso   1.000  H
  H463     1.0000 0.64282  0.94189  0.58446  Biso   1.000  H
  N325     1.0000 0.63359  0.00001  0.72576  Biso   1.000  N
  H464     1.0000 0.64288  0.94195  0.58437  Biso   1.000  H
  N326     1.0000 0.63369  0.00009  0.72576  Biso   1.000  N
  H465     1.0000 0.64278  0.94187  0.58437  Biso   1.000  H
  H466     1.0000 0.52110  0.87595  0.59530  Biso   1.000  H
  O139     1.0000 0.65347  0.95547  0.07445  Biso   1.000  O
  O140     1.0000 0.65341  0.95555  0.07445  Biso   1.000  O
  O141     1.0000 0.65339  0.95547  0.07445  Biso   1.000  O
  O142     1.0000 0.65349  0.95555  0.07445  Biso   1.000  O
  N327     1.0000 0.65279  0.09750  0.97644  Biso   1.000  N
  N328     1.0000 0.65273  0.09758  0.97644  Biso   1.000  N
  N329     1.0000 0.65271  0.09750  0.97644  Biso   1.000  N
  N330     1.0000 0.65281  0.09758  0.97644  Biso   1.000  N
  H467     1.0000 0.47096  0.97507  0.73908  Biso   1.000  H
  H468     1.0000 0.47094  0.97499  0.73908  Biso   1.000  H
  H469     1.0000 0.47086  0.97499  0.73908  Biso   1.000  H
  C467     1.0000 0.61174  0.11308  0.85998  Biso   1.000  C
  C468     1.0000 0.61182  0.11308  0.85998  Biso   1.000  C
  C469     1.0000 0.24066  0.71551  0.15027  Biso   1.000  C
  C470     1.0000 0.24068  0.71559  0.15027  Biso   1.000  C
  N331     1.0000 0.16866  0.75388  0.89456  Biso   1.000  N
  H470     1.0000 0.17535  0.60207  0.92589  Biso   1.000  H
  H471     1.0000 0.17525  0.60199  0.92589  Biso   1.000  H
  H472     1.0000 0.17533  0.60199  0.92589  Biso   1.000  H
  N332     1.0000 0.16874  0.75388  0.89456  Biso   1.000  N
  C471     1.0000 0.08038  0.75918  0.79150  Biso   1.000  C
  C472     1.0000 0.08046  0.75918  0.79150  Biso   1.000  C
  C473     1.0000 0.71817  0.10046  0.74813  Biso   1.000  C
  C474     1.0000 0.71819  0.10054  0.74813  Biso   1.000  C
  C475     1.0000 0.71808  0.10046  0.74813  Biso   1.000  C
  C476     1.0000 0.70234  0.18660  0.07155  Biso   1.000  C
  C477     1.0000 0.70245  0.18668  0.07155  Biso   1.000  C
  C478     1.0000 0.70242  0.18660  0.07155  Biso   1.000  C
  N333     1.0000 0.71040  0.16677  0.83052  Biso   1.000  N
  H473     1.0000 0.54597  0.14971  0.83880  Biso   1.000  H
  N334     1.0000 0.71034  0.16685  0.83052  Biso   1.000  N
  H474     1.0000 0.54589  0.14971  0.83880  Biso   1.000  H
  N335     1.0000 0.71032  0.16677  0.83052  Biso   1.000  N
  N336     1.0000 0.71043  0.16685  0.83052  Biso   1.000  N
  N337     1.0000 0.28964  0.83338  0.16948  Biso   1.000  N
  H475     1.0000 0.30549  0.68375  0.15069  Biso   1.000  H
  H476     1.0000 0.22162  0.69532  0.21447  Biso   1.000  H
  H477     1.0000 0.30557  0.68375  0.15069  Biso   1.000  H
  H478     1.0000 0.22164  0.69540  0.21447  Biso   1.000  H
  N338     1.0000 0.28972  0.83338  0.16948  Biso   1.000  N
  C479     1.0000 0.29773  0.81363  0.92845  Biso   1.000  C
  C480     1.0000 0.29762  0.81355  0.92845  Biso   1.000  C
  C481     1.0000 0.29770  0.81355  0.92845  Biso   1.000  C
  O143     1.0000 0.09387  0.82490  0.73140  Biso   1.000  O
  O144     1.0000 0.09377  0.82482  0.73140  Biso   1.000  O
  O145     1.0000 0.78732  0.12687  0.70279  Biso   1.000  O
  O146     1.0000 0.78723  0.12687  0.70279  Biso   1.000  O
  N339     1.0000 0.83141  0.24634  0.10544  Biso   1.000  N
  H479     1.0000 0.65275  0.23748  0.05089  Biso   1.000  H
  H480     1.0000 0.69432  0.15777  0.13746  Biso   1.000  H
  N340     1.0000 0.83130  0.24626  0.10544  Biso   1.000  N
  H481     1.0000 0.65273  0.23740  0.05089  Biso   1.000  H
  H482     1.0000 0.69430  0.15769  0.13746  Biso   1.000  H
  H483     1.0000 0.69440  0.15777  0.13746  Biso   1.000  H
  N341     1.0000 0.83138  0.24626  0.10544  Biso   1.000  N
  C482     1.0000 0.75939  0.28464  0.84973  Biso   1.000  C
  C483     1.0000 0.28188  0.89969  0.25187  Biso   1.000  C
  C484     1.0000 0.38831  0.88707  0.14002  Biso   1.000  C
  C485     1.0000 0.38833  0.88715  0.14002  Biso   1.000  C
  C486     1.0000 0.28198  0.89977  0.25187  Biso   1.000  C
  C487     1.0000 0.28190  0.89977  0.25187  Biso   1.000  C
  H484     1.0000 0.34732  0.76275  0.94911  Biso   1.000  H
  H485     1.0000 0.30575  0.84246  0.86254  Biso   1.000  H
  H486     1.0000 0.30573  0.84238  0.86254  Biso   1.000  H
  N342     1.0000 0.34726  0.90264  0.02356  Biso   1.000  N
  N343     1.0000 0.34734  0.90264  0.02356  Biso   1.000  N
  C488     1.0000 0.91969  0.24105  0.20850  Biso   1.000  C
  C489     1.0000 0.87071  0.34665  0.06754  Biso   1.000  C
  C490     1.0000 0.91967  0.24097  0.20850  Biso   1.000  C
  C491     1.0000 0.87069  0.34657  0.06754  Biso   1.000  C
  C492     1.0000 0.87079  0.34665  0.06754  Biso   1.000  C
  N344     1.0000 0.86998  0.33270  0.95586  Biso   1.000  N
  H487     1.0000 0.69456  0.31640  0.84931  Biso   1.000  H
  H488     1.0000 0.77843  0.30482  0.78553  Biso   1.000  H
  N345     1.0000 0.87000  0.33278  0.95586  Biso   1.000  N
  H489     1.0000 0.69450  0.31648  0.84931  Biso   1.000  H
  H490     1.0000 0.69448  0.31640  0.84931  Biso   1.000  H
  H491     1.0000 0.69458  0.31648  0.84931  Biso   1.000  H
  N346     1.0000 0.86990  0.33270  0.95586  Biso   1.000  N
  O147     1.0000 0.21273  0.87328  0.29721  Biso   1.000  O
  O148     1.0000 0.21275  0.87336  0.29721  Biso   1.000  O
  O149     1.0000 0.21284  0.87336  0.29721  Biso   1.000  O
  N347     1.0000 0.36646  0.00013  0.27424  Biso   1.000  N
  N348     1.0000 0.36648  0.00021  0.27424  Biso   1.000  N
  N349     1.0000 0.36638  0.00013  0.27424  Biso   1.000  N
  N350     1.0000 0.36640  0.00021  0.27424  Biso   1.000  N
  H492     1.0000 0.45408  0.85043  0.16120  Biso   1.000  H
  H493     1.0000 0.45418  0.85051  0.16120  Biso   1.000  H
  H494     1.0000 0.45416  0.85043  0.16120  Biso   1.000  H
  H495     1.0000 0.45410  0.85051  0.16120  Biso   1.000  H
  C493     1.0000 0.43846  0.00466  0.20969  Biso   1.000  C
  C494     1.0000 0.43848  0.00474  0.20969  Biso   1.000  C
  C495     1.0000 0.43854  0.00466  0.20969  Biso   1.000  C
  C496     1.0000 0.36579  0.00941  0.01375  Biso   1.000  C
  C497     1.0000 0.36589  0.00949  0.01375  Biso   1.000  C
  C498     1.0000 0.36587  0.00941  0.01375  Biso   1.000  C
  C499     1.0000 0.36581  0.00949  0.01375  Biso   1.000  C
  N351     1.0000 0.02602  0.32430  0.23437  Biso   1.000  N
  N352     1.0000 0.02613  0.32438  0.23437  Biso   1.000  N
  N353     1.0000 0.02610  0.32430  0.23437  Biso   1.000  N
  N354     1.0000 0.02604  0.32438  0.23437  Biso   1.000  N
  O150     1.0000 0.90620  0.17533  0.26860  Biso   1.000  O
  O151     1.0000 0.90628  0.17533  0.26860  Biso   1.000  O
  C500     1.0000 0.01091  0.39293  0.15018  Biso   1.000  C
  C501     1.0000 0.01093  0.39301  0.15018  Biso   1.000  C
  C502     1.0000 0.01085  0.39301  0.15018  Biso   1.000  C
  H496     1.0000 0.82472  0.39816  0.07411  Biso   1.000  H
  H497     1.0000 0.82480  0.39816  0.07411  Biso   1.000  H
  C503     1.0000 0.98682  0.35469  0.96201  Biso   1.000  C
  C504     1.0000 0.98674  0.35469  0.96201  Biso   1.000  C
  C505     1.0000 0.38855  0.08852  0.36150  Biso   1.000  C
  C506     1.0000 0.38863  0.08852  0.36150  Biso   1.000  C
  C507     1.0000 0.38853  0.08844  0.36150  Biso   1.000  C
  N355     1.0000 0.41240  0.07061  0.12132  Biso   1.000  N
  H498     1.0000 0.52911  0.02515  0.26092  Biso   1.000  H
  H499     1.0000 0.52921  0.02523  0.26092  Biso   1.000  H
  H500     1.0000 0.52919  0.02515  0.26092  Biso   1.000  H
  N356     1.0000 0.41238  0.07053  0.12132  Biso   1.000  N
  N357     1.0000 0.41232  0.07061  0.12132  Biso   1.000  N
  H501     1.0000 0.52913  0.02523  0.26092  Biso   1.000  H
  O152     1.0000 0.34658  0.04467  0.92555  Biso   1.000  O
  O153     1.0000 0.34666  0.04467  0.92555  Biso   1.000  O
  C508     1.0000 0.14002  0.33340  0.33255  Biso   1.000  C
  C509     1.0000 0.14011  0.33340  0.33255  Biso   1.000  C
  C510     1.0000 0.14000  0.33332  0.33255  Biso   1.000  C
  N358     1.0000 0.06988  0.38178  0.07513  Biso   1.000  N
  N359     1.0000 0.06991  0.38186  0.07513  Biso   1.000  N
  N360     1.0000 0.06999  0.38186  0.07513  Biso   1.000  N
  H502     1.0000 0.03344  0.47098  0.18579  Biso   1.000  H
  H503     1.0000 0.03352  0.47098  0.18579  Biso   1.000  H
  H504     1.0000 0.03342  0.47090  0.18579  Biso   1.000  H
  O154     1.0000 0.01253  0.35478  0.88098  Biso   1.000  O
  O155     1.0000 0.01261  0.35478  0.88098  Biso   1.000  O
  N361     1.0000 0.33014  0.16980  0.31616  Biso   1.000  N
  H505     1.0000 0.35727  0.05827  0.41563  Biso   1.000  H
  H506     1.0000 0.47895  0.12420  0.40470  Biso   1.000  H
  N362     1.0000 0.33024  0.16988  0.31616  Biso   1.000  N
  H507     1.0000 0.35729  0.05835  0.41563  Biso   1.000  H
  N363     1.0000 0.33022  0.16980  0.31616  Biso   1.000  N
  H508     1.0000 0.35719  0.05827  0.41563  Biso   1.000  H
  H509     1.0000 0.47892  0.12412  0.40470  Biso   1.000  H
  N364     1.0000 0.33016  0.16988  0.31616  Biso   1.000  N
  H510     1.0000 0.35721  0.05835  0.41563  Biso   1.000  H
  H511     1.0000 0.47886  0.12420  0.40470  Biso   1.000  H
  C511     1.0000 0.46204  0.18852  0.14472  Biso   1.000  C
  C512     1.0000 0.46206  0.18860  0.14472  Biso   1.000  C
  C513     1.0000 0.46212  0.18852  0.14472  Biso   1.000  C
  N365     1.0000 0.22093  0.28350  0.30796  Biso   1.000  N
  N366     1.0000 0.22095  0.28358  0.30796  Biso   1.000  N
  N367     1.0000 0.22101  0.28350  0.30796  Biso   1.000  N
  H512     1.0000 0.11954  0.29919  0.39087  Biso   1.000  H
  H513     1.0000 0.18506  0.41148  0.36568  Biso   1.000  H
  H514     1.0000 0.18508  0.41156  0.36568  Biso   1.000  H
  H515     1.0000 0.18498  0.41148  0.36568  Biso   1.000  H
  H516     1.0000 0.11946  0.29919  0.39087  Biso   1.000  H
  H517     1.0000 0.18500  0.41156  0.36568  Biso   1.000  H
  C514     1.0000 0.20192  0.42591  0.11023  Biso   1.000  C
  C515     1.0000 0.20194  0.42599  0.11023  Biso   1.000  C
  C516     1.0000 0.20186  0.42599  0.11023  Biso   1.000  C
  C517     1.0000 0.23689  0.18704  0.33930  Biso   1.000  C
  C518     1.0000 0.39412  0.26419  0.28577  Biso   1.000  C
  C519     1.0000 0.23691  0.18712  0.33930  Biso   1.000  C
  C520     1.0000 0.39422  0.26427  0.28577  Biso   1.000  C
  C521     1.0000 0.23697  0.18704  0.33930  Biso   1.000  C
  C522     1.0000 0.39420  0.26419  0.28577  Biso   1.000  C
  C523     1.0000 0.39414  0.26427  0.28577  Biso   1.000  C
  N368     1.0000 0.38760  0.24481  0.17238  Biso   1.000  N
  H518     1.0000 0.47099  0.21197  0.07693  Biso   1.000  H
  H519     1.0000 0.54572  0.21076  0.20909  Biso   1.000  H
  N369     1.0000 0.38770  0.24489  0.17238  Biso   1.000  N
  H520     1.0000 0.54580  0.21076  0.20909  Biso   1.000  H
  N370     1.0000 0.38768  0.24481  0.17238  Biso   1.000  N
  H521     1.0000 0.47089  0.21189  0.07693  Biso   1.000  H
  N371     1.0000 0.38762  0.24489  0.17238  Biso   1.000  N
  H522     1.0000 0.47091  0.21197  0.07693  Biso   1.000  H
  H523     1.0000 0.47097  0.21189  0.07693  Biso   1.000  H
  C524     1.0000 0.31521  0.34179  0.27612  Biso   1.000  C
  C525     1.0000 0.31523  0.34187  0.27612  Biso   1.000  C
  C526     1.0000 0.31513  0.34179  0.27612  Biso   1.000  C
  C527     1.0000 0.31515  0.34187  0.27612  Biso   1.000  C
  N372     1.0000 0.27037  0.35206  0.15727  Biso   1.000  N
  N373     1.0000 0.27047  0.35214  0.15727  Biso   1.000  N
  N374     1.0000 0.27045  0.35206  0.15727  Biso   1.000  N
  N375     1.0000 0.27039  0.35214  0.15727  Biso   1.000  N
  H524     1.0000 0.23485  0.49351  0.16803  Biso   1.000  H
  H525     1.0000 0.21566  0.44585  0.04337  Biso   1.000  H
  H526     1.0000 0.23493  0.49351  0.16803  Biso   1.000  H
  H527     1.0000 0.23482  0.49343  0.16803  Biso   1.000  H
  H528     1.0000 0.21558  0.44585  0.04337  Biso   1.000  H
  O156     1.0000 0.17829  0.12754  0.38037  Biso   1.000  O
  O157     1.0000 0.17837  0.12754  0.38037  Biso   1.000  O
  O158     1.0000 0.17827  0.12746  0.38037  Biso   1.000  O
  H529     1.0000 0.48132  0.29800  0.34510  Biso   1.000  H
  H530     1.0000 0.48140  0.29800  0.34510  Biso   1.000  H
  H531     1.0000 0.48130  0.29792  0.34510  Biso   1.000  H
  C528     1.0000 0.31587  0.29697  0.09836  Biso   1.000  C
  C529     1.0000 0.31589  0.29705  0.09836  Biso   1.000  C
  C530     1.0000 0.31597  0.29705  0.09836  Biso   1.000  C
  H532     1.0000 0.36562  0.41388  0.32820  Biso   1.000  H
  H533     1.0000 0.36572  0.41396  0.32820  Biso   1.000  H
  H534     1.0000 0.36570  0.41388  0.32820  Biso   1.000  H
  H535     1.0000 0.36564  0.41396  0.32820  Biso   1.000  H
  O159     1.0000 0.29653  0.29599  0.99863  Biso   1.000  O
  O160     1.0000 0.29661  0.29599  0.99863  Biso   1.000  O
