data_image0
_cell_length_a       24.483
_cell_length_b       24.483
_cell_length_c       19.612
_cell_angle_alpha    90
_cell_angle_beta     90
_cell_angle_gamma    120

_symmetry_space_group_name_H-M    "P 1"
_symmetry_int_tables_number       1

loop_
  _symmetry_equiv_pos_as_xyz
  'x, y, z'

loop_
  _atom_site_label
  _atom_site_occupancy
  _atom_site_fract_x
  _atom_site_fract_y
  _atom_site_fract_z
  _atom_site_thermal_displace_type
  _atom_site_B_iso_or_equiv
  _atom_site_type_symbol
  N1       1.0000 0.84451  0.86068  0.44641  Biso   1.000  N
  C1       1.0000 0.79659  0.79385  0.45436  Biso   1.000  C
  C2       1.0000 0.89721  0.87281  0.42285  Biso   1.000  C
  C3       1.0000 0.73611  0.78145  0.41770  Biso   1.000  C
  C4       1.0000 0.73607  0.78145  0.41770  Biso   1.000  C
  C5       1.0000 0.78433  0.77791  0.53013  Biso   1.000  C
  C6       1.0000 0.78429  0.77791  0.53013  Biso   1.000  C
  H1       1.0000 0.81245  0.76716  0.43326  Biso   1.000  H
  C7       1.0000 0.94944  0.93822  0.41526  Biso   1.000  C
  H2       1.0000 0.90354  0.83899  0.40970  Biso   1.000  H
  C8       1.0000 0.94940  0.93822  0.41526  Biso   1.000  C
  C9       1.0000 0.68643  0.71174  0.42581  Biso   1.000  C
  C10      1.0000 0.68647  0.71174  0.42581  Biso   1.000  C
  N2       1.0000 0.75130  0.79697  0.34586  Biso   1.000  N
  H3       1.0000 0.72017  0.80847  0.43779  Biso   1.000  H
  N3       1.0000 0.75126  0.79697  0.34586  Biso   1.000  N
  H4       1.0000 0.72013  0.80847  0.43779  Biso   1.000  H
  C11      1.0000 0.73356  0.70773  0.53901  Biso   1.000  C
  C12      1.0000 0.73352  0.70773  0.53901  Biso   1.000  C
  H5       1.0000 0.76985  0.80498  0.55175  Biso   1.000  H
  H6       1.0000 0.82387  0.78617  0.55277  Biso   1.000  H
  H7       1.0000 0.82383  0.78617  0.55277  Biso   1.000  H
  C13      1.0000 0.93872  0.98906  0.41449  Biso   1.000  C
  C14      1.0000 0.93868  0.98906  0.41449  Biso   1.000  C
  C15      1.0000 0.01094  0.94963  0.41449  Biso   1.000  C
  C16      1.0000 0.67366  0.69283  0.50066  Biso   1.000  C
  H8       1.0000 0.64677  0.70358  0.40358  Biso   1.000  H
  H9       1.0000 0.70124  0.68557  0.40266  Biso   1.000  H
  C17      1.0000 0.67362  0.69283  0.50066  Biso   1.000  C
  H10      1.0000 0.64673  0.70358  0.40358  Biso   1.000  H
  C18      1.0000 0.75787  0.84932  0.32531  Biso   1.000  C
  C19      1.0000 0.75783  0.84932  0.32531  Biso   1.000  C
  H11      1.0000 0.74997  0.68076  0.52157  Biso   1.000  H
  H12      1.0000 0.72384  0.69825  0.58806  Biso   1.000  H
  H13      1.0000 0.74993  0.68076  0.52157  Biso   1.000  H
  H14      1.0000 0.89666  0.98156  0.41347  Biso   1.000  H
  H15      1.0000 0.89661  0.98156  0.41347  Biso   1.000  H
  C20      1.0000 0.98881  0.05061  0.41526  Biso   1.000  C
  C21      1.0000 0.98879  0.05056  0.41526  Biso   1.000  C
  H16      1.0000 0.01845  0.91506  0.41347  Biso   1.000  H
  C22      1.0000 0.06177  0.01118  0.41526  Biso   1.000  C
  H17      1.0000 0.65414  0.71547  0.52238  Biso   1.000  H
  H18      1.0000 0.64327  0.64708  0.50388  Biso   1.000  H
  H19      1.0000 0.64323  0.64708  0.50388  Biso   1.000  H
  H20      1.0000 0.74864  0.87375  0.35585  Biso   1.000  H
  C23      1.0000 0.77924  0.87328  0.25566  Biso   1.000  C
  C24      1.0000 0.97562  0.10282  0.42285  Biso   1.000  C
  C25      1.0000 0.05041  0.06132  0.41449  Biso   1.000  C
  C26      1.0000 0.12719  0.02439  0.42285  Biso   1.000  C
  C27      1.0000 0.12715  0.02439  0.42285  Biso   1.000  C
  C28      1.0000 0.79002  0.93322  0.23761  Biso   1.000  C
  C29      1.0000 0.79212  0.83922  0.20834  Biso   1.000  C
  C30      1.0000 0.78998  0.93322  0.23761  Biso   1.000  C
  H21      1.0000 0.93539  0.09645  0.40970  Biso   1.000  H
  N4       1.0000 0.01622  0.15550  0.44641  Biso   1.000  N
  N5       1.0000 0.01614  0.15550  0.44641  Biso   1.000  N
  H22      1.0000 0.08496  0.10339  0.41347  Biso   1.000  H
  N6       1.0000 0.13934  0.98383  0.44641  Biso   1.000  N
  H23      1.0000 0.16101  0.06457  0.40970  Biso   1.000  H
  C31      1.0000 0.81134  0.95798  0.17270  Biso   1.000  C
  H24      1.0000 0.78266  0.95746  0.27029  Biso   1.000  H
  C32      1.0000 0.81130  0.95798  0.17270  Biso   1.000  C
  H25      1.0000 0.78262  0.95746  0.27029  Biso   1.000  H
  C33      1.0000 0.81454  0.86366  0.14374  Biso   1.000  C
  H26      1.0000 0.78557  0.79876  0.22007  Biso   1.000  H
  C34      1.0000 0.81450  0.86366  0.14374  Biso   1.000  C
  H27      1.0000 0.78552  0.79876  0.22007  Biso   1.000  H
  C35      1.0000 0.99725  0.20342  0.45436  Biso   1.000  C
  C36      1.0000 0.20619  0.00274  0.45436  Biso   1.000  C
  C37      1.0000 0.20614  0.00274  0.45436  Biso   1.000  C
  C38      1.0000 0.82370  0.92256  0.12605  Biso   1.000  C
  C39      1.0000 0.82363  0.92252  0.12605  Biso   1.000  C
  C40      1.0000 0.82004  0.02071  0.15613  Biso   1.000  C
  C41      1.0000 0.83076  0.82828  0.09397  Biso   1.000  C
  C42      1.0000 0.83073  0.82824  0.09397  Biso   1.000  C
  H28      1.0000 0.95477  0.18757  0.43326  Biso   1.000  H
  C43      1.0000 0.99358  0.21568  0.53013  Biso   1.000  C
  H29      1.0000 0.95469  0.18757  0.43326  Biso   1.000  H
  C44      1.0000 0.04535  0.26393  0.41770  Biso   1.000  C
  C45      1.0000 0.21857  0.95463  0.41770  Biso   1.000  C
  H30      1.0000 0.23281  0.04528  0.43326  Biso   1.000  H
  C46      1.0000 0.22209  0.00637  0.53013  Biso   1.000  C
  C47      1.0000 0.22201  0.00637  0.53013  Biso   1.000  C
  H31      1.0000 0.83847  0.93888  0.08179  Biso   1.000  H
  H32      1.0000 0.83843  0.93888  0.08179  Biso   1.000  H
  N7       1.0000 0.83387  0.04486  0.09749  Biso   1.000  N
  H33      1.0000 0.81480  0.04406  0.19167  Biso   1.000  H
  H34      1.0000 0.84078  0.84309  0.04839  Biso   1.000  H
  N8       1.0000 0.83149  0.77985  0.11065  Biso   1.000  N
  H35      1.0000 0.84071  0.84305  0.04839  Biso   1.000  H
  N9       1.0000 0.83145  0.77985  0.11065  Biso   1.000  N
  H36      1.0000 0.96230  0.17616  0.55277  Biso   1.000  H
  C48      1.0000 0.97421  0.26648  0.53901  Biso   1.000  C
  H37      1.0000 0.03513  0.23016  0.55175  Biso   1.000  H
  N10      1.0000 0.04573  0.24874  0.34586  Biso   1.000  N
  C49      1.0000 0.02531  0.31355  0.42581  Biso   1.000  C
  H38      1.0000 0.08837  0.27987  0.43779  Biso   1.000  H
  N11      1.0000 0.04568  0.24874  0.34586  Biso   1.000  N
  H39      1.0000 0.08829  0.27987  0.43779  Biso   1.000  H
  N12      1.0000 0.20304  0.95430  0.34586  Biso   1.000  N
  C50      1.0000 0.28826  0.97468  0.42581  Biso   1.000  C
  H40      1.0000 0.19157  0.91167  0.43779  Biso   1.000  H
  H41      1.0000 0.19153  0.91167  0.43779  Biso   1.000  H
  H42      1.0000 0.19505  0.96487  0.55175  Biso   1.000  H
  H43      1.0000 0.21382  0.03769  0.55277  Biso   1.000  H
  C51      1.0000 0.29226  0.02580  0.53901  Biso   1.000  C
  C52      1.0000 0.83616  0.10466  0.08734  Biso   1.000  C
  C53      1.0000 0.84587  0.74603  0.05930  Biso   1.000  C
  C54      1.0000 0.84583  0.74603  0.05930  Biso   1.000  C
  H44      1.0000 0.93084  0.25006  0.52157  Biso   1.000  H
  H45      1.0000 0.97445  0.27619  0.58806  Biso   1.000  H
  H46      1.0000 0.97443  0.27615  0.58806  Biso   1.000  H
  C55      1.0000 0.01919  0.32638  0.50066  Biso   1.000  C
  C56      1.0000 0.09154  0.24219  0.32531  Biso   1.000  C
  C57      1.0000 0.09150  0.24219  0.32531  Biso   1.000  C
  H47      1.0000 0.98432  0.29878  0.40266  Biso   1.000  H
  H48      1.0000 0.05685  0.35326  0.40358  Biso   1.000  H
  H49      1.0000 0.05677  0.35326  0.40358  Biso   1.000  H
  C58      1.0000 0.15070  0.90851  0.32531  Biso   1.000  C
  C59      1.0000 0.15066  0.90851  0.32531  Biso   1.000  C
  C60      1.0000 0.30722  0.98081  0.50066  Biso   1.000  C
  H50      1.0000 0.29644  0.94317  0.40358  Biso   1.000  H
  C61      1.0000 0.30718  0.98081  0.50066  Biso   1.000  C
  H51      1.0000 0.31439  0.01566  0.40266  Biso   1.000  H
  H52      1.0000 0.31922  0.06919  0.52157  Biso   1.000  H
  H53      1.0000 0.30174  0.02557  0.58806  Biso   1.000  H
  H54      1.0000 0.31920  0.06915  0.52157  Biso   1.000  H
  C62      1.0000 0.78309  0.09622  0.04105  Biso   1.000  C
  H55      1.0000 0.83010  0.11966  0.13267  Biso   1.000  H
  C63      1.0000 0.90017  0.15418  0.05930  Biso   1.000  C
  C64      1.0000 0.90015  0.15413  0.05930  Biso   1.000  C
  C65      1.0000 0.78421  0.68585  0.04100  Biso   1.000  C
  C66      1.0000 0.89534  0.73150  0.08734  Biso   1.000  C
  H56      1.0000 0.86293  0.77296  0.01774  Biso   1.000  H
  C67      1.0000 0.78417  0.68585  0.04100  Biso   1.000  C
  C68      1.0000 0.89532  0.73146  0.08734  Biso   1.000  C
  H57      1.0000 0.06132  0.34585  0.52238  Biso   1.000  H
  H58      1.0000 0.00382  0.35675  0.50388  Biso   1.000  H
  H59      1.0000 0.06128  0.34585  0.52238  Biso   1.000  H
  H60      1.0000 0.12518  0.25139  0.35585  Biso   1.000  H
  C69      1.0000 0.09403  0.22078  0.25566  Biso   1.000  C
  H61      1.0000 0.12510  0.25139  0.35585  Biso   1.000  H
  H62      1.0000 0.12624  0.87488  0.35585  Biso   1.000  H
  C70      1.0000 0.12675  0.90596  0.25566  Biso   1.000  C
  H63      1.0000 0.28456  0.93869  0.52238  Biso   1.000  H
  H64      1.0000 0.35297  0.99618  0.50388  Biso   1.000  H
  H65      1.0000 0.28454  0.93865  0.52238  Biso   1.000  H
  H66      1.0000 0.35293  0.99618  0.50388  Biso   1.000  H
  H67      1.0000 0.78732  0.08009  0.99628  Biso   1.000  H
  H68      1.0000 0.74216  0.06476  0.06119  Biso   1.000  H
  C71      1.0000 0.78399  0.15871  0.03095  Biso   1.000  C
  H69      1.0000 0.74212  0.06476  0.06119  Biso   1.000  H
  C72      1.0000 0.78390  0.15871  0.03095  Biso   1.000  C
  N13      1.0000 0.94839  0.16852  0.11065  Biso   1.000  N
  C73      1.0000 0.90167  0.21582  0.04100  Biso   1.000  C
  H70      1.0000 0.91003  0.13706  0.01774  Biso   1.000  H
  C74      1.0000 0.90163  0.21582  0.04100  Biso   1.000  C
  H71      1.0000 0.76185  0.66538  0.08378  Biso   1.000  H
  H72      1.0000 0.75705  0.69778  0.01504  Biso   1.000  H
  C75      1.0000 0.79254  0.63854  0.99954  Biso   1.000  C
  C76      1.0000 0.79248  0.63850  0.99954  Biso   1.000  C
  N14      1.0000 0.95520  0.78904  0.09749  Biso   1.000  N
  C77      1.0000 0.90381  0.68684  0.04105  Biso   1.000  C
  H73      1.0000 0.88037  0.71047  0.13267  Biso   1.000  H
  N15      1.0000 0.95516  0.78904  0.09749  Biso   1.000  N
  C78      1.0000 0.90377  0.68684  0.04105  Biso   1.000  C
  H74      1.0000 0.88033  0.71047  0.13267  Biso   1.000  H
  C79      1.0000 0.04716  0.20790  0.20834  Biso   1.000  C
  C80      1.0000 0.04712  0.20790  0.20834  Biso   1.000  C
  C81      1.0000 0.14326  0.21002  0.23761  Biso   1.000  C
  C82      1.0000 0.14322  0.21002  0.23761  Biso   1.000  C
  C83      1.0000 0.06679  0.85677  0.23761  Biso   1.000  C
  C84      1.0000 0.16080  0.95289  0.20834  Biso   1.000  C
  C85      1.0000 0.16076  0.95289  0.20834  Biso   1.000  C
  C86      1.0000 0.84601  0.20752  0.99954  Biso   1.000  C
  C87      1.0000 0.84599  0.20748  0.99954  Biso   1.000  C
  H75      1.0000 0.74859  0.15197  0.00076  Biso   1.000  H
  H76      1.0000 0.77820  0.17418  0.07546  Biso   1.000  H
  C88      1.0000 0.99749  0.16927  0.09397  Biso   1.000  C
  H77      1.0000 0.90357  0.23818  0.08378  Biso   1.000  H
  H78      1.0000 0.94074  0.24299  0.01504  Biso   1.000  H
  H79      1.0000 0.90349  0.23818  0.08378  Biso   1.000  H
  H80      1.0000 0.94071  0.24294  0.01504  Biso   1.000  H
  C89      1.0000 0.84132  0.62524  0.03095  Biso   1.000  C
  H81      1.0000 0.80576  0.65486  0.95268  Biso   1.000  H
  H82      1.0000 0.75166  0.59869  0.99648  Biso   1.000  H
  H83      1.0000 0.80572  0.65486  0.95268  Biso   1.000  H
  H84      1.0000 0.75164  0.59864  0.99648  Biso   1.000  H
  C90      1.0000 0.97933  0.79932  0.15613  Biso   1.000  C
  C91      1.0000 0.97929  0.79932  0.15613  Biso   1.000  C
  H85      1.0000 0.93526  0.67736  0.06119  Biso   1.000  H
  H86      1.0000 0.93522  0.67736  0.06119  Biso   1.000  H
  H87      1.0000 0.91994  0.70726  0.99628  Biso   1.000  H
  C92      1.0000 0.04915  0.18550  0.14374  Biso   1.000  C
  H88      1.0000 0.01327  0.21446  0.22007  Biso   1.000  H
  H89      1.0000 0.01322  0.21446  0.22007  Biso   1.000  H
  C93      1.0000 0.14667  0.18866  0.17270  Biso   1.000  C
  H90      1.0000 0.17484  0.21738  0.27029  Biso   1.000  H
  C94      1.0000 0.04203  0.85333  0.17270  Biso   1.000  C
  C95      1.0000 0.04199  0.85333  0.17270  Biso   1.000  C
  H91      1.0000 0.04257  0.82517  0.27029  Biso   1.000  H
  H92      1.0000 0.04253  0.82517  0.27029  Biso   1.000  H
  C96      1.0000 0.13638  0.95086  0.14374  Biso   1.000  C
  C97      1.0000 0.13634  0.95086  0.14374  Biso   1.000  C
  H93      1.0000 0.20125  0.98675  0.22007  Biso   1.000  H
  H94      1.0000 0.20121  0.98675  0.22007  Biso   1.000  H
  H95      1.0000 0.84915  0.19427  0.95268  Biso   1.000  H
  H96      1.0000 0.84707  0.24837  0.99648  Biso   1.000  H
  H97      1.0000 0.84699  0.24837  0.99648  Biso   1.000  H
  H98      1.0000 0.00230  0.15928  0.04839  Biso   1.000  H
  H99      1.0000 0.84806  0.59666  0.00076  Biso   1.000  H
  H100     1.0000 0.82587  0.60407  0.07546  Biso   1.000  H
  H101     1.0000 0.84802  0.59666  0.00076  Biso   1.000  H
  H102     1.0000 0.82583  0.60407  0.07546  Biso   1.000  H
  H103     1.0000 0.95595  0.77079  0.19167  Biso   1.000  H
  H104     1.0000 0.95593  0.77074  0.19167  Biso   1.000  H
  C98      1.0000 0.09890  0.17635  0.12605  Biso   1.000  C
  C99      1.0000 0.20066  0.17998  0.15613  Biso   1.000  C
  C100     1.0000 0.07748  0.90110  0.12605  Biso   1.000  C
  C101     1.0000 0.17176  0.00250  0.09397  Biso   1.000  C
  C102     1.0000 0.17173  0.00246  0.09397  Biso   1.000  C
  H105     1.0000 0.10046  0.16159  0.08179  Biso   1.000  H
  N16      1.0000 0.21096  0.16611  0.09749  Biso   1.000  N
  H106     1.0000 0.22927  0.18517  0.19167  Biso   1.000  H
  H107     1.0000 0.22919  0.18517  0.19167  Biso   1.000  H
  H108     1.0000 0.06116  0.89959  0.08179  Biso   1.000  H
  H109     1.0000 0.06114  0.89955  0.08179  Biso   1.000  H
  H110     1.0000 0.15698  0.99769  0.04839  Biso   1.000  H
  H111     1.0000 0.15691  0.99765  0.04839  Biso   1.000  H
  N17      1.0000 0.22016  0.05160  0.11065  Biso   1.000  N
  C103     1.0000 0.26856  0.16385  0.08734  Biso   1.000  C
  C104     1.0000 0.26848  0.16385  0.08734  Biso   1.000  C
  C105     1.0000 0.25398  0.09980  0.05930  Biso   1.000  C
  C106     1.0000 0.31317  0.21696  0.04105  Biso   1.000  C
  H112     1.0000 0.28951  0.16989  0.13267  Biso   1.000  H
  C107     1.0000 0.31415  0.09834  0.04100  Biso   1.000  C
  H113     1.0000 0.22702  0.08999  0.01774  Biso   1.000  H
  H114     1.0000 0.22700  0.08995  0.01774  Biso   1.000  H
  H115     1.0000 0.29273  0.21266  0.99628  Biso   1.000  H
  H116     1.0000 0.32261  0.25789  0.06119  Biso   1.000  H
  C108     1.0000 0.37473  0.21606  0.03095  Biso   1.000  C
  H117     1.0000 0.32259  0.25785  0.06119  Biso   1.000  H
  C109     1.0000 0.36146  0.15399  0.99954  Biso   1.000  C
  H118     1.0000 0.33461  0.09645  0.08378  Biso   1.000  H
  H119     1.0000 0.30226  0.05929  0.01504  Biso   1.000  H
  H120     1.0000 0.40338  0.25139  0.00076  Biso   1.000  H
  H121     1.0000 0.39596  0.22177  0.07546  Biso   1.000  H
  H122     1.0000 0.40329  0.25139  0.00076  Biso   1.000  H
  H123     1.0000 0.39592  0.22177  0.07546  Biso   1.000  H
  H124     1.0000 0.34516  0.15088  0.95268  Biso   1.000  H
  H125     1.0000 0.40134  0.15296  0.99648  Biso   1.000  H
  N18      1.0000 0.84451  0.86068  0.44641  Biso   1.000  N
  C110     1.0000 0.79659  0.79385  0.45436  Biso   1.000  C
  C111     1.0000 0.89721  0.87281  0.42285  Biso   1.000  C
  C112     1.0000 0.73611  0.78145  0.41770  Biso   1.000  C
  C113     1.0000 0.73607  0.78145  0.41770  Biso   1.000  C
  C114     1.0000 0.78433  0.77791  0.53013  Biso   1.000  C
  C115     1.0000 0.78429  0.77791  0.53013  Biso   1.000  C
  H126     1.0000 0.81245  0.76716  0.43326  Biso   1.000  H
  H127     1.0000 0.90354  0.83899  0.40970  Biso   1.000  H
  C116     1.0000 0.94944  0.93822  0.41526  Biso   1.000  C
  C117     1.0000 0.94940  0.93822  0.41526  Biso   1.000  C
  C118     1.0000 0.68643  0.71174  0.42581  Biso   1.000  C
  C119     1.0000 0.68647  0.71174  0.42581  Biso   1.000  C
  N19      1.0000 0.75130  0.79697  0.34586  Biso   1.000  N
  H128     1.0000 0.72017  0.80847  0.43779  Biso   1.000  H
  N20      1.0000 0.75126  0.79697  0.34586  Biso   1.000  N
  H129     1.0000 0.72013  0.80847  0.43779  Biso   1.000  H
  C120     1.0000 0.73356  0.70773  0.53901  Biso   1.000  C
  C121     1.0000 0.73352  0.70773  0.53901  Biso   1.000  C
  H130     1.0000 0.76985  0.80498  0.55175  Biso   1.000  H
  H131     1.0000 0.82387  0.78617  0.55277  Biso   1.000  H
  H132     1.0000 0.82383  0.78617  0.55277  Biso   1.000  H
  C122     1.0000 0.93872  0.98906  0.41449  Biso   1.000  C
  C123     1.0000 0.93868  0.98906  0.41449  Biso   1.000  C
  C124     1.0000 0.01094  0.94963  0.41449  Biso   1.000  C
  H133     1.0000 0.70124  0.68557  0.40266  Biso   1.000  H
  C125     1.0000 0.67366  0.69283  0.50066  Biso   1.000  C
  H134     1.0000 0.64677  0.70358  0.40358  Biso   1.000  H
  C126     1.0000 0.67362  0.69283  0.50066  Biso   1.000  C
  H135     1.0000 0.64673  0.70358  0.40358  Biso   1.000  H
  C127     1.0000 0.75787  0.84932  0.32531  Biso   1.000  C
  C128     1.0000 0.75783  0.84932  0.32531  Biso   1.000  C
  H136     1.0000 0.72384  0.69825  0.58806  Biso   1.000  H
  H137     1.0000 0.74997  0.68076  0.52157  Biso   1.000  H
  H138     1.0000 0.74993  0.68076  0.52157  Biso   1.000  H
  H139     1.0000 0.89666  0.98156  0.41347  Biso   1.000  H
  H140     1.0000 0.89661  0.98156  0.41347  Biso   1.000  H
  C129     1.0000 0.98881  0.05061  0.41526  Biso   1.000  C
  C130     1.0000 0.98879  0.05056  0.41526  Biso   1.000  C
  C131     1.0000 0.06177  0.01118  0.41526  Biso   1.000  C
  H141     1.0000 0.01845  0.91506  0.41347  Biso   1.000  H
  H142     1.0000 0.65414  0.71547  0.52238  Biso   1.000  H
  H143     1.0000 0.64327  0.64708  0.50388  Biso   1.000  H
  H144     1.0000 0.64323  0.64708  0.50388  Biso   1.000  H
  H145     1.0000 0.74864  0.87375  0.35585  Biso   1.000  H
  C132     1.0000 0.77924  0.87328  0.25566  Biso   1.000  C
  C133     1.0000 0.97562  0.10282  0.42285  Biso   1.000  C
  C134     1.0000 0.05041  0.06132  0.41449  Biso   1.000  C
  C135     1.0000 0.12719  0.02439  0.42285  Biso   1.000  C
  C136     1.0000 0.12715  0.02439  0.42285  Biso   1.000  C
  C137     1.0000 0.79212  0.83922  0.20834  Biso   1.000  C
  C138     1.0000 0.79002  0.93322  0.23761  Biso   1.000  C
  C139     1.0000 0.78998  0.93322  0.23761  Biso   1.000  C
  H146     1.0000 0.93539  0.09645  0.40970  Biso   1.000  H
  N21      1.0000 0.01622  0.15550  0.44641  Biso   1.000  N
  N22      1.0000 0.01614  0.15550  0.44641  Biso   1.000  N
  H147     1.0000 0.08496  0.10339  0.41347  Biso   1.000  H
  N23      1.0000 0.13934  0.98383  0.44641  Biso   1.000  N
  H148     1.0000 0.16101  0.06457  0.40970  Biso   1.000  H
  C140     1.0000 0.81454  0.86366  0.14374  Biso   1.000  C
  H149     1.0000 0.78557  0.79876  0.22007  Biso   1.000  H
  C141     1.0000 0.81450  0.86366  0.14374  Biso   1.000  C
  H150     1.0000 0.78552  0.79876  0.22007  Biso   1.000  H
  C142     1.0000 0.81134  0.95798  0.17270  Biso   1.000  C
  H151     1.0000 0.78266  0.95746  0.27029  Biso   1.000  H
  C143     1.0000 0.81130  0.95798  0.17270  Biso   1.000  C
  H152     1.0000 0.78262  0.95746  0.27029  Biso   1.000  H
  C144     1.0000 0.99725  0.20342  0.45436  Biso   1.000  C
  C145     1.0000 0.20619  0.00274  0.45436  Biso   1.000  C
  C146     1.0000 0.20614  0.00274  0.45436  Biso   1.000  C
  C147     1.0000 0.82370  0.92256  0.12605  Biso   1.000  C
  C148     1.0000 0.83076  0.82828  0.09397  Biso   1.000  C
  C149     1.0000 0.82363  0.92252  0.12605  Biso   1.000  C
  C150     1.0000 0.83073  0.82824  0.09397  Biso   1.000  C
  C151     1.0000 0.82004  0.02071  0.15613  Biso   1.000  C
  H153     1.0000 0.95477  0.18757  0.43326  Biso   1.000  H
  C152     1.0000 0.99358  0.21568  0.53013  Biso   1.000  C
  H154     1.0000 0.95469  0.18757  0.43326  Biso   1.000  H
  C153     1.0000 0.04535  0.26393  0.41770  Biso   1.000  C
  C154     1.0000 0.21857  0.95463  0.41770  Biso   1.000  C
  H155     1.0000 0.23281  0.04528  0.43326  Biso   1.000  H
  C155     1.0000 0.22209  0.00637  0.53013  Biso   1.000  C
  C156     1.0000 0.22201  0.00637  0.53013  Biso   1.000  C
  H156     1.0000 0.83847  0.93888  0.08179  Biso   1.000  H
  H157     1.0000 0.83843  0.93888  0.08179  Biso   1.000  H
  H158     1.0000 0.84078  0.84309  0.04839  Biso   1.000  H
  N24      1.0000 0.83149  0.77985  0.11065  Biso   1.000  N
  H159     1.0000 0.84071  0.84305  0.04839  Biso   1.000  H
  N25      1.0000 0.83145  0.77985  0.11065  Biso   1.000  N
  N26      1.0000 0.83387  0.04486  0.09749  Biso   1.000  N
  H160     1.0000 0.81480  0.04406  0.19167  Biso   1.000  H
  H161     1.0000 0.03513  0.23016  0.55175  Biso   1.000  H
  H162     1.0000 0.96230  0.17616  0.55277  Biso   1.000  H
  C157     1.0000 0.97421  0.26648  0.53901  Biso   1.000  C
  N27      1.0000 0.04573  0.24874  0.34586  Biso   1.000  N
  C158     1.0000 0.02531  0.31355  0.42581  Biso   1.000  C
  H163     1.0000 0.08837  0.27987  0.43779  Biso   1.000  H
  N28      1.0000 0.04568  0.24874  0.34586  Biso   1.000  N
  H164     1.0000 0.08829  0.27987  0.43779  Biso   1.000  H
  N29      1.0000 0.20304  0.95430  0.34586  Biso   1.000  N
  C159     1.0000 0.28826  0.97468  0.42581  Biso   1.000  C
  H165     1.0000 0.19157  0.91167  0.43779  Biso   1.000  H
  H166     1.0000 0.19153  0.91167  0.43779  Biso   1.000  H
  H167     1.0000 0.19505  0.96487  0.55175  Biso   1.000  H
  H168     1.0000 0.21382  0.03769  0.55277  Biso   1.000  H
  C160     1.0000 0.29226  0.02580  0.53901  Biso   1.000  C
  C161     1.0000 0.84587  0.74603  0.05930  Biso   1.000  C
  C162     1.0000 0.84583  0.74603  0.05930  Biso   1.000  C
  C163     1.0000 0.83616  0.10466  0.08734  Biso   1.000  C
  H169     1.0000 0.93084  0.25006  0.52157  Biso   1.000  H
  C164     1.0000 0.01919  0.32638  0.50066  Biso   1.000  C
  H170     1.0000 0.97445  0.27619  0.58806  Biso   1.000  H
  H171     1.0000 0.97443  0.27615  0.58806  Biso   1.000  H
  C165     1.0000 0.09154  0.24219  0.32531  Biso   1.000  C
  C166     1.0000 0.09150  0.24219  0.32531  Biso   1.000  C
  H172     1.0000 0.98432  0.29878  0.40266  Biso   1.000  H
  H173     1.0000 0.05685  0.35326  0.40358  Biso   1.000  H
  H174     1.0000 0.05677  0.35326  0.40358  Biso   1.000  H
  C167     1.0000 0.15070  0.90851  0.32531  Biso   1.000  C
  C168     1.0000 0.15066  0.90851  0.32531  Biso   1.000  C
  C169     1.0000 0.30722  0.98081  0.50066  Biso   1.000  C
  H175     1.0000 0.29644  0.94317  0.40358  Biso   1.000  H
  C170     1.0000 0.30718  0.98081  0.50066  Biso   1.000  C
  H176     1.0000 0.31439  0.01566  0.40266  Biso   1.000  H
  H177     1.0000 0.31922  0.06919  0.52157  Biso   1.000  H
  H178     1.0000 0.30174  0.02557  0.58806  Biso   1.000  H
  H179     1.0000 0.31920  0.06915  0.52157  Biso   1.000  H
  H180     1.0000 0.86293  0.77296  0.01774  Biso   1.000  H
  C171     1.0000 0.78421  0.68585  0.04100  Biso   1.000  C
  C172     1.0000 0.89534  0.73150  0.08734  Biso   1.000  C
  C173     1.0000 0.78417  0.68585  0.04100  Biso   1.000  C
  C174     1.0000 0.89532  0.73146  0.08734  Biso   1.000  C
  C175     1.0000 0.78309  0.09622  0.04105  Biso   1.000  C
  H181     1.0000 0.83010  0.11966  0.13267  Biso   1.000  H
  C176     1.0000 0.90017  0.15418  0.05930  Biso   1.000  C
  C177     1.0000 0.90015  0.15413  0.05930  Biso   1.000  C
  H182     1.0000 0.06132  0.34585  0.52238  Biso   1.000  H
  H183     1.0000 0.00382  0.35675  0.50388  Biso   1.000  H
  H184     1.0000 0.06128  0.34585  0.52238  Biso   1.000  H
  H185     1.0000 0.12518  0.25139  0.35585  Biso   1.000  H
  C178     1.0000 0.09403  0.22078  0.25566  Biso   1.000  C
  H186     1.0000 0.12510  0.25139  0.35585  Biso   1.000  H
  H187     1.0000 0.12624  0.87488  0.35585  Biso   1.000  H
  C179     1.0000 0.12675  0.90596  0.25566  Biso   1.000  C
  H188     1.0000 0.28456  0.93869  0.52238  Biso   1.000  H
  H189     1.0000 0.35297  0.99618  0.50388  Biso   1.000  H
  H190     1.0000 0.28454  0.93865  0.52238  Biso   1.000  H
  H191     1.0000 0.35293  0.99618  0.50388  Biso   1.000  H
  H192     1.0000 0.76185  0.66538  0.08378  Biso   1.000  H
  H193     1.0000 0.75705  0.69778  0.01504  Biso   1.000  H
  C180     1.0000 0.79254  0.63854  0.99954  Biso   1.000  C
  C181     1.0000 0.79248  0.63850  0.99954  Biso   1.000  C
  N30      1.0000 0.95520  0.78904  0.09749  Biso   1.000  N
  C182     1.0000 0.90381  0.68684  0.04105  Biso   1.000  C
  H194     1.0000 0.88037  0.71047  0.13267  Biso   1.000  H
  N31      1.0000 0.95516  0.78904  0.09749  Biso   1.000  N
  C183     1.0000 0.90377  0.68684  0.04105  Biso   1.000  C
  H195     1.0000 0.88033  0.71047  0.13267  Biso   1.000  H
  H196     1.0000 0.78732  0.08009  0.99628  Biso   1.000  H
  H197     1.0000 0.74216  0.06476  0.06119  Biso   1.000  H
  C184     1.0000 0.78399  0.15871  0.03095  Biso   1.000  C
  H198     1.0000 0.74212  0.06476  0.06119  Biso   1.000  H
  C185     1.0000 0.78390  0.15871  0.03095  Biso   1.000  C
  N32      1.0000 0.94839  0.16852  0.11065  Biso   1.000  N
  C186     1.0000 0.90167  0.21582  0.04100  Biso   1.000  C
  H199     1.0000 0.91003  0.13706  0.01774  Biso   1.000  H
  C187     1.0000 0.90163  0.21582  0.04100  Biso   1.000  C
  C188     1.0000 0.04716  0.20790  0.20834  Biso   1.000  C
  C189     1.0000 0.04712  0.20790  0.20834  Biso   1.000  C
  C190     1.0000 0.14326  0.21002  0.23761  Biso   1.000  C
  C191     1.0000 0.14322  0.21002  0.23761  Biso   1.000  C
  C192     1.0000 0.06679  0.85677  0.23761  Biso   1.000  C
  C193     1.0000 0.16080  0.95289  0.20834  Biso   1.000  C
  C194     1.0000 0.16076  0.95289  0.20834  Biso   1.000  C
  C195     1.0000 0.84132  0.62524  0.03095  Biso   1.000  C
  H200     1.0000 0.80576  0.65486  0.95268  Biso   1.000  H
  H201     1.0000 0.75166  0.59869  0.99648  Biso   1.000  H
  H202     1.0000 0.80572  0.65486  0.95268  Biso   1.000  H
  H203     1.0000 0.75164  0.59864  0.99648  Biso   1.000  H
  C196     1.0000 0.97933  0.79932  0.15613  Biso   1.000  C
  C197     1.0000 0.97929  0.79932  0.15613  Biso   1.000  C
  H204     1.0000 0.93526  0.67736  0.06119  Biso   1.000  H
  H205     1.0000 0.93522  0.67736  0.06119  Biso   1.000  H
  H206     1.0000 0.91994  0.70726  0.99628  Biso   1.000  H
  C198     1.0000 0.84601  0.20752  0.99954  Biso   1.000  C
  C199     1.0000 0.84599  0.20748  0.99954  Biso   1.000  C
  H207     1.0000 0.74859  0.15197  0.00076  Biso   1.000  H
  H208     1.0000 0.77820  0.17418  0.07546  Biso   1.000  H
  C200     1.0000 0.99749  0.16927  0.09397  Biso   1.000  C
  H209     1.0000 0.90357  0.23818  0.08378  Biso   1.000  H
  H210     1.0000 0.94074  0.24299  0.01504  Biso   1.000  H
  H211     1.0000 0.90349  0.23818  0.08378  Biso   1.000  H
  H212     1.0000 0.94071  0.24294  0.01504  Biso   1.000  H
  C201     1.0000 0.04915  0.18550  0.14374  Biso   1.000  C
  H213     1.0000 0.01327  0.21446  0.22007  Biso   1.000  H
  H214     1.0000 0.01322  0.21446  0.22007  Biso   1.000  H
  H215     1.0000 0.17484  0.21738  0.27029  Biso   1.000  H
  C202     1.0000 0.14667  0.18866  0.17270  Biso   1.000  C
  C203     1.0000 0.04203  0.85333  0.17270  Biso   1.000  C
  C204     1.0000 0.04199  0.85333  0.17270  Biso   1.000  C
  H216     1.0000 0.04257  0.82517  0.27029  Biso   1.000  H
  H217     1.0000 0.04253  0.82517  0.27029  Biso   1.000  H
  C205     1.0000 0.13638  0.95086  0.14374  Biso   1.000  C
  C206     1.0000 0.13634  0.95086  0.14374  Biso   1.000  C
  H218     1.0000 0.20125  0.98675  0.22007  Biso   1.000  H
  H219     1.0000 0.20121  0.98675  0.22007  Biso   1.000  H
  H220     1.0000 0.84806  0.59666  0.00076  Biso   1.000  H
  H221     1.0000 0.82587  0.60407  0.07546  Biso   1.000  H
  H222     1.0000 0.84802  0.59666  0.00076  Biso   1.000  H
  H223     1.0000 0.82583  0.60407  0.07546  Biso   1.000  H
  H224     1.0000 0.95595  0.77079  0.19167  Biso   1.000  H
  H225     1.0000 0.95593  0.77074  0.19167  Biso   1.000  H
  H226     1.0000 0.84915  0.19427  0.95268  Biso   1.000  H
  H227     1.0000 0.84707  0.24837  0.99648  Biso   1.000  H
  H228     1.0000 0.84699  0.24837  0.99648  Biso   1.000  H
  H229     1.0000 0.00230  0.15928  0.04839  Biso   1.000  H
  C207     1.0000 0.09890  0.17635  0.12605  Biso   1.000  C
  C208     1.0000 0.20066  0.17998  0.15613  Biso   1.000  C
  C209     1.0000 0.07748  0.90110  0.12605  Biso   1.000  C
  C210     1.0000 0.17176  0.00250  0.09397  Biso   1.000  C
  C211     1.0000 0.17173  0.00246  0.09397  Biso   1.000  C
  H230     1.0000 0.10046  0.16159  0.08179  Biso   1.000  H
  N33      1.0000 0.21096  0.16611  0.09749  Biso   1.000  N
  H231     1.0000 0.22927  0.18517  0.19167  Biso   1.000  H
  H232     1.0000 0.22919  0.18517  0.19167  Biso   1.000  H
  H233     1.0000 0.06116  0.89959  0.08179  Biso   1.000  H
  H234     1.0000 0.06114  0.89955  0.08179  Biso   1.000  H
  H235     1.0000 0.15698  0.99769  0.04839  Biso   1.000  H
  H236     1.0000 0.15691  0.99765  0.04839  Biso   1.000  H
  N34      1.0000 0.22016  0.05160  0.11065  Biso   1.000  N
  C212     1.0000 0.26856  0.16385  0.08734  Biso   1.000  C
  C213     1.0000 0.26848  0.16385  0.08734  Biso   1.000  C
  C214     1.0000 0.25398  0.09980  0.05930  Biso   1.000  C
  C215     1.0000 0.31317  0.21696  0.04105  Biso   1.000  C
  H237     1.0000 0.28951  0.16989  0.13267  Biso   1.000  H
  C216     1.0000 0.31415  0.09834  0.04100  Biso   1.000  C
  H238     1.0000 0.22702  0.08999  0.01774  Biso   1.000  H
  H239     1.0000 0.22700  0.08995  0.01774  Biso   1.000  H
  H240     1.0000 0.29273  0.21266  0.99628  Biso   1.000  H
  H241     1.0000 0.32261  0.25789  0.06119  Biso   1.000  H
  C217     1.0000 0.37473  0.21606  0.03095  Biso   1.000  C
  H242     1.0000 0.32259  0.25785  0.06119  Biso   1.000  H
  H243     1.0000 0.33461  0.09645  0.08378  Biso   1.000  H
  C218     1.0000 0.36146  0.15399  0.99954  Biso   1.000  C
  H244     1.0000 0.30226  0.05929  0.01504  Biso   1.000  H
  H245     1.0000 0.40338  0.25139  0.00076  Biso   1.000  H
  H246     1.0000 0.39596  0.22177  0.07546  Biso   1.000  H
  H247     1.0000 0.40329  0.25139  0.00076  Biso   1.000  H
  H248     1.0000 0.39592  0.22177  0.07546  Biso   1.000  H
  H249     1.0000 0.34516  0.15088  0.95268  Biso   1.000  H
  H250     1.0000 0.40134  0.15296  0.99648  Biso   1.000  H
  N35      1.0000 0.84451  0.86068  0.44641  Biso   1.000  N
  C219     1.0000 0.79659  0.79385  0.45436  Biso   1.000  C
  C220     1.0000 0.89721  0.87281  0.42285  Biso   1.000  C
  C221     1.0000 0.73611  0.78145  0.41770  Biso   1.000  C
  C222     1.0000 0.73607  0.78145  0.41770  Biso   1.000  C
  H251     1.0000 0.81245  0.76716  0.43326  Biso   1.000  H
  C223     1.0000 0.78433  0.77791  0.53013  Biso   1.000  C
  C224     1.0000 0.78429  0.77791  0.53013  Biso   1.000  C
  H252     1.0000 0.90354  0.83899  0.40970  Biso   1.000  H
  C225     1.0000 0.94944  0.93822  0.41526  Biso   1.000  C
  C226     1.0000 0.94940  0.93822  0.41526  Biso   1.000  C
  N36      1.0000 0.75130  0.79697  0.34586  Biso   1.000  N
  N37      1.0000 0.75126  0.79697  0.34586  Biso   1.000  N
  C227     1.0000 0.68647  0.71174  0.42581  Biso   1.000  C
  H253     1.0000 0.72017  0.80847  0.43779  Biso   1.000  H
  C228     1.0000 0.68643  0.71174  0.42581  Biso   1.000  C
  H254     1.0000 0.72013  0.80847  0.43779  Biso   1.000  H
  H255     1.0000 0.76985  0.80498  0.55175  Biso   1.000  H
  H256     1.0000 0.82387  0.78617  0.55277  Biso   1.000  H
  C229     1.0000 0.73356  0.70773  0.53901  Biso   1.000  C
  H257     1.0000 0.82383  0.78617  0.55277  Biso   1.000  H
  C230     1.0000 0.73352  0.70773  0.53901  Biso   1.000  C
  C231     1.0000 0.01094  0.94963  0.41449  Biso   1.000  C
  C232     1.0000 0.93872  0.98906  0.41449  Biso   1.000  C
  C233     1.0000 0.93868  0.98906  0.41449  Biso   1.000  C
  C234     1.0000 0.75787  0.84932  0.32531  Biso   1.000  C
  C235     1.0000 0.75783  0.84932  0.32531  Biso   1.000  C
  H258     1.0000 0.70124  0.68557  0.40266  Biso   1.000  H
  C236     1.0000 0.67366  0.69283  0.50066  Biso   1.000  C
  H259     1.0000 0.64677  0.70358  0.40358  Biso   1.000  H
  C237     1.0000 0.67362  0.69283  0.50066  Biso   1.000  C
  H260     1.0000 0.64673  0.70358  0.40358  Biso   1.000  H
  H261     1.0000 0.72384  0.69825  0.58806  Biso   1.000  H
  H262     1.0000 0.74997  0.68076  0.52157  Biso   1.000  H
  H263     1.0000 0.74993  0.68076  0.52157  Biso   1.000  H
  C238     1.0000 0.06177  0.01118  0.41526  Biso   1.000  C
  H264     1.0000 0.01845  0.91506  0.41347  Biso   1.000  H
  C239     1.0000 0.98881  0.05061  0.41526  Biso   1.000  C
  C240     1.0000 0.98879  0.05056  0.41526  Biso   1.000  C
  H265     1.0000 0.89666  0.98156  0.41347  Biso   1.000  H
  H266     1.0000 0.89661  0.98156  0.41347  Biso   1.000  H
  C241     1.0000 0.77924  0.87328  0.25566  Biso   1.000  C
  H267     1.0000 0.74864  0.87375  0.35585  Biso   1.000  H
  H268     1.0000 0.65414  0.71547  0.52238  Biso   1.000  H
  H269     1.0000 0.64327  0.64708  0.50388  Biso   1.000  H
  H270     1.0000 0.64323  0.64708  0.50388  Biso   1.000  H
  C242     1.0000 0.12719  0.02439  0.42285  Biso   1.000  C
  C243     1.0000 0.12715  0.02439  0.42285  Biso   1.000  C
  C244     1.0000 0.05041  0.06132  0.41449  Biso   1.000  C
  C245     1.0000 0.97562  0.10282  0.42285  Biso   1.000  C
  C246     1.0000 0.79212  0.83922  0.20834  Biso   1.000  C
  C247     1.0000 0.79002  0.93322  0.23761  Biso   1.000  C
  C248     1.0000 0.78998  0.93322  0.23761  Biso   1.000  C
  N38      1.0000 0.13934  0.98383  0.44641  Biso   1.000  N
  H271     1.0000 0.16101  0.06457  0.40970  Biso   1.000  H
  H272     1.0000 0.08496  0.10339  0.41347  Biso   1.000  H
  H273     1.0000 0.93539  0.09645  0.40970  Biso   1.000  H
  N39      1.0000 0.01622  0.15550  0.44641  Biso   1.000  N
  N40      1.0000 0.01614  0.15550  0.44641  Biso   1.000  N
  C249     1.0000 0.81454  0.86366  0.14374  Biso   1.000  C
  C250     1.0000 0.81450  0.86366  0.14374  Biso   1.000  C
  H274     1.0000 0.78557  0.79876  0.22007  Biso   1.000  H
  H275     1.0000 0.78552  0.79876  0.22007  Biso   1.000  H
  C251     1.0000 0.81134  0.95798  0.17270  Biso   1.000  C
  C252     1.0000 0.81130  0.95798  0.17270  Biso   1.000  C
  H276     1.0000 0.78266  0.95746  0.27029  Biso   1.000  H
  H277     1.0000 0.78262  0.95746  0.27029  Biso   1.000  H
  C253     1.0000 0.20619  0.00274  0.45436  Biso   1.000  C
  C254     1.0000 0.20614  0.00274  0.45436  Biso   1.000  C
  C255     1.0000 0.99725  0.20342  0.45436  Biso   1.000  C
  C256     1.0000 0.83076  0.82828  0.09397  Biso   1.000  C
  C257     1.0000 0.83073  0.82824  0.09397  Biso   1.000  C
  C258     1.0000 0.82370  0.92256  0.12605  Biso   1.000  C
  C259     1.0000 0.82363  0.92252  0.12605  Biso   1.000  C
  C260     1.0000 0.82004  0.02071  0.15613  Biso   1.000  C
  C261     1.0000 0.21857  0.95463  0.41770  Biso   1.000  C
  H278     1.0000 0.23281  0.04528  0.43326  Biso   1.000  H
  C262     1.0000 0.22209  0.00637  0.53013  Biso   1.000  C
  C263     1.0000 0.22201  0.00637  0.53013  Biso   1.000  C
  C264     1.0000 0.04535  0.26393  0.41770  Biso   1.000  C
  H279     1.0000 0.95477  0.18757  0.43326  Biso   1.000  H
  C265     1.0000 0.99358  0.21568  0.53013  Biso   1.000  C
  H280     1.0000 0.95469  0.18757  0.43326  Biso   1.000  H
  N41      1.0000 0.83149  0.77985  0.11065  Biso   1.000  N
  N42      1.0000 0.83145  0.77985  0.11065  Biso   1.000  N
  H281     1.0000 0.84078  0.84309  0.04839  Biso   1.000  H
  H282     1.0000 0.84071  0.84305  0.04839  Biso   1.000  H
  H283     1.0000 0.83847  0.93888  0.08179  Biso   1.000  H
  H284     1.0000 0.83843  0.93888  0.08179  Biso   1.000  H
  N43      1.0000 0.83387  0.04486  0.09749  Biso   1.000  N
  H285     1.0000 0.81480  0.04406  0.19167  Biso   1.000  H
  N44      1.0000 0.20304  0.95430  0.34586  Biso   1.000  N
  C266     1.0000 0.28826  0.97468  0.42581  Biso   1.000  C
  H286     1.0000 0.19157  0.91167  0.43779  Biso   1.000  H
  H287     1.0000 0.19153  0.91167  0.43779  Biso   1.000  H
  C267     1.0000 0.29226  0.02580  0.53901  Biso   1.000  C
  H288     1.0000 0.19505  0.96487  0.55175  Biso   1.000  H
  H289     1.0000 0.21382  0.03769  0.55277  Biso   1.000  H
  N45      1.0000 0.04573  0.24874  0.34586  Biso   1.000  N
  N46      1.0000 0.04568  0.24874  0.34586  Biso   1.000  N
  C268     1.0000 0.02531  0.31355  0.42581  Biso   1.000  C
  H290     1.0000 0.08837  0.27987  0.43779  Biso   1.000  H
  H291     1.0000 0.08829  0.27987  0.43779  Biso   1.000  H
  H292     1.0000 0.03513  0.23016  0.55175  Biso   1.000  H
  H293     1.0000 0.96230  0.17616  0.55277  Biso   1.000  H
  C269     1.0000 0.97421  0.26648  0.53901  Biso   1.000  C
  C270     1.0000 0.84587  0.74603  0.05930  Biso   1.000  C
  C271     1.0000 0.84583  0.74603  0.05930  Biso   1.000  C
  C272     1.0000 0.83616  0.10466  0.08734  Biso   1.000  C
  C273     1.0000 0.15070  0.90851  0.32531  Biso   1.000  C
  C274     1.0000 0.15066  0.90851  0.32531  Biso   1.000  C
  C275     1.0000 0.30722  0.98081  0.50066  Biso   1.000  C
  H294     1.0000 0.29644  0.94317  0.40358  Biso   1.000  H
  C276     1.0000 0.30718  0.98081  0.50066  Biso   1.000  C
  H295     1.0000 0.31439  0.01566  0.40266  Biso   1.000  H
  H296     1.0000 0.31922  0.06919  0.52157  Biso   1.000  H
  H297     1.0000 0.30174  0.02557  0.58806  Biso   1.000  H
  H298     1.0000 0.31920  0.06915  0.52157  Biso   1.000  H
  C277     1.0000 0.09154  0.24219  0.32531  Biso   1.000  C
  C278     1.0000 0.09150  0.24219  0.32531  Biso   1.000  C
  C279     1.0000 0.01919  0.32638  0.50066  Biso   1.000  C
  H299     1.0000 0.98432  0.29878  0.40266  Biso   1.000  H
  H300     1.0000 0.05685  0.35326  0.40358  Biso   1.000  H
  H301     1.0000 0.05677  0.35326  0.40358  Biso   1.000  H
  H302     1.0000 0.93084  0.25006  0.52157  Biso   1.000  H
  H303     1.0000 0.97445  0.27619  0.58806  Biso   1.000  H
  H304     1.0000 0.97443  0.27615  0.58806  Biso   1.000  H
  C280     1.0000 0.78421  0.68585  0.04100  Biso   1.000  C
  C281     1.0000 0.78417  0.68585  0.04100  Biso   1.000  C
  C282     1.0000 0.89534  0.73150  0.08734  Biso   1.000  C
  C283     1.0000 0.89532  0.73146  0.08734  Biso   1.000  C
  H305     1.0000 0.86293  0.77296  0.01774  Biso   1.000  H
  C284     1.0000 0.78309  0.09622  0.04105  Biso   1.000  C
  H306     1.0000 0.83010  0.11966  0.13267  Biso   1.000  H
  C285     1.0000 0.90017  0.15418  0.05930  Biso   1.000  C
  C286     1.0000 0.90015  0.15413  0.05930  Biso   1.000  C
  C287     1.0000 0.12675  0.90596  0.25566  Biso   1.000  C
  H307     1.0000 0.12624  0.87488  0.35585  Biso   1.000  H
  H308     1.0000 0.28456  0.93869  0.52238  Biso   1.000  H
  H309     1.0000 0.35297  0.99618  0.50388  Biso   1.000  H
  H310     1.0000 0.28454  0.93865  0.52238  Biso   1.000  H
  H311     1.0000 0.35293  0.99618  0.50388  Biso   1.000  H
  C288     1.0000 0.09403  0.22078  0.25566  Biso   1.000  C
  H312     1.0000 0.12518  0.25139  0.35585  Biso   1.000  H
  H313     1.0000 0.12510  0.25139  0.35585  Biso   1.000  H
  H314     1.0000 0.06132  0.34585  0.52238  Biso   1.000  H
  H315     1.0000 0.00382  0.35675  0.50388  Biso   1.000  H
  H316     1.0000 0.06128  0.34585  0.52238  Biso   1.000  H
  C289     1.0000 0.79254  0.63854  0.99954  Biso   1.000  C
  C290     1.0000 0.79248  0.63850  0.99954  Biso   1.000  C
  H317     1.0000 0.76185  0.66538  0.08378  Biso   1.000  H
  H318     1.0000 0.75705  0.69778  0.01504  Biso   1.000  H
  C291     1.0000 0.90381  0.68684  0.04105  Biso   1.000  C
  C292     1.0000 0.90377  0.68684  0.04105  Biso   1.000  C
  N47      1.0000 0.95520  0.78904  0.09749  Biso   1.000  N
  H319     1.0000 0.88037  0.71047  0.13267  Biso   1.000  H
  N48      1.0000 0.95516  0.78904  0.09749  Biso   1.000  N
  H320     1.0000 0.88033  0.71047  0.13267  Biso   1.000  H
  H321     1.0000 0.78732  0.08009  0.99628  Biso   1.000  H
  H322     1.0000 0.74216  0.06476  0.06119  Biso   1.000  H
  C293     1.0000 0.78399  0.15871  0.03095  Biso   1.000  C
  H323     1.0000 0.74212  0.06476  0.06119  Biso   1.000  H
  C294     1.0000 0.78390  0.15871  0.03095  Biso   1.000  C
  N49      1.0000 0.94839  0.16852  0.11065  Biso   1.000  N
  C295     1.0000 0.90167  0.21582  0.04100  Biso   1.000  C
  H324     1.0000 0.91003  0.13706  0.01774  Biso   1.000  H
  C296     1.0000 0.90163  0.21582  0.04100  Biso   1.000  C
  C297     1.0000 0.06679  0.85677  0.23761  Biso   1.000  C
  C298     1.0000 0.16080  0.95289  0.20834  Biso   1.000  C
  C299     1.0000 0.16076  0.95289  0.20834  Biso   1.000  C
  C300     1.0000 0.14326  0.21002  0.23761  Biso   1.000  C
  C301     1.0000 0.14322  0.21002  0.23761  Biso   1.000  C
  C302     1.0000 0.04716  0.20790  0.20834  Biso   1.000  C
  C303     1.0000 0.04712  0.20790  0.20834  Biso   1.000  C
  C304     1.0000 0.84132  0.62524  0.03095  Biso   1.000  C
  H325     1.0000 0.80576  0.65486  0.95268  Biso   1.000  H
  H326     1.0000 0.75166  0.59869  0.99648  Biso   1.000  H
  H327     1.0000 0.80572  0.65486  0.95268  Biso   1.000  H
  H328     1.0000 0.75164  0.59864  0.99648  Biso   1.000  H
  H329     1.0000 0.91994  0.70726  0.99628  Biso   1.000  H
  H330     1.0000 0.93526  0.67736  0.06119  Biso   1.000  H
  H331     1.0000 0.93522  0.67736  0.06119  Biso   1.000  H
  C305     1.0000 0.97933  0.79932  0.15613  Biso   1.000  C
  C306     1.0000 0.97929  0.79932  0.15613  Biso   1.000  C
  C307     1.0000 0.84601  0.20752  0.99954  Biso   1.000  C
  C308     1.0000 0.84599  0.20748  0.99954  Biso   1.000  C
  H332     1.0000 0.74859  0.15197  0.00076  Biso   1.000  H
  H333     1.0000 0.77820  0.17418  0.07546  Biso   1.000  H
  C309     1.0000 0.99749  0.16927  0.09397  Biso   1.000  C
  H334     1.0000 0.90357  0.23818  0.08378  Biso   1.000  H
  H335     1.0000 0.94074  0.24299  0.01504  Biso   1.000  H
  H336     1.0000 0.90349  0.23818  0.08378  Biso   1.000  H
  H337     1.0000 0.94071  0.24294  0.01504  Biso   1.000  H
  C310     1.0000 0.04203  0.85333  0.17270  Biso   1.000  C
  C311     1.0000 0.04199  0.85333  0.17270  Biso   1.000  C
  H338     1.0000 0.04257  0.82517  0.27029  Biso   1.000  H
  H339     1.0000 0.04253  0.82517  0.27029  Biso   1.000  H
  C312     1.0000 0.13638  0.95086  0.14374  Biso   1.000  C
  C313     1.0000 0.13634  0.95086  0.14374  Biso   1.000  C
  H340     1.0000 0.20125  0.98675  0.22007  Biso   1.000  H
  H341     1.0000 0.20121  0.98675  0.22007  Biso   1.000  H
  H342     1.0000 0.17484  0.21738  0.27029  Biso   1.000  H
  C314     1.0000 0.14667  0.18866  0.17270  Biso   1.000  C
  C315     1.0000 0.04915  0.18550  0.14374  Biso   1.000  C
  H343     1.0000 0.01327  0.21446  0.22007  Biso   1.000  H
  H344     1.0000 0.01322  0.21446  0.22007  Biso   1.000  H
  H345     1.0000 0.84806  0.59666  0.00076  Biso   1.000  H
  H346     1.0000 0.82587  0.60407  0.07546  Biso   1.000  H
  H347     1.0000 0.84802  0.59666  0.00076  Biso   1.000  H
  H348     1.0000 0.82583  0.60407  0.07546  Biso   1.000  H
  H349     1.0000 0.95595  0.77079  0.19167  Biso   1.000  H
  H350     1.0000 0.95593  0.77074  0.19167  Biso   1.000  H
  H351     1.0000 0.84915  0.19427  0.95268  Biso   1.000  H
  H352     1.0000 0.84707  0.24837  0.99648  Biso   1.000  H
  H353     1.0000 0.84699  0.24837  0.99648  Biso   1.000  H
  H354     1.0000 0.00230  0.15928  0.04839  Biso   1.000  H
  C316     1.0000 0.07748  0.90110  0.12605  Biso   1.000  C
  C317     1.0000 0.17176  0.00250  0.09397  Biso   1.000  C
  C318     1.0000 0.17173  0.00246  0.09397  Biso   1.000  C
  C319     1.0000 0.20066  0.17998  0.15613  Biso   1.000  C
  C320     1.0000 0.09890  0.17635  0.12605  Biso   1.000  C
  H355     1.0000 0.06116  0.89959  0.08179  Biso   1.000  H
  H356     1.0000 0.06114  0.89955  0.08179  Biso   1.000  H
  H357     1.0000 0.15698  0.99769  0.04839  Biso   1.000  H
  H358     1.0000 0.15691  0.99765  0.04839  Biso   1.000  H
  N50      1.0000 0.22016  0.05160  0.11065  Biso   1.000  N
  N51      1.0000 0.21096  0.16611  0.09749  Biso   1.000  N
  H359     1.0000 0.22927  0.18517  0.19167  Biso   1.000  H
  H360     1.0000 0.22919  0.18517  0.19167  Biso   1.000  H
  H361     1.0000 0.10046  0.16159  0.08179  Biso   1.000  H
  C321     1.0000 0.25398  0.09980  0.05930  Biso   1.000  C
  C322     1.0000 0.26856  0.16385  0.08734  Biso   1.000  C
  C323     1.0000 0.26848  0.16385  0.08734  Biso   1.000  C
  C324     1.0000 0.31415  0.09834  0.04100  Biso   1.000  C
  H362     1.0000 0.22702  0.08999  0.01774  Biso   1.000  H
  H363     1.0000 0.22700  0.08995  0.01774  Biso   1.000  H
  C325     1.0000 0.31317  0.21696  0.04105  Biso   1.000  C
  H364     1.0000 0.28951  0.16989  0.13267  Biso   1.000  H
  H365     1.0000 0.33461  0.09645  0.08378  Biso   1.000  H
  C326     1.0000 0.36146  0.15399  0.99954  Biso   1.000  C
  H366     1.0000 0.30226  0.05929  0.01504  Biso   1.000  H
  H367     1.0000 0.29273  0.21266  0.99628  Biso   1.000  H
  C327     1.0000 0.37473  0.21606  0.03095  Biso   1.000  C
  H368     1.0000 0.32261  0.25789  0.06119  Biso   1.000  H
  H369     1.0000 0.32259  0.25785  0.06119  Biso   1.000  H
  H370     1.0000 0.34516  0.15088  0.95268  Biso   1.000  H
  H371     1.0000 0.40134  0.15296  0.99648  Biso   1.000  H
  H372     1.0000 0.40338  0.25139  0.00076  Biso   1.000  H
  H373     1.0000 0.39596  0.22177  0.07546  Biso   1.000  H
  H374     1.0000 0.40329  0.25139  0.00076  Biso   1.000  H
  H375     1.0000 0.39592  0.22177  0.07546  Biso   1.000  H
  N52      1.0000 0.84451  0.86068  0.44641  Biso   1.000  N
  C328     1.0000 0.79659  0.79385  0.45436  Biso   1.000  C
  C329     1.0000 0.89721  0.87281  0.42285  Biso   1.000  C
  C330     1.0000 0.73611  0.78145  0.41770  Biso   1.000  C
  C331     1.0000 0.73607  0.78145  0.41770  Biso   1.000  C
  H376     1.0000 0.81245  0.76716  0.43326  Biso   1.000  H
  C332     1.0000 0.78433  0.77791  0.53013  Biso   1.000  C
  C333     1.0000 0.78429  0.77791  0.53013  Biso   1.000  C
  H377     1.0000 0.90354  0.83899  0.40970  Biso   1.000  H
  C334     1.0000 0.94944  0.93822  0.41526  Biso   1.000  C
  C335     1.0000 0.94940  0.93822  0.41526  Biso   1.000  C
  N53      1.0000 0.75130  0.79697  0.34586  Biso   1.000  N
  N54      1.0000 0.75126  0.79697  0.34586  Biso   1.000  N
  C336     1.0000 0.68647  0.71174  0.42581  Biso   1.000  C
  H378     1.0000 0.72017  0.80847  0.43779  Biso   1.000  H
  C337     1.0000 0.68643  0.71174  0.42581  Biso   1.000  C
  H379     1.0000 0.72013  0.80847  0.43779  Biso   1.000  H
  H380     1.0000 0.76985  0.80498  0.55175  Biso   1.000  H
  H381     1.0000 0.82387  0.78617  0.55277  Biso   1.000  H
  C338     1.0000 0.73356  0.70773  0.53901  Biso   1.000  C
  H382     1.0000 0.82383  0.78617  0.55277  Biso   1.000  H
  C339     1.0000 0.73352  0.70773  0.53901  Biso   1.000  C
  C340     1.0000 0.01094  0.94963  0.41449  Biso   1.000  C
  C341     1.0000 0.93872  0.98906  0.41449  Biso   1.000  C
  C342     1.0000 0.93868  0.98906  0.41449  Biso   1.000  C
  C343     1.0000 0.75787  0.84932  0.32531  Biso   1.000  C
  C344     1.0000 0.75783  0.84932  0.32531  Biso   1.000  C
  H383     1.0000 0.70124  0.68557  0.40266  Biso   1.000  H
  C345     1.0000 0.67366  0.69283  0.50066  Biso   1.000  C
  H384     1.0000 0.64677  0.70358  0.40358  Biso   1.000  H
  C346     1.0000 0.67362  0.69283  0.50066  Biso   1.000  C
  H385     1.0000 0.64673  0.70358  0.40358  Biso   1.000  H
  H386     1.0000 0.72384  0.69825  0.58806  Biso   1.000  H
  H387     1.0000 0.74997  0.68076  0.52157  Biso   1.000  H
  H388     1.0000 0.74993  0.68076  0.52157  Biso   1.000  H
  C347     1.0000 0.06177  0.01118  0.41526  Biso   1.000  C
  H389     1.0000 0.01845  0.91506  0.41347  Biso   1.000  H
  C348     1.0000 0.98881  0.05061  0.41526  Biso   1.000  C
  C349     1.0000 0.98879  0.05056  0.41526  Biso   1.000  C
  H390     1.0000 0.89666  0.98156  0.41347  Biso   1.000  H
  H391     1.0000 0.89661  0.98156  0.41347  Biso   1.000  H
  C350     1.0000 0.77924  0.87328  0.25566  Biso   1.000  C
  H392     1.0000 0.74864  0.87375  0.35585  Biso   1.000  H
  H393     1.0000 0.65414  0.71547  0.52238  Biso   1.000  H
  H394     1.0000 0.64327  0.64708  0.50388  Biso   1.000  H
  H395     1.0000 0.64323  0.64708  0.50388  Biso   1.000  H
  C351     1.0000 0.12719  0.02439  0.42285  Biso   1.000  C
  C352     1.0000 0.12715  0.02439  0.42285  Biso   1.000  C
  C353     1.0000 0.05041  0.06132  0.41449  Biso   1.000  C
  C354     1.0000 0.97562  0.10282  0.42285  Biso   1.000  C
  C355     1.0000 0.79212  0.83922  0.20834  Biso   1.000  C
  C356     1.0000 0.79002  0.93322  0.23761  Biso   1.000  C
  C357     1.0000 0.78998  0.93322  0.23761  Biso   1.000  C
  N55      1.0000 0.13934  0.98383  0.44641  Biso   1.000  N
  H396     1.0000 0.16101  0.06457  0.40970  Biso   1.000  H
  H397     1.0000 0.08496  0.10339  0.41347  Biso   1.000  H
  H398     1.0000 0.93539  0.09645  0.40970  Biso   1.000  H
  N56      1.0000 0.01622  0.15550  0.44641  Biso   1.000  N
  N57      1.0000 0.01614  0.15550  0.44641  Biso   1.000  N
  C358     1.0000 0.81454  0.86366  0.14374  Biso   1.000  C
  C359     1.0000 0.81450  0.86366  0.14374  Biso   1.000  C
  H399     1.0000 0.78557  0.79876  0.22007  Biso   1.000  H
  H400     1.0000 0.78552  0.79876  0.22007  Biso   1.000  H
  C360     1.0000 0.81134  0.95798  0.17270  Biso   1.000  C
  C361     1.0000 0.81130  0.95798  0.17270  Biso   1.000  C
  H401     1.0000 0.78266  0.95746  0.27029  Biso   1.000  H
  H402     1.0000 0.78262  0.95746  0.27029  Biso   1.000  H
  C362     1.0000 0.20619  0.00274  0.45436  Biso   1.000  C
  C363     1.0000 0.20614  0.00274  0.45436  Biso   1.000  C
  C364     1.0000 0.99725  0.20342  0.45436  Biso   1.000  C
  C365     1.0000 0.83076  0.82828  0.09397  Biso   1.000  C
  C366     1.0000 0.83073  0.82824  0.09397  Biso   1.000  C
  C367     1.0000 0.82370  0.92256  0.12605  Biso   1.000  C
  C368     1.0000 0.82363  0.92252  0.12605  Biso   1.000  C
  C369     1.0000 0.82004  0.02071  0.15613  Biso   1.000  C
  C370     1.0000 0.21857  0.95463  0.41770  Biso   1.000  C
  H403     1.0000 0.23281  0.04528  0.43326  Biso   1.000  H
  C371     1.0000 0.22209  0.00637  0.53013  Biso   1.000  C
  C372     1.0000 0.22201  0.00637  0.53013  Biso   1.000  C
  C373     1.0000 0.04535  0.26393  0.41770  Biso   1.000  C
  H404     1.0000 0.95477  0.18757  0.43326  Biso   1.000  H
  C374     1.0000 0.99358  0.21568  0.53013  Biso   1.000  C
  H405     1.0000 0.95469  0.18757  0.43326  Biso   1.000  H
  N58      1.0000 0.83149  0.77985  0.11065  Biso   1.000  N
  N59      1.0000 0.83145  0.77985  0.11065  Biso   1.000  N
  H406     1.0000 0.84078  0.84309  0.04839  Biso   1.000  H
  H407     1.0000 0.84071  0.84305  0.04839  Biso   1.000  H
  H408     1.0000 0.83847  0.93888  0.08179  Biso   1.000  H
  H409     1.0000 0.83843  0.93888  0.08179  Biso   1.000  H
  N60      1.0000 0.83387  0.04486  0.09749  Biso   1.000  N
  H410     1.0000 0.81480  0.04406  0.19167  Biso   1.000  H
  N61      1.0000 0.20304  0.95430  0.34586  Biso   1.000  N
  C375     1.0000 0.28826  0.97468  0.42581  Biso   1.000  C
  H411     1.0000 0.19157  0.91167  0.43779  Biso   1.000  H
  H412     1.0000 0.19153  0.91167  0.43779  Biso   1.000  H
  C376     1.0000 0.29226  0.02580  0.53901  Biso   1.000  C
  H413     1.0000 0.19505  0.96487  0.55175  Biso   1.000  H
  H414     1.0000 0.21382  0.03769  0.55277  Biso   1.000  H
  N62      1.0000 0.04573  0.24874  0.34586  Biso   1.000  N
  N63      1.0000 0.04568  0.24874  0.34586  Biso   1.000  N
  C377     1.0000 0.02531  0.31355  0.42581  Biso   1.000  C
  H415     1.0000 0.08837  0.27987  0.43779  Biso   1.000  H
  H416     1.0000 0.08829  0.27987  0.43779  Biso   1.000  H
  H417     1.0000 0.03513  0.23016  0.55175  Biso   1.000  H
  H418     1.0000 0.96230  0.17616  0.55277  Biso   1.000  H
  C378     1.0000 0.97421  0.26648  0.53901  Biso   1.000  C
  C379     1.0000 0.84587  0.74603  0.05930  Biso   1.000  C
  C380     1.0000 0.84583  0.74603  0.05930  Biso   1.000  C
  C381     1.0000 0.83616  0.10466  0.08734  Biso   1.000  C
  C382     1.0000 0.15070  0.90851  0.32531  Biso   1.000  C
  C383     1.0000 0.15066  0.90851  0.32531  Biso   1.000  C
  C384     1.0000 0.30722  0.98081  0.50066  Biso   1.000  C
  H419     1.0000 0.29644  0.94317  0.40358  Biso   1.000  H
  C385     1.0000 0.30718  0.98081  0.50066  Biso   1.000  C
  H420     1.0000 0.31439  0.01566  0.40266  Biso   1.000  H
  H421     1.0000 0.31922  0.06919  0.52157  Biso   1.000  H
  H422     1.0000 0.30174  0.02557  0.58806  Biso   1.000  H
  H423     1.0000 0.31920  0.06915  0.52157  Biso   1.000  H
  C386     1.0000 0.09154  0.24219  0.32531  Biso   1.000  C
  C387     1.0000 0.09150  0.24219  0.32531  Biso   1.000  C
  C388     1.0000 0.01919  0.32638  0.50066  Biso   1.000  C
  H424     1.0000 0.98432  0.29878  0.40266  Biso   1.000  H
  H425     1.0000 0.05685  0.35326  0.40358  Biso   1.000  H
  H426     1.0000 0.05677  0.35326  0.40358  Biso   1.000  H
  H427     1.0000 0.93084  0.25006  0.52157  Biso   1.000  H
  H428     1.0000 0.97445  0.27619  0.58806  Biso   1.000  H
  H429     1.0000 0.97443  0.27615  0.58806  Biso   1.000  H
  C389     1.0000 0.78421  0.68585  0.04100  Biso   1.000  C
  C390     1.0000 0.78417  0.68585  0.04100  Biso   1.000  C
  C391     1.0000 0.89534  0.73150  0.08734  Biso   1.000  C
  C392     1.0000 0.89532  0.73146  0.08734  Biso   1.000  C
  H430     1.0000 0.86293  0.77296  0.01774  Biso   1.000  H
  C393     1.0000 0.78309  0.09622  0.04105  Biso   1.000  C
  H431     1.0000 0.83010  0.11966  0.13267  Biso   1.000  H
  C394     1.0000 0.90017  0.15418  0.05930  Biso   1.000  C
  C395     1.0000 0.90015  0.15413  0.05930  Biso   1.000  C
  C396     1.0000 0.12675  0.90596  0.25566  Biso   1.000  C
  H432     1.0000 0.12624  0.87488  0.35585  Biso   1.000  H
  H433     1.0000 0.28456  0.93869  0.52238  Biso   1.000  H
  H434     1.0000 0.35297  0.99618  0.50388  Biso   1.000  H
  H435     1.0000 0.28454  0.93865  0.52238  Biso   1.000  H
  H436     1.0000 0.35293  0.99618  0.50388  Biso   1.000  H
  C397     1.0000 0.09403  0.22078  0.25566  Biso   1.000  C
  H437     1.0000 0.12518  0.25139  0.35585  Biso   1.000  H
  H438     1.0000 0.12510  0.25139  0.35585  Biso   1.000  H
  H439     1.0000 0.06132  0.34585  0.52238  Biso   1.000  H
  H440     1.0000 0.00382  0.35675  0.50388  Biso   1.000  H
  H441     1.0000 0.06128  0.34585  0.52238  Biso   1.000  H
  C398     1.0000 0.79254  0.63854  0.99954  Biso   1.000  C
  C399     1.0000 0.79248  0.63850  0.99954  Biso   1.000  C
  H442     1.0000 0.76185  0.66538  0.08378  Biso   1.000  H
  H443     1.0000 0.75705  0.69778  0.01504  Biso   1.000  H
  C400     1.0000 0.90381  0.68684  0.04105  Biso   1.000  C
  C401     1.0000 0.90377  0.68684  0.04105  Biso   1.000  C
  N64      1.0000 0.95520  0.78904  0.09749  Biso   1.000  N
  H444     1.0000 0.88037  0.71047  0.13267  Biso   1.000  H
  N65      1.0000 0.95516  0.78904  0.09749  Biso   1.000  N
  H445     1.0000 0.88033  0.71047  0.13267  Biso   1.000  H
  H446     1.0000 0.78732  0.08009  0.99628  Biso   1.000  H
  H447     1.0000 0.74216  0.06476  0.06119  Biso   1.000  H
  C402     1.0000 0.78399  0.15871  0.03095  Biso   1.000  C
  H448     1.0000 0.74212  0.06476  0.06119  Biso   1.000  H
  C403     1.0000 0.78390  0.15871  0.03095  Biso   1.000  C
  N66      1.0000 0.94839  0.16852  0.11065  Biso   1.000  N
  C404     1.0000 0.90167  0.21582  0.04100  Biso   1.000  C
  H449     1.0000 0.91003  0.13706  0.01774  Biso   1.000  H
  C405     1.0000 0.90163  0.21582  0.04100  Biso   1.000  C
  C406     1.0000 0.06679  0.85677  0.23761  Biso   1.000  C
  C407     1.0000 0.16080  0.95289  0.20834  Biso   1.000  C
  C408     1.0000 0.16076  0.95289  0.20834  Biso   1.000  C
  C409     1.0000 0.14326  0.21002  0.23761  Biso   1.000  C
  C410     1.0000 0.14322  0.21002  0.23761  Biso   1.000  C
  C411     1.0000 0.04716  0.20790  0.20834  Biso   1.000  C
  C412     1.0000 0.04712  0.20790  0.20834  Biso   1.000  C
  C413     1.0000 0.84132  0.62524  0.03095  Biso   1.000  C
  H450     1.0000 0.80576  0.65486  0.95268  Biso   1.000  H
  H451     1.0000 0.75166  0.59869  0.99648  Biso   1.000  H
  H452     1.0000 0.80572  0.65486  0.95268  Biso   1.000  H
  H453     1.0000 0.75164  0.59864  0.99648  Biso   1.000  H
  H454     1.0000 0.91994  0.70726  0.99628  Biso   1.000  H
  H455     1.0000 0.93526  0.67736  0.06119  Biso   1.000  H
  H456     1.0000 0.93522  0.67736  0.06119  Biso   1.000  H
  C414     1.0000 0.97933  0.79932  0.15613  Biso   1.000  C
  C415     1.0000 0.97929  0.79932  0.15613  Biso   1.000  C
  C416     1.0000 0.84601  0.20752  0.99954  Biso   1.000  C
  C417     1.0000 0.84599  0.20748  0.99954  Biso   1.000  C
  H457     1.0000 0.74859  0.15197  0.00076  Biso   1.000  H
  H458     1.0000 0.77820  0.17418  0.07546  Biso   1.000  H
  C418     1.0000 0.99749  0.16927  0.09397  Biso   1.000  C
  H459     1.0000 0.90357  0.23818  0.08378  Biso   1.000  H
  H460     1.0000 0.94074  0.24299  0.01504  Biso   1.000  H
  H461     1.0000 0.90349  0.23818  0.08378  Biso   1.000  H
  H462     1.0000 0.94071  0.24294  0.01504  Biso   1.000  H
  C419     1.0000 0.04203  0.85333  0.17270  Biso   1.000  C
  C420     1.0000 0.04199  0.85333  0.17270  Biso   1.000  C
  H463     1.0000 0.04257  0.82517  0.27029  Biso   1.000  H
  H464     1.0000 0.04253  0.82517  0.27029  Biso   1.000  H
  C421     1.0000 0.13638  0.95086  0.14374  Biso   1.000  C
  C422     1.0000 0.13634  0.95086  0.14374  Biso   1.000  C
  H465     1.0000 0.20125  0.98675  0.22007  Biso   1.000  H
  H466     1.0000 0.20121  0.98675  0.22007  Biso   1.000  H
  H467     1.0000 0.17484  0.21738  0.27029  Biso   1.000  H
  C423     1.0000 0.14667  0.18866  0.17270  Biso   1.000  C
  C424     1.0000 0.04915  0.18550  0.14374  Biso   1.000  C
  H468     1.0000 0.01327  0.21446  0.22007  Biso   1.000  H
  H469     1.0000 0.01322  0.21446  0.22007  Biso   1.000  H
  H470     1.0000 0.84806  0.59666  0.00076  Biso   1.000  H
  H471     1.0000 0.82587  0.60407  0.07546  Biso   1.000  H
  H472     1.0000 0.84802  0.59666  0.00076  Biso   1.000  H
  H473     1.0000 0.82583  0.60407  0.07546  Biso   1.000  H
  H474     1.0000 0.95595  0.77079  0.19167  Biso   1.000  H
  H475     1.0000 0.95593  0.77074  0.19167  Biso   1.000  H
  H476     1.0000 0.84915  0.19427  0.95268  Biso   1.000  H
  H477     1.0000 0.84707  0.24837  0.99648  Biso   1.000  H
  H478     1.0000 0.84699  0.24837  0.99648  Biso   1.000  H
  H479     1.0000 0.00230  0.15928  0.04839  Biso   1.000  H
  C425     1.0000 0.07748  0.90110  0.12605  Biso   1.000  C
  C426     1.0000 0.17176  0.00250  0.09397  Biso   1.000  C
  C427     1.0000 0.17173  0.00246  0.09397  Biso   1.000  C
  C428     1.0000 0.20066  0.17998  0.15613  Biso   1.000  C
  C429     1.0000 0.09890  0.17635  0.12605  Biso   1.000  C
  H480     1.0000 0.06116  0.89959  0.08179  Biso   1.000  H
  H481     1.0000 0.06114  0.89955  0.08179  Biso   1.000  H
  H482     1.0000 0.15698  0.99769  0.04839  Biso   1.000  H
  H483     1.0000 0.15691  0.99765  0.04839  Biso   1.000  H
  N67      1.0000 0.22016  0.05160  0.11065  Biso   1.000  N
  N68      1.0000 0.21096  0.16611  0.09749  Biso   1.000  N
  H484     1.0000 0.22927  0.18517  0.19167  Biso   1.000  H
  H485     1.0000 0.22919  0.18517  0.19167  Biso   1.000  H
  H486     1.0000 0.10046  0.16159  0.08179  Biso   1.000  H
  C430     1.0000 0.25398  0.09980  0.05930  Biso   1.000  C
  C431     1.0000 0.26856  0.16385  0.08734  Biso   1.000  C
  C432     1.0000 0.26848  0.16385  0.08734  Biso   1.000  C
  C433     1.0000 0.31415  0.09834  0.04100  Biso   1.000  C
  H487     1.0000 0.22702  0.08999  0.01774  Biso   1.000  H
  H488     1.0000 0.22700  0.08995  0.01774  Biso   1.000  H
  C434     1.0000 0.31317  0.21696  0.04105  Biso   1.000  C
  H489     1.0000 0.28951  0.16989  0.13267  Biso   1.000  H
  H490     1.0000 0.33461  0.09645  0.08378  Biso   1.000  H
  C435     1.0000 0.36146  0.15399  0.99954  Biso   1.000  C
  H491     1.0000 0.30226  0.05929  0.01504  Biso   1.000  H
  H492     1.0000 0.29273  0.21266  0.99628  Biso   1.000  H
  C436     1.0000 0.37473  0.21606  0.03095  Biso   1.000  C
  H493     1.0000 0.32261  0.25789  0.06119  Biso   1.000  H
  H494     1.0000 0.32259  0.25785  0.06119  Biso   1.000  H
  H495     1.0000 0.34516  0.15088  0.95268  Biso   1.000  H
  H496     1.0000 0.40134  0.15296  0.99648  Biso   1.000  H
  H497     1.0000 0.40338  0.25139  0.00076  Biso   1.000  H
  H498     1.0000 0.39596  0.22177  0.07546  Biso   1.000  H
  H499     1.0000 0.40329  0.25139  0.00076  Biso   1.000  H
  H500     1.0000 0.39592  0.22177  0.07546  Biso   1.000  H
  C437     1.0000 0.94960  0.93869  0.58551  Biso   1.000  C
  C438     1.0000 0.93823  0.98883  0.58480  Biso   1.000  C
  C439     1.0000 0.93821  0.98878  0.58480  Biso   1.000  C
  H501     1.0000 0.91508  0.89662  0.58653  Biso   1.000  H
  H502     1.0000 0.91504  0.89662  0.58653  Biso   1.000  H
  C440     1.0000 0.01119  0.94940  0.58480  Biso   1.000  C
  C441     1.0000 0.87281  0.97562  0.57715  Biso   1.000  C
  C442     1.0000 0.94964  0.93869  0.58551  Biso   1.000  C
  C443     1.0000 0.98906  0.05038  0.58551  Biso   1.000  C
  C444     1.0000 0.02442  0.89719  0.57715  Biso   1.000  C
  C445     1.0000 0.02438  0.89719  0.57715  Biso   1.000  C
  C446     1.0000 0.06129  0.01095  0.58551  Biso   1.000  C
  N69      1.0000 0.86070  0.01618  0.55364  Biso   1.000  N
  N70      1.0000 0.86066  0.01618  0.55364  Biso   1.000  N
  H503     1.0000 0.83900  0.93544  0.59035  Biso   1.000  H
  H504     1.0000 0.83896  0.93544  0.59035  Biso   1.000  H
  H505     1.0000 0.98159  0.08495  0.58653  Biso   1.000  H
  H506     1.0000 0.98151  0.08495  0.58653  Biso   1.000  H
  C447     1.0000 0.05056  0.06179  0.58480  Biso   1.000  C
  N71      1.0000 0.98383  0.84451  0.55364  Biso   1.000  N
  H507     1.0000 0.06461  0.90356  0.59035  Biso   1.000  H
  H508     1.0000 0.06457  0.90356  0.59035  Biso   1.000  H
  H509     1.0000 0.10335  0.01845  0.58653  Biso   1.000  H
  C448     1.0000 0.79386  0.99727  0.54564  Biso   1.000  C
  C449     1.0000 0.10279  0.12720  0.57715  Biso   1.000  C
  C450     1.0000 0.10275  0.12720  0.57715  Biso   1.000  C
  C451     1.0000 0.00275  0.79659  0.54564  Biso   1.000  C
  C452     1.0000 0.77795  0.99364  0.46987  Biso   1.000  C
  C453     1.0000 0.77793  0.99359  0.46987  Biso   1.000  C
  H510     1.0000 0.76720  0.95473  0.56674  Biso   1.000  H
  H511     1.0000 0.76716  0.95473  0.56674  Biso   1.000  H
  C454     1.0000 0.78144  0.04538  0.58235  Biso   1.000  C
  H512     1.0000 0.09650  0.16102  0.59035  Biso   1.000  H
  N72      1.0000 0.15554  0.13933  0.55364  Biso   1.000  N
  H513     1.0000 0.09646  0.16102  0.59035  Biso   1.000  H
  N73      1.0000 0.15546  0.13933  0.55364  Biso   1.000  N
  C455     1.0000 0.95465  0.73608  0.58235  Biso   1.000  C
  C456     1.0000 0.95461  0.73608  0.58235  Biso   1.000  C
  H514     1.0000 0.04527  0.81244  0.56674  Biso   1.000  H
  C457     1.0000 0.00643  0.78433  0.46987  Biso   1.000  C
  C458     1.0000 0.00639  0.78433  0.46987  Biso   1.000  C
  C459     1.0000 0.70771  0.97421  0.46104  Biso   1.000  C
  H515     1.0000 0.78619  0.96232  0.44723  Biso   1.000  H
  C460     1.0000 0.70775  0.97421  0.46104  Biso   1.000  C
  H516     1.0000 0.78615  0.96232  0.44723  Biso   1.000  H
  H517     1.0000 0.80499  0.03514  0.44825  Biso   1.000  H
  H518     1.0000 0.80491  0.03514  0.44825  Biso   1.000  H
  C461     1.0000 0.71178  0.02533  0.57419  Biso   1.000  C
  C462     1.0000 0.71168  0.02528  0.57419  Biso   1.000  C
  N74      1.0000 0.79700  0.04571  0.65414  Biso   1.000  N
  H519     1.0000 0.80848  0.08834  0.56226  Biso   1.000  H
  N75      1.0000 0.79692  0.04571  0.65414  Biso   1.000  N
  C463     1.0000 0.20341  0.20616  0.54564  Biso   1.000  C
  C464     1.0000 0.20337  0.20616  0.54564  Biso   1.000  C
  N76      1.0000 0.95432  0.75127  0.65414  Biso   1.000  N
  C465     1.0000 0.97473  0.68646  0.57419  Biso   1.000  C
  H520     1.0000 0.91168  0.72014  0.56226  Biso   1.000  H
  C466     1.0000 0.97469  0.68646  0.57419  Biso   1.000  C
  H521     1.0000 0.96488  0.76985  0.44825  Biso   1.000  H
  H522     1.0000 0.03771  0.82385  0.44723  Biso   1.000  H
  C467     1.0000 0.02584  0.73353  0.46104  Biso   1.000  C
  H523     1.0000 0.03767  0.82385  0.44723  Biso   1.000  H
  C468     1.0000 0.02579  0.73353  0.46104  Biso   1.000  C
  H524     1.0000 0.68078  0.93082  0.47843  Biso   1.000  H
  H525     1.0000 0.69831  0.97444  0.41194  Biso   1.000  H
  H526     1.0000 0.68074  0.93082  0.47843  Biso   1.000  H
  H527     1.0000 0.69827  0.97444  0.41194  Biso   1.000  H
  C469     1.0000 0.69283  0.01920  0.49934  Biso   1.000  C
  H528     1.0000 0.68561  0.98435  0.59734  Biso   1.000  H
  H529     1.0000 0.68557  0.98435  0.59734  Biso   1.000  H
  H530     1.0000 0.70356  0.05684  0.59642  Biso   1.000  H
  H531     1.0000 0.70352  0.05684  0.59642  Biso   1.000  H
  C470     1.0000 0.84935  0.09150  0.67469  Biso   1.000  C
  H532     1.0000 0.18756  0.23285  0.56674  Biso   1.000  H
  C471     1.0000 0.21567  0.22210  0.46987  Biso   1.000  C
  C472     1.0000 0.26390  0.21856  0.58235  Biso   1.000  C
  H533     1.0000 0.18752  0.23285  0.56674  Biso   1.000  H
  C473     1.0000 0.21565  0.22205  0.46987  Biso   1.000  C
  C474     1.0000 0.90850  0.75782  0.67469  Biso   1.000  C
  C475     1.0000 0.98082  0.67363  0.49934  Biso   1.000  C
  H534     1.0000 0.94319  0.64675  0.59642  Biso   1.000  H
  H535     1.0000 0.01569  0.70122  0.59734  Biso   1.000  H
  H536     1.0000 0.01565  0.70122  0.59734  Biso   1.000  H
  H537     1.0000 0.06921  0.74994  0.47843  Biso   1.000  H
  H538     1.0000 0.02559  0.72382  0.41194  Biso   1.000  H
  H539     1.0000 0.06917  0.74994  0.47843  Biso   1.000  H
  H540     1.0000 0.02555  0.72382  0.41194  Biso   1.000  H
  H541     1.0000 0.71544  0.06132  0.47762  Biso   1.000  H
  H542     1.0000 0.64707  0.00382  0.49612  Biso   1.000  H
  H543     1.0000 0.87380  0.12513  0.64415  Biso   1.000  H
  C476     1.0000 0.87325  0.09405  0.74434  Biso   1.000  C
  H544     1.0000 0.87376  0.12513  0.64415  Biso   1.000  H
  C477     1.0000 0.87323  0.09400  0.74434  Biso   1.000  C
  H545     1.0000 0.23016  0.19503  0.44825  Biso   1.000  H
  H546     1.0000 0.17617  0.21384  0.44723  Biso   1.000  H
  C478     1.0000 0.26649  0.29228  0.46104  Biso   1.000  C
  N77      1.0000 0.24871  0.20304  0.65414  Biso   1.000  N
  C479     1.0000 0.31358  0.28827  0.57419  Biso   1.000  C
  H547     1.0000 0.27983  0.19154  0.56226  Biso   1.000  H
  H548     1.0000 0.87486  0.74862  0.64415  Biso   1.000  H
  C480     1.0000 0.90602  0.77923  0.74434  Biso   1.000  C
  C481     1.0000 0.90597  0.77923  0.74434  Biso   1.000  C
  H549     1.0000 0.93869  0.65416  0.47762  Biso   1.000  H
  H550     1.0000 0.99622  0.64326  0.49612  Biso   1.000  H
  H551     1.0000 0.99616  0.64321  0.49612  Biso   1.000  H
  C482     1.0000 0.93326  0.14324  0.76239  Biso   1.000  C
  C483     1.0000 0.83925  0.04712  0.79166  Biso   1.000  C
  C484     1.0000 0.93318  0.14324  0.76239  Biso   1.000  C
  C485     1.0000 0.32634  0.30718  0.49934  Biso   1.000  C
  H552     1.0000 0.25008  0.31925  0.47843  Biso   1.000  H
  H553     1.0000 0.27617  0.30176  0.41194  Biso   1.000  H
  C486     1.0000 0.24218  0.15069  0.67469  Biso   1.000  C
  H554     1.0000 0.35327  0.29643  0.59642  Biso   1.000  H
  H555     1.0000 0.29877  0.31444  0.59734  Biso   1.000  H
  C487     1.0000 0.85678  0.78999  0.76239  Biso   1.000  C
  C488     1.0000 0.95289  0.79211  0.79166  Biso   1.000  C
  C489     1.0000 0.95802  0.14668  0.82735  Biso   1.000  C
  H556     1.0000 0.95743  0.17484  0.72976  Biso   1.000  H
  C490     1.0000 0.86367  0.04915  0.85626  Biso   1.000  C
  H557     1.0000 0.79875  0.01326  0.77993  Biso   1.000  H
  H558     1.0000 0.79881  0.01321  0.77993  Biso   1.000  H
  H559     1.0000 0.79873  0.01321  0.77993  Biso   1.000  H
  H560     1.0000 0.34590  0.28454  0.47762  Biso   1.000  H
  H561     1.0000 0.35673  0.35293  0.49612  Biso   1.000  H
  H562     1.0000 0.34586  0.28454  0.47762  Biso   1.000  H
  H563     1.0000 0.25140  0.12626  0.64415  Biso   1.000  H
  C491     1.0000 0.22080  0.12673  0.74434  Biso   1.000  C
  H564     1.0000 0.25130  0.12621  0.64415  Biso   1.000  H
  C492     1.0000 0.22076  0.12673  0.74434  Biso   1.000  C
  C493     1.0000 0.85337  0.81135  0.82735  Biso   1.000  C
  C494     1.0000 0.85331  0.81130  0.82735  Biso   1.000  C
  H565     1.0000 0.82517  0.78263  0.72976  Biso   1.000  H
  C495     1.0000 0.95090  0.81451  0.85626  Biso   1.000  C
  H566     1.0000 0.98678  0.78555  0.77993  Biso   1.000  H
  C496     1.0000 0.95086  0.81451  0.85626  Biso   1.000  C
  C497     1.0000 0.92253  0.09891  0.87395  Biso   1.000  C
  C498     1.0000 0.92249  0.09891  0.87395  Biso   1.000  C
  C499     1.0000 0.02067  0.20068  0.84387  Biso   1.000  C
  C500     1.0000 0.82829  0.99751  0.90603  Biso   1.000  C
  C501     1.0000 0.82825  0.99751  0.90603  Biso   1.000  C
  C502     1.0000 0.21003  0.06679  0.76239  Biso   1.000  C
  C503     1.0000 0.20793  0.16078  0.79166  Biso   1.000  C
  C504     1.0000 0.20789  0.16078  0.79166  Biso   1.000  C
  C505     1.0000 0.79935  0.82003  0.84387  Biso   1.000  C
  C506     1.0000 0.79931  0.82003  0.84387  Biso   1.000  C
  C507     1.0000 0.90115  0.82366  0.87395  Biso   1.000  C
  C508     1.0000 0.90111  0.82366  0.87395  Biso   1.000  C
  C509     1.0000 0.00251  0.83074  0.90603  Biso   1.000  C
  C510     1.0000 0.00247  0.83074  0.90603  Biso   1.000  C
  H567     1.0000 0.93884  0.10042  0.91826  Biso   1.000  H
  H568     1.0000 0.93880  0.10042  0.91826  Biso   1.000  H
  N78      1.0000 0.04485  0.21097  0.90251  Biso   1.000  N
  H569     1.0000 0.04405  0.22922  0.80833  Biso   1.000  H
  N79      1.0000 0.77989  0.94841  0.88935  Biso   1.000  N
  N80      1.0000 0.77982  0.94836  0.88935  Biso   1.000  N
  H570     1.0000 0.84303  0.00232  0.95166  Biso   1.000  H
  C511     1.0000 0.18866  0.04203  0.82735  Biso   1.000  C
  H571     1.0000 0.21739  0.04255  0.72976  Biso   1.000  H
  C512     1.0000 0.18550  0.13635  0.85626  Biso   1.000  C
  H572     1.0000 0.21444  0.20125  0.77993  Biso   1.000  H
  N81      1.0000 0.78908  0.83390  0.90251  Biso   1.000  N
  N82      1.0000 0.78904  0.83390  0.90251  Biso   1.000  N
  H573     1.0000 0.77077  0.81484  0.80833  Biso   1.000  H
  H574     1.0000 0.89959  0.83842  0.91826  Biso   1.000  H
  H575     1.0000 0.89954  0.83842  0.91826  Biso   1.000  H
  H576     1.0000 0.99771  0.84073  0.95166  Biso   1.000  H
  H577     1.0000 0.99767  0.84073  0.95166  Biso   1.000  H
  N83      1.0000 0.05166  0.83149  0.88935  Biso   1.000  N
  N84      1.0000 0.05159  0.83144  0.88935  Biso   1.000  N
  C513     1.0000 0.10470  0.26851  0.91266  Biso   1.000  C
  C514     1.0000 0.10466  0.26851  0.91266  Biso   1.000  C
  C515     1.0000 0.74606  0.90021  0.94070  Biso   1.000  C
  C516     1.0000 0.74600  0.90016  0.94070  Biso   1.000  C
  C517     1.0000 0.17635  0.07745  0.87395  Biso   1.000  C
  C518     1.0000 0.18001  0.97930  0.84387  Biso   1.000  C
  C519     1.0000 0.17997  0.97930  0.84387  Biso   1.000  C
  C520     1.0000 0.16929  0.17173  0.90603  Biso   1.000  C
  C521     1.0000 0.16925  0.17173  0.90603  Biso   1.000  C
  C522     1.0000 0.73148  0.83616  0.91266  Biso   1.000  C
  C523     1.0000 0.09983  0.84583  0.94070  Biso   1.000  C
  C524     1.0000 0.09979  0.84583  0.94070  Biso   1.000  C
  C525     1.0000 0.09624  0.31317  0.95895  Biso   1.000  C
  H578     1.0000 0.11967  0.28954  0.86733  Biso   1.000  H
  C526     1.0000 0.15413  0.25398  0.94070  Biso   1.000  C
  C527     1.0000 0.09621  0.31312  0.95895  Biso   1.000  C
  C528     1.0000 0.68590  0.90167  0.95900  Biso   1.000  C
  H579     1.0000 0.77298  0.91002  0.98226  Biso   1.000  H
  C529     1.0000 0.68585  0.90167  0.95900  Biso   1.000  C
  H580     1.0000 0.77294  0.91002  0.98226  Biso   1.000  H
  H581     1.0000 0.16153  0.06113  0.91826  Biso   1.000  H
  N85      1.0000 0.16614  0.95515  0.90251  Biso   1.000  N
  H582     1.0000 0.18520  0.95595  0.80833  Biso   1.000  H
  N86      1.0000 0.16609  0.95515  0.90251  Biso   1.000  N
  H583     1.0000 0.18516  0.95595  0.80833  Biso   1.000  H
  N87      1.0000 0.16851  0.22016  0.88935  Biso   1.000  N
  H584     1.0000 0.15927  0.15692  0.95166  Biso   1.000  H
  C530     1.0000 0.68687  0.78305  0.95895  Biso   1.000  C
  H585     1.0000 0.71049  0.83012  0.86733  Biso   1.000  H
  C531     1.0000 0.68683  0.78305  0.95895  Biso   1.000  C
  H586     1.0000 0.71045  0.83012  0.86733  Biso   1.000  H
  C532     1.0000 0.16389  0.89535  0.91266  Biso   1.000  C
  C533     1.0000 0.16382  0.89530  0.91266  Biso   1.000  C
  C534     1.0000 0.09834  0.78419  0.95900  Biso   1.000  C
  H587     1.0000 0.09001  0.86295  0.98226  Biso   1.000  H
  H588     1.0000 0.08997  0.86295  0.98226  Biso   1.000  H
  H589     1.0000 0.06475  0.32265  0.93886  Biso   1.000  H
  C535     1.0000 0.15873  0.37476  0.96905  Biso   1.000  C
  C536     1.0000 0.15869  0.37476  0.96905  Biso   1.000  C
  H590     1.0000 0.08006  0.29275  0.00377  Biso   1.000  H
  H591     1.0000 0.08002  0.29275  0.00377  Biso   1.000  H
  C537     1.0000 0.21583  0.31416  0.95900  Biso   1.000  C
  H592     1.0000 0.13711  0.22705  0.98226  Biso   1.000  H
  H593     1.0000 0.13707  0.22705  0.98226  Biso   1.000  H
  H594     1.0000 0.66540  0.90356  0.91622  Biso   1.000  H
  H595     1.0000 0.69778  0.94072  0.98496  Biso   1.000  H
  H596     1.0000 0.69774  0.94072  0.98496  Biso   1.000  H
  C538     1.0000 0.63855  0.84602  0.00051  Biso   1.000  C
  C539     1.0000 0.63850  0.84602  0.00051  Biso   1.000  C
  C540     1.0000 0.62528  0.78395  0.96905  Biso   1.000  C
  C541     1.0000 0.62524  0.78395  0.96905  Biso   1.000  C
  H597     1.0000 0.67739  0.74212  0.93886  Biso   1.000  H
  H598     1.0000 0.67735  0.74212  0.93886  Biso   1.000  H
  H599     1.0000 0.70728  0.78735  0.00377  Biso   1.000  H
  C542     1.0000 0.21696  0.90379  0.95895  Biso   1.000  C
  H600     1.0000 0.16991  0.88035  0.86733  Biso   1.000  H
  C543     1.0000 0.21692  0.90379  0.95895  Biso   1.000  C
  H601     1.0000 0.16987  0.88035  0.86733  Biso   1.000  H
  H602     1.0000 0.09647  0.76183  0.91622  Biso   1.000  H
  H603     1.0000 0.05927  0.75702  0.98496  Biso   1.000  H
  C544     1.0000 0.15399  0.79249  0.00051  Biso   1.000  C
  H604     1.0000 0.15194  0.40335  0.99924  Biso   1.000  H
  H605     1.0000 0.17418  0.39594  0.92454  Biso   1.000  H
  C545     1.0000 0.20747  0.36146  0.00051  Biso   1.000  C
  H606     1.0000 0.23816  0.33463  0.91622  Biso   1.000  H
  H607     1.0000 0.24299  0.30223  0.98496  Biso   1.000  H
  H608     1.0000 0.24291  0.30223  0.98496  Biso   1.000  H
  H609     1.0000 0.65489  0.84913  0.04737  Biso   1.000  H
  H610     1.0000 0.59871  0.84705  0.00357  Biso   1.000  H
  H611     1.0000 0.65485  0.84913  0.04737  Biso   1.000  H
  H612     1.0000 0.59867  0.84705  0.00357  Biso   1.000  H
  H613     1.0000 0.59667  0.74862  0.99924  Biso   1.000  H
  H614     1.0000 0.60409  0.77824  0.92454  Biso   1.000  H
  H615     1.0000 0.25789  0.93525  0.93886  Biso   1.000  H
  C546     1.0000 0.21606  0.84130  0.96905  Biso   1.000  C
  H616     1.0000 0.21269  0.91992  0.00377  Biso   1.000  H
  H617     1.0000 0.21265  0.91992  0.00377  Biso   1.000  H
  H618     1.0000 0.15090  0.80574  0.04737  Biso   1.000  H
  H619     1.0000 0.15297  0.75164  0.00357  Biso   1.000  H
  H620     1.0000 0.15086  0.80574  0.04737  Biso   1.000  H
  H621     1.0000 0.19428  0.34515  0.04737  Biso   1.000  H
  H622     1.0000 0.24835  0.40132  0.00357  Biso   1.000  H
  H623     1.0000 0.25141  0.84804  0.99924  Biso   1.000  H
  H624     1.0000 0.22180  0.82583  0.92454  Biso   1.000  H
  H625     1.0000 0.25137  0.84804  0.99924  Biso   1.000  H
  H626     1.0000 0.22176  0.82583  0.92454  Biso   1.000  H
  C547     1.0000 0.94960  0.93869  0.58551  Biso   1.000  C
  C548     1.0000 0.93823  0.98883  0.58480  Biso   1.000  C
  C549     1.0000 0.93821  0.98878  0.58480  Biso   1.000  C
  H627     1.0000 0.91508  0.89662  0.58653  Biso   1.000  H
  H628     1.0000 0.91504  0.89662  0.58653  Biso   1.000  H
  C550     1.0000 0.01119  0.94940  0.58480  Biso   1.000  C
  C551     1.0000 0.98906  0.05038  0.58551  Biso   1.000  C
  C552     1.0000 0.87281  0.97562  0.57715  Biso   1.000  C
  C553     1.0000 0.94964  0.93869  0.58551  Biso   1.000  C
  C554     1.0000 0.02442  0.89719  0.57715  Biso   1.000  C
  C555     1.0000 0.02438  0.89719  0.57715  Biso   1.000  C
  C556     1.0000 0.06129  0.01095  0.58551  Biso   1.000  C
  H629     1.0000 0.98159  0.08495  0.58653  Biso   1.000  H
  H630     1.0000 0.98151  0.08495  0.58653  Biso   1.000  H
  C557     1.0000 0.05056  0.06179  0.58480  Biso   1.000  C
  N88      1.0000 0.86070  0.01618  0.55364  Biso   1.000  N
  N89      1.0000 0.86066  0.01618  0.55364  Biso   1.000  N
  H631     1.0000 0.83900  0.93544  0.59035  Biso   1.000  H
  H632     1.0000 0.83896  0.93544  0.59035  Biso   1.000  H
  N90      1.0000 0.98383  0.84451  0.55364  Biso   1.000  N
  H633     1.0000 0.06461  0.90356  0.59035  Biso   1.000  H
  H634     1.0000 0.06457  0.90356  0.59035  Biso   1.000  H
  H635     1.0000 0.10335  0.01845  0.58653  Biso   1.000  H
  C558     1.0000 0.10279  0.12720  0.57715  Biso   1.000  C
  C559     1.0000 0.10275  0.12720  0.57715  Biso   1.000  C
  C560     1.0000 0.79386  0.99727  0.54564  Biso   1.000  C
  C561     1.0000 0.00275  0.79659  0.54564  Biso   1.000  C
  H636     1.0000 0.09650  0.16102  0.59035  Biso   1.000  H
  N91      1.0000 0.15554  0.13933  0.55364  Biso   1.000  N
  H637     1.0000 0.09646  0.16102  0.59035  Biso   1.000  H
  N92      1.0000 0.15546  0.13933  0.55364  Biso   1.000  N
  C562     1.0000 0.78144  0.04538  0.58235  Biso   1.000  C
  C563     1.0000 0.77795  0.99364  0.46987  Biso   1.000  C
  C564     1.0000 0.77793  0.99359  0.46987  Biso   1.000  C
  H638     1.0000 0.76720  0.95473  0.56674  Biso   1.000  H
  H639     1.0000 0.76716  0.95473  0.56674  Biso   1.000  H
  C565     1.0000 0.95465  0.73608  0.58235  Biso   1.000  C
  C566     1.0000 0.95461  0.73608  0.58235  Biso   1.000  C
  H640     1.0000 0.04527  0.81244  0.56674  Biso   1.000  H
  C567     1.0000 0.00643  0.78433  0.46987  Biso   1.000  C
  C568     1.0000 0.00639  0.78433  0.46987  Biso   1.000  C
  C569     1.0000 0.20341  0.20616  0.54564  Biso   1.000  C
  C570     1.0000 0.20337  0.20616  0.54564  Biso   1.000  C
  C571     1.0000 0.71178  0.02533  0.57419  Biso   1.000  C
  C572     1.0000 0.71168  0.02528  0.57419  Biso   1.000  C
  N93      1.0000 0.79700  0.04571  0.65414  Biso   1.000  N
  H641     1.0000 0.80848  0.08834  0.56226  Biso   1.000  H
  N94      1.0000 0.79692  0.04571  0.65414  Biso   1.000  N
  C573     1.0000 0.70771  0.97421  0.46104  Biso   1.000  C
  H642     1.0000 0.78619  0.96232  0.44723  Biso   1.000  H
  C574     1.0000 0.70775  0.97421  0.46104  Biso   1.000  C
  H643     1.0000 0.78615  0.96232  0.44723  Biso   1.000  H
  H644     1.0000 0.80499  0.03514  0.44825  Biso   1.000  H
  H645     1.0000 0.80491  0.03514  0.44825  Biso   1.000  H
  N95      1.0000 0.95432  0.75127  0.65414  Biso   1.000  N
  H646     1.0000 0.91168  0.72014  0.56226  Biso   1.000  H
  C575     1.0000 0.97473  0.68646  0.57419  Biso   1.000  C
  C576     1.0000 0.97469  0.68646  0.57419  Biso   1.000  C
  H647     1.0000 0.96488  0.76985  0.44825  Biso   1.000  H
  H648     1.0000 0.03771  0.82385  0.44723  Biso   1.000  H
  C577     1.0000 0.02584  0.73353  0.46104  Biso   1.000  C
  H649     1.0000 0.03767  0.82385  0.44723  Biso   1.000  H
  C578     1.0000 0.02579  0.73353  0.46104  Biso   1.000  C
  H650     1.0000 0.18756  0.23285  0.56674  Biso   1.000  H
  C579     1.0000 0.21567  0.22210  0.46987  Biso   1.000  C
  C580     1.0000 0.26390  0.21856  0.58235  Biso   1.000  C
  H651     1.0000 0.18752  0.23285  0.56674  Biso   1.000  H
  C581     1.0000 0.21565  0.22205  0.46987  Biso   1.000  C
  C582     1.0000 0.69283  0.01920  0.49934  Biso   1.000  C
  H652     1.0000 0.68561  0.98435  0.59734  Biso   1.000  H
  H653     1.0000 0.68557  0.98435  0.59734  Biso   1.000  H
  H654     1.0000 0.70356  0.05684  0.59642  Biso   1.000  H
  H655     1.0000 0.70352  0.05684  0.59642  Biso   1.000  H
  C583     1.0000 0.84935  0.09150  0.67469  Biso   1.000  C
  H656     1.0000 0.68078  0.93082  0.47843  Biso   1.000  H
  H657     1.0000 0.69831  0.97444  0.41194  Biso   1.000  H
  H658     1.0000 0.68074  0.93082  0.47843  Biso   1.000  H
  H659     1.0000 0.69827  0.97444  0.41194  Biso   1.000  H
  C584     1.0000 0.90850  0.75782  0.67469  Biso   1.000  C
  C585     1.0000 0.98082  0.67363  0.49934  Biso   1.000  C
  H660     1.0000 0.94319  0.64675  0.59642  Biso   1.000  H
  H661     1.0000 0.01569  0.70122  0.59734  Biso   1.000  H
  H662     1.0000 0.01565  0.70122  0.59734  Biso   1.000  H
  H663     1.0000 0.06921  0.74994  0.47843  Biso   1.000  H
  H664     1.0000 0.02559  0.72382  0.41194  Biso   1.000  H
  H665     1.0000 0.06917  0.74994  0.47843  Biso   1.000  H
  H666     1.0000 0.02555  0.72382  0.41194  Biso   1.000  H
  H667     1.0000 0.23016  0.19503  0.44825  Biso   1.000  H
  H668     1.0000 0.17617  0.21384  0.44723  Biso   1.000  H
  C586     1.0000 0.26649  0.29228  0.46104  Biso   1.000  C
  N96      1.0000 0.24871  0.20304  0.65414  Biso   1.000  N
  C587     1.0000 0.31358  0.28827  0.57419  Biso   1.000  C
  H669     1.0000 0.27983  0.19154  0.56226  Biso   1.000  H
  H670     1.0000 0.71544  0.06132  0.47762  Biso   1.000  H
  H671     1.0000 0.64707  0.00382  0.49612  Biso   1.000  H
  H672     1.0000 0.87380  0.12513  0.64415  Biso   1.000  H
  C588     1.0000 0.87325  0.09405  0.74434  Biso   1.000  C
  H673     1.0000 0.87376  0.12513  0.64415  Biso   1.000  H
  C589     1.0000 0.87323  0.09400  0.74434  Biso   1.000  C
  H674     1.0000 0.87486  0.74862  0.64415  Biso   1.000  H
  C590     1.0000 0.90602  0.77923  0.74434  Biso   1.000  C
  C591     1.0000 0.90597  0.77923  0.74434  Biso   1.000  C
  H675     1.0000 0.93869  0.65416  0.47762  Biso   1.000  H
  H676     1.0000 0.99622  0.64326  0.49612  Biso   1.000  H
  H677     1.0000 0.99616  0.64321  0.49612  Biso   1.000  H
  H678     1.0000 0.27617  0.30176  0.41194  Biso   1.000  H
  C592     1.0000 0.32634  0.30718  0.49934  Biso   1.000  C
  H679     1.0000 0.25008  0.31925  0.47843  Biso   1.000  H
  C593     1.0000 0.24218  0.15069  0.67469  Biso   1.000  C
  H680     1.0000 0.29877  0.31444  0.59734  Biso   1.000  H
  H681     1.0000 0.35327  0.29643  0.59642  Biso   1.000  H
  C594     1.0000 0.93326  0.14324  0.76239  Biso   1.000  C
  C595     1.0000 0.83925  0.04712  0.79166  Biso   1.000  C
  C596     1.0000 0.93318  0.14324  0.76239  Biso   1.000  C
  C597     1.0000 0.85678  0.78999  0.76239  Biso   1.000  C
  C598     1.0000 0.95289  0.79211  0.79166  Biso   1.000  C
  H682     1.0000 0.34590  0.28454  0.47762  Biso   1.000  H
  H683     1.0000 0.35673  0.35293  0.49612  Biso   1.000  H
  H684     1.0000 0.34586  0.28454  0.47762  Biso   1.000  H
  H685     1.0000 0.25140  0.12626  0.64415  Biso   1.000  H
  C599     1.0000 0.22080  0.12673  0.74434  Biso   1.000  C
  H686     1.0000 0.25130  0.12621  0.64415  Biso   1.000  H
  C600     1.0000 0.22076  0.12673  0.74434  Biso   1.000  C
  C601     1.0000 0.95802  0.14668  0.82735  Biso   1.000  C
  H687     1.0000 0.95743  0.17484  0.72976  Biso   1.000  H
  C602     1.0000 0.86367  0.04915  0.85626  Biso   1.000  C
  H688     1.0000 0.79875  0.01326  0.77993  Biso   1.000  H
  H689     1.0000 0.79881  0.01321  0.77993  Biso   1.000  H
  H690     1.0000 0.79873  0.01321  0.77993  Biso   1.000  H
  C603     1.0000 0.85337  0.81135  0.82735  Biso   1.000  C
  C604     1.0000 0.85331  0.81130  0.82735  Biso   1.000  C
  H691     1.0000 0.82517  0.78263  0.72976  Biso   1.000  H
  H692     1.0000 0.98678  0.78555  0.77993  Biso   1.000  H
  C605     1.0000 0.95090  0.81451  0.85626  Biso   1.000  C
  C606     1.0000 0.95086  0.81451  0.85626  Biso   1.000  C
  C607     1.0000 0.21003  0.06679  0.76239  Biso   1.000  C
  C608     1.0000 0.20793  0.16078  0.79166  Biso   1.000  C
  C609     1.0000 0.20789  0.16078  0.79166  Biso   1.000  C
  C610     1.0000 0.92253  0.09891  0.87395  Biso   1.000  C
  C611     1.0000 0.92249  0.09891  0.87395  Biso   1.000  C
  C612     1.0000 0.02067  0.20068  0.84387  Biso   1.000  C
  C613     1.0000 0.82829  0.99751  0.90603  Biso   1.000  C
  C614     1.0000 0.82825  0.99751  0.90603  Biso   1.000  C
  C615     1.0000 0.79935  0.82003  0.84387  Biso   1.000  C
  C616     1.0000 0.79931  0.82003  0.84387  Biso   1.000  C
  C617     1.0000 0.90115  0.82366  0.87395  Biso   1.000  C
  C618     1.0000 0.90111  0.82366  0.87395  Biso   1.000  C
  C619     1.0000 0.00251  0.83074  0.90603  Biso   1.000  C
  C620     1.0000 0.00247  0.83074  0.90603  Biso   1.000  C
  C621     1.0000 0.18866  0.04203  0.82735  Biso   1.000  C
  H693     1.0000 0.21739  0.04255  0.72976  Biso   1.000  H
  C622     1.0000 0.18550  0.13635  0.85626  Biso   1.000  C
  H694     1.0000 0.21444  0.20125  0.77993  Biso   1.000  H
  H695     1.0000 0.93884  0.10042  0.91826  Biso   1.000  H
  H696     1.0000 0.93880  0.10042  0.91826  Biso   1.000  H
  H697     1.0000 0.04405  0.22922  0.80833  Biso   1.000  H
  N97      1.0000 0.04485  0.21097  0.90251  Biso   1.000  N
  N98      1.0000 0.77989  0.94841  0.88935  Biso   1.000  N
  N99      1.0000 0.77982  0.94836  0.88935  Biso   1.000  N
  H698     1.0000 0.84303  0.00232  0.95166  Biso   1.000  H
  N100     1.0000 0.78908  0.83390  0.90251  Biso   1.000  N
  N101     1.0000 0.78904  0.83390  0.90251  Biso   1.000  N
  H699     1.0000 0.77077  0.81484  0.80833  Biso   1.000  H
  H700     1.0000 0.89959  0.83842  0.91826  Biso   1.000  H
  H701     1.0000 0.89954  0.83842  0.91826  Biso   1.000  H
  H702     1.0000 0.99771  0.84073  0.95166  Biso   1.000  H
  H703     1.0000 0.99767  0.84073  0.95166  Biso   1.000  H
  N102     1.0000 0.05166  0.83149  0.88935  Biso   1.000  N
  N103     1.0000 0.05159  0.83144  0.88935  Biso   1.000  N
  C623     1.0000 0.17635  0.07745  0.87395  Biso   1.000  C
  C624     1.0000 0.18001  0.97930  0.84387  Biso   1.000  C
  C625     1.0000 0.17997  0.97930  0.84387  Biso   1.000  C
  C626     1.0000 0.16929  0.17173  0.90603  Biso   1.000  C
  C627     1.0000 0.16925  0.17173  0.90603  Biso   1.000  C
  C628     1.0000 0.10470  0.26851  0.91266  Biso   1.000  C
  C629     1.0000 0.10466  0.26851  0.91266  Biso   1.000  C
  C630     1.0000 0.74606  0.90021  0.94070  Biso   1.000  C
  C631     1.0000 0.74600  0.90016  0.94070  Biso   1.000  C
  C632     1.0000 0.73148  0.83616  0.91266  Biso   1.000  C
  C633     1.0000 0.09983  0.84583  0.94070  Biso   1.000  C
  C634     1.0000 0.09979  0.84583  0.94070  Biso   1.000  C
  H704     1.0000 0.16153  0.06113  0.91826  Biso   1.000  H
  N104     1.0000 0.16614  0.95515  0.90251  Biso   1.000  N
  H705     1.0000 0.18520  0.95595  0.80833  Biso   1.000  H
  N105     1.0000 0.16609  0.95515  0.90251  Biso   1.000  N
  H706     1.0000 0.18516  0.95595  0.80833  Biso   1.000  H
  N106     1.0000 0.16851  0.22016  0.88935  Biso   1.000  N
  H707     1.0000 0.15927  0.15692  0.95166  Biso   1.000  H
  C635     1.0000 0.09624  0.31317  0.95895  Biso   1.000  C
  H708     1.0000 0.11967  0.28954  0.86733  Biso   1.000  H
  C636     1.0000 0.15413  0.25398  0.94070  Biso   1.000  C
  C637     1.0000 0.09621  0.31312  0.95895  Biso   1.000  C
  C638     1.0000 0.68590  0.90167  0.95900  Biso   1.000  C
  H709     1.0000 0.77298  0.91002  0.98226  Biso   1.000  H
  C639     1.0000 0.68585  0.90167  0.95900  Biso   1.000  C
  H710     1.0000 0.77294  0.91002  0.98226  Biso   1.000  H
  C640     1.0000 0.68687  0.78305  0.95895  Biso   1.000  C
  H711     1.0000 0.71049  0.83012  0.86733  Biso   1.000  H
  C641     1.0000 0.68683  0.78305  0.95895  Biso   1.000  C
  H712     1.0000 0.71045  0.83012  0.86733  Biso   1.000  H
  C642     1.0000 0.16389  0.89535  0.91266  Biso   1.000  C
  C643     1.0000 0.16382  0.89530  0.91266  Biso   1.000  C
  C644     1.0000 0.09834  0.78419  0.95900  Biso   1.000  C
  H713     1.0000 0.09001  0.86295  0.98226  Biso   1.000  H
  H714     1.0000 0.08997  0.86295  0.98226  Biso   1.000  H
  H715     1.0000 0.06475  0.32265  0.93886  Biso   1.000  H
  C645     1.0000 0.15873  0.37476  0.96905  Biso   1.000  C
  C646     1.0000 0.15869  0.37476  0.96905  Biso   1.000  C
  H716     1.0000 0.08006  0.29275  0.00377  Biso   1.000  H
  H717     1.0000 0.08002  0.29275  0.00377  Biso   1.000  H
  C647     1.0000 0.21583  0.31416  0.95900  Biso   1.000  C
  H718     1.0000 0.13711  0.22705  0.98226  Biso   1.000  H
  H719     1.0000 0.13707  0.22705  0.98226  Biso   1.000  H
  H720     1.0000 0.66540  0.90356  0.91622  Biso   1.000  H
  H721     1.0000 0.69778  0.94072  0.98496  Biso   1.000  H
  H722     1.0000 0.69774  0.94072  0.98496  Biso   1.000  H
  C648     1.0000 0.63855  0.84602  0.00051  Biso   1.000  C
  C649     1.0000 0.63850  0.84602  0.00051  Biso   1.000  C
  H723     1.0000 0.67739  0.74212  0.93886  Biso   1.000  H
  C650     1.0000 0.62528  0.78395  0.96905  Biso   1.000  C
  H724     1.0000 0.67735  0.74212  0.93886  Biso   1.000  H
  C651     1.0000 0.62524  0.78395  0.96905  Biso   1.000  C
  H725     1.0000 0.70728  0.78735  0.00377  Biso   1.000  H
  C652     1.0000 0.21696  0.90379  0.95895  Biso   1.000  C
  H726     1.0000 0.16991  0.88035  0.86733  Biso   1.000  H
  C653     1.0000 0.21692  0.90379  0.95895  Biso   1.000  C
  H727     1.0000 0.16987  0.88035  0.86733  Biso   1.000  H
  H728     1.0000 0.09647  0.76183  0.91622  Biso   1.000  H
  H729     1.0000 0.05927  0.75702  0.98496  Biso   1.000  H
  C654     1.0000 0.15399  0.79249  0.00051  Biso   1.000  C
  H730     1.0000 0.15194  0.40335  0.99924  Biso   1.000  H
  H731     1.0000 0.17418  0.39594  0.92454  Biso   1.000  H
  C655     1.0000 0.20747  0.36146  0.00051  Biso   1.000  C
  H732     1.0000 0.23816  0.33463  0.91622  Biso   1.000  H
  H733     1.0000 0.24299  0.30223  0.98496  Biso   1.000  H
  H734     1.0000 0.24291  0.30223  0.98496  Biso   1.000  H
  H735     1.0000 0.65489  0.84913  0.04737  Biso   1.000  H
  H736     1.0000 0.59871  0.84705  0.00357  Biso   1.000  H
  H737     1.0000 0.65485  0.84913  0.04737  Biso   1.000  H
  H738     1.0000 0.59867  0.84705  0.00357  Biso   1.000  H
  H739     1.0000 0.59667  0.74862  0.99924  Biso   1.000  H
  H740     1.0000 0.60409  0.77824  0.92454  Biso   1.000  H
  H741     1.0000 0.25789  0.93525  0.93886  Biso   1.000  H
  C656     1.0000 0.21606  0.84130  0.96905  Biso   1.000  C
  H742     1.0000 0.21269  0.91992  0.00377  Biso   1.000  H
  H743     1.0000 0.21265  0.91992  0.00377  Biso   1.000  H
  H744     1.0000 0.15090  0.80574  0.04737  Biso   1.000  H
  H745     1.0000 0.15297  0.75164  0.00357  Biso   1.000  H
  H746     1.0000 0.15086  0.80574  0.04737  Biso   1.000  H
  H747     1.0000 0.24835  0.40132  0.00357  Biso   1.000  H
  H748     1.0000 0.19428  0.34515  0.04737  Biso   1.000  H
  H749     1.0000 0.25141  0.84804  0.99924  Biso   1.000  H
  H750     1.0000 0.22180  0.82583  0.92454  Biso   1.000  H
  H751     1.0000 0.25137  0.84804  0.99924  Biso   1.000  H
  H752     1.0000 0.22176  0.82583  0.92454  Biso   1.000  H
  C657     1.0000 0.94960  0.93869  0.58551  Biso   1.000  C
  C658     1.0000 0.01119  0.94940  0.58480  Biso   1.000  C
  C659     1.0000 0.93823  0.98883  0.58480  Biso   1.000  C
  H753     1.0000 0.91508  0.89662  0.58653  Biso   1.000  H
  C660     1.0000 0.93821  0.98878  0.58480  Biso   1.000  C
  H754     1.0000 0.91504  0.89662  0.58653  Biso   1.000  H
  C661     1.0000 0.02442  0.89719  0.57715  Biso   1.000  C
  C662     1.0000 0.02438  0.89719  0.57715  Biso   1.000  C
  C663     1.0000 0.94964  0.93869  0.58551  Biso   1.000  C
  C664     1.0000 0.06129  0.01095  0.58551  Biso   1.000  C
  C665     1.0000 0.98906  0.05038  0.58551  Biso   1.000  C
  C666     1.0000 0.87281  0.97562  0.57715  Biso   1.000  C
  N107     1.0000 0.98383  0.84451  0.55364  Biso   1.000  N
  H755     1.0000 0.06461  0.90356  0.59035  Biso   1.000  H
  H756     1.0000 0.06457  0.90356  0.59035  Biso   1.000  H
  C667     1.0000 0.05056  0.06179  0.58480  Biso   1.000  C
  H757     1.0000 0.10335  0.01845  0.58653  Biso   1.000  H
  H758     1.0000 0.98159  0.08495  0.58653  Biso   1.000  H
  H759     1.0000 0.98151  0.08495  0.58653  Biso   1.000  H
  H760     1.0000 0.83900  0.93544  0.59035  Biso   1.000  H
  H761     1.0000 0.83896  0.93544  0.59035  Biso   1.000  H
  N108     1.0000 0.86070  0.01618  0.55364  Biso   1.000  N
  N109     1.0000 0.86066  0.01618  0.55364  Biso   1.000  N
  C668     1.0000 0.00275  0.79659  0.54564  Biso   1.000  C
  C669     1.0000 0.10279  0.12720  0.57715  Biso   1.000  C
  C670     1.0000 0.10275  0.12720  0.57715  Biso   1.000  C
  C671     1.0000 0.79386  0.99727  0.54564  Biso   1.000  C
  C672     1.0000 0.95465  0.73608  0.58235  Biso   1.000  C
  C673     1.0000 0.95461  0.73608  0.58235  Biso   1.000  C
  C674     1.0000 0.00643  0.78433  0.46987  Biso   1.000  C
  C675     1.0000 0.00639  0.78433  0.46987  Biso   1.000  C
  H762     1.0000 0.04527  0.81244  0.56674  Biso   1.000  H
  H763     1.0000 0.09650  0.16102  0.59035  Biso   1.000  H
  N110     1.0000 0.15554  0.13933  0.55364  Biso   1.000  N
  H764     1.0000 0.09646  0.16102  0.59035  Biso   1.000  H
  N111     1.0000 0.15546  0.13933  0.55364  Biso   1.000  N
  C676     1.0000 0.78144  0.04538  0.58235  Biso   1.000  C
  H765     1.0000 0.76720  0.95473  0.56674  Biso   1.000  H
  C677     1.0000 0.77795  0.99364  0.46987  Biso   1.000  C
  H766     1.0000 0.76716  0.95473  0.56674  Biso   1.000  H
  C678     1.0000 0.77793  0.99359  0.46987  Biso   1.000  C
  C679     1.0000 0.97473  0.68646  0.57419  Biso   1.000  C
  C680     1.0000 0.97469  0.68646  0.57419  Biso   1.000  C
  N112     1.0000 0.95432  0.75127  0.65414  Biso   1.000  N
  H767     1.0000 0.91168  0.72014  0.56226  Biso   1.000  H
  C681     1.0000 0.02584  0.73353  0.46104  Biso   1.000  C
  C682     1.0000 0.02579  0.73353  0.46104  Biso   1.000  C
  H768     1.0000 0.96488  0.76985  0.44825  Biso   1.000  H
  H769     1.0000 0.03771  0.82385  0.44723  Biso   1.000  H
  H770     1.0000 0.03767  0.82385  0.44723  Biso   1.000  H
  C683     1.0000 0.20341  0.20616  0.54564  Biso   1.000  C
  C684     1.0000 0.20337  0.20616  0.54564  Biso   1.000  C
  N113     1.0000 0.79700  0.04571  0.65414  Biso   1.000  N
  C685     1.0000 0.71178  0.02533  0.57419  Biso   1.000  C
  H771     1.0000 0.80848  0.08834  0.56226  Biso   1.000  H
  N114     1.0000 0.79692  0.04571  0.65414  Biso   1.000  N
  C686     1.0000 0.71168  0.02528  0.57419  Biso   1.000  C
  H772     1.0000 0.78619  0.96232  0.44723  Biso   1.000  H
  C687     1.0000 0.70775  0.97421  0.46104  Biso   1.000  C
  H773     1.0000 0.78615  0.96232  0.44723  Biso   1.000  H
  C688     1.0000 0.70771  0.97421  0.46104  Biso   1.000  C
  H774     1.0000 0.80499  0.03514  0.44825  Biso   1.000  H
  H775     1.0000 0.80491  0.03514  0.44825  Biso   1.000  H
  C689     1.0000 0.98082  0.67363  0.49934  Biso   1.000  C
  H776     1.0000 0.94319  0.64675  0.59642  Biso   1.000  H
  H777     1.0000 0.01569  0.70122  0.59734  Biso   1.000  H
  H778     1.0000 0.01565  0.70122  0.59734  Biso   1.000  H
  C690     1.0000 0.90850  0.75782  0.67469  Biso   1.000  C
  H779     1.0000 0.06921  0.74994  0.47843  Biso   1.000  H
  H780     1.0000 0.02559  0.72382  0.41194  Biso   1.000  H
  H781     1.0000 0.06917  0.74994  0.47843  Biso   1.000  H
  H782     1.0000 0.02555  0.72382  0.41194  Biso   1.000  H
  H783     1.0000 0.18756  0.23285  0.56674  Biso   1.000  H
  C691     1.0000 0.21567  0.22210  0.46987  Biso   1.000  C
  C692     1.0000 0.26390  0.21856  0.58235  Biso   1.000  C
  H784     1.0000 0.18752  0.23285  0.56674  Biso   1.000  H
  C693     1.0000 0.21565  0.22205  0.46987  Biso   1.000  C
  C694     1.0000 0.84935  0.09150  0.67469  Biso   1.000  C
  C695     1.0000 0.69283  0.01920  0.49934  Biso   1.000  C
  H785     1.0000 0.68561  0.98435  0.59734  Biso   1.000  H
  H786     1.0000 0.68557  0.98435  0.59734  Biso   1.000  H
  H787     1.0000 0.70356  0.05684  0.59642  Biso   1.000  H
  H788     1.0000 0.70352  0.05684  0.59642  Biso   1.000  H
  H789     1.0000 0.68078  0.93082  0.47843  Biso   1.000  H
  H790     1.0000 0.69831  0.97444  0.41194  Biso   1.000  H
  H791     1.0000 0.68074  0.93082  0.47843  Biso   1.000  H
  H792     1.0000 0.69827  0.97444  0.41194  Biso   1.000  H
  H793     1.0000 0.93869  0.65416  0.47762  Biso   1.000  H
  H794     1.0000 0.99622  0.64326  0.49612  Biso   1.000  H
  H795     1.0000 0.99616  0.64321  0.49612  Biso   1.000  H
  H796     1.0000 0.87486  0.74862  0.64415  Biso   1.000  H
  C696     1.0000 0.90602  0.77923  0.74434  Biso   1.000  C
  C697     1.0000 0.90597  0.77923  0.74434  Biso   1.000  C
  H797     1.0000 0.23016  0.19503  0.44825  Biso   1.000  H
  H798     1.0000 0.17617  0.21384  0.44723  Biso   1.000  H
  C698     1.0000 0.26649  0.29228  0.46104  Biso   1.000  C
  N115     1.0000 0.24871  0.20304  0.65414  Biso   1.000  N
  C699     1.0000 0.31358  0.28827  0.57419  Biso   1.000  C
  H799     1.0000 0.27983  0.19154  0.56226  Biso   1.000  H
  H800     1.0000 0.87380  0.12513  0.64415  Biso   1.000  H
  C700     1.0000 0.87325  0.09405  0.74434  Biso   1.000  C
  H801     1.0000 0.87376  0.12513  0.64415  Biso   1.000  H
  C701     1.0000 0.87323  0.09400  0.74434  Biso   1.000  C
  H802     1.0000 0.71544  0.06132  0.47762  Biso   1.000  H
  H803     1.0000 0.64707  0.00382  0.49612  Biso   1.000  H
  C702     1.0000 0.85678  0.78999  0.76239  Biso   1.000  C
  C703     1.0000 0.95289  0.79211  0.79166  Biso   1.000  C
  H804     1.0000 0.27617  0.30176  0.41194  Biso   1.000  H
  C704     1.0000 0.32634  0.30718  0.49934  Biso   1.000  C
  H805     1.0000 0.25008  0.31925  0.47843  Biso   1.000  H
  C705     1.0000 0.24218  0.15069  0.67469  Biso   1.000  C
  H806     1.0000 0.29877  0.31444  0.59734  Biso   1.000  H
  H807     1.0000 0.35327  0.29643  0.59642  Biso   1.000  H
  C706     1.0000 0.83925  0.04712  0.79166  Biso   1.000  C
  C707     1.0000 0.93326  0.14324  0.76239  Biso   1.000  C
  C708     1.0000 0.93318  0.14324  0.76239  Biso   1.000  C
  H808     1.0000 0.82517  0.78263  0.72976  Biso   1.000  H
  C709     1.0000 0.85337  0.81135  0.82735  Biso   1.000  C
  C710     1.0000 0.85331  0.81130  0.82735  Biso   1.000  C
  H809     1.0000 0.98678  0.78555  0.77993  Biso   1.000  H
  C711     1.0000 0.95090  0.81451  0.85626  Biso   1.000  C
  C712     1.0000 0.95086  0.81451  0.85626  Biso   1.000  C
  H810     1.0000 0.34590  0.28454  0.47762  Biso   1.000  H
  H811     1.0000 0.35673  0.35293  0.49612  Biso   1.000  H
  H812     1.0000 0.34586  0.28454  0.47762  Biso   1.000  H
  H813     1.0000 0.25140  0.12626  0.64415  Biso   1.000  H
  C713     1.0000 0.22080  0.12673  0.74434  Biso   1.000  C
  H814     1.0000 0.25130  0.12621  0.64415  Biso   1.000  H
  C714     1.0000 0.22076  0.12673  0.74434  Biso   1.000  C
  C715     1.0000 0.86367  0.04915  0.85626  Biso   1.000  C
  H815     1.0000 0.79875  0.01326  0.77993  Biso   1.000  H
  H816     1.0000 0.79881  0.01321  0.77993  Biso   1.000  H
  H817     1.0000 0.79873  0.01321  0.77993  Biso   1.000  H
  C716     1.0000 0.95802  0.14668  0.82735  Biso   1.000  C
  H818     1.0000 0.95743  0.17484  0.72976  Biso   1.000  H
  C717     1.0000 0.90115  0.82366  0.87395  Biso   1.000  C
  C718     1.0000 0.79935  0.82003  0.84387  Biso   1.000  C
  C719     1.0000 0.90111  0.82366  0.87395  Biso   1.000  C
  C720     1.0000 0.79931  0.82003  0.84387  Biso   1.000  C
  C721     1.0000 0.00251  0.83074  0.90603  Biso   1.000  C
  C722     1.0000 0.00247  0.83074  0.90603  Biso   1.000  C
  C723     1.0000 0.21003  0.06679  0.76239  Biso   1.000  C
  C724     1.0000 0.20793  0.16078  0.79166  Biso   1.000  C
  C725     1.0000 0.20789  0.16078  0.79166  Biso   1.000  C
  C726     1.0000 0.82829  0.99751  0.90603  Biso   1.000  C
  C727     1.0000 0.82825  0.99751  0.90603  Biso   1.000  C
  C728     1.0000 0.92253  0.09891  0.87395  Biso   1.000  C
  C729     1.0000 0.92249  0.09891  0.87395  Biso   1.000  C
  C730     1.0000 0.02067  0.20068  0.84387  Biso   1.000  C
  H819     1.0000 0.89959  0.83842  0.91826  Biso   1.000  H
  H820     1.0000 0.89954  0.83842  0.91826  Biso   1.000  H
  H821     1.0000 0.77077  0.81484  0.80833  Biso   1.000  H
  N116     1.0000 0.78908  0.83390  0.90251  Biso   1.000  N
  N117     1.0000 0.78904  0.83390  0.90251  Biso   1.000  N
  H822     1.0000 0.99771  0.84073  0.95166  Biso   1.000  H
  H823     1.0000 0.99767  0.84073  0.95166  Biso   1.000  H
  N118     1.0000 0.05166  0.83149  0.88935  Biso   1.000  N
  N119     1.0000 0.05159  0.83144  0.88935  Biso   1.000  N
  C731     1.0000 0.18866  0.04203  0.82735  Biso   1.000  C
  H824     1.0000 0.21739  0.04255  0.72976  Biso   1.000  H
  C732     1.0000 0.18550  0.13635  0.85626  Biso   1.000  C
  H825     1.0000 0.21444  0.20125  0.77993  Biso   1.000  H
  N120     1.0000 0.77989  0.94841  0.88935  Biso   1.000  N
  N121     1.0000 0.77982  0.94836  0.88935  Biso   1.000  N
  H826     1.0000 0.84303  0.00232  0.95166  Biso   1.000  H
  H827     1.0000 0.93884  0.10042  0.91826  Biso   1.000  H
  H828     1.0000 0.93880  0.10042  0.91826  Biso   1.000  H
  H829     1.0000 0.04405  0.22922  0.80833  Biso   1.000  H
  N122     1.0000 0.04485  0.21097  0.90251  Biso   1.000  N
  C733     1.0000 0.73148  0.83616  0.91266  Biso   1.000  C
  C734     1.0000 0.09983  0.84583  0.94070  Biso   1.000  C
  C735     1.0000 0.09979  0.84583  0.94070  Biso   1.000  C
  C736     1.0000 0.18001  0.97930  0.84387  Biso   1.000  C
  C737     1.0000 0.17997  0.97930  0.84387  Biso   1.000  C
  C738     1.0000 0.17635  0.07745  0.87395  Biso   1.000  C
  C739     1.0000 0.16929  0.17173  0.90603  Biso   1.000  C
  C740     1.0000 0.16925  0.17173  0.90603  Biso   1.000  C
  C741     1.0000 0.74606  0.90021  0.94070  Biso   1.000  C
  C742     1.0000 0.74600  0.90016  0.94070  Biso   1.000  C
  C743     1.0000 0.10470  0.26851  0.91266  Biso   1.000  C
  C744     1.0000 0.10466  0.26851  0.91266  Biso   1.000  C
  C745     1.0000 0.68687  0.78305  0.95895  Biso   1.000  C
  H830     1.0000 0.71049  0.83012  0.86733  Biso   1.000  H
  C746     1.0000 0.68683  0.78305  0.95895  Biso   1.000  C
  H831     1.0000 0.71045  0.83012  0.86733  Biso   1.000  H
  C747     1.0000 0.09834  0.78419  0.95900  Biso   1.000  C
  C748     1.0000 0.16389  0.89535  0.91266  Biso   1.000  C
  H832     1.0000 0.09001  0.86295  0.98226  Biso   1.000  H
  C749     1.0000 0.16382  0.89530  0.91266  Biso   1.000  C
  H833     1.0000 0.08997  0.86295  0.98226  Biso   1.000  H
  N123     1.0000 0.16614  0.95515  0.90251  Biso   1.000  N
  N124     1.0000 0.16609  0.95515  0.90251  Biso   1.000  N
  H834     1.0000 0.18520  0.95595  0.80833  Biso   1.000  H
  H835     1.0000 0.18516  0.95595  0.80833  Biso   1.000  H
  H836     1.0000 0.16153  0.06113  0.91826  Biso   1.000  H
  H837     1.0000 0.15927  0.15692  0.95166  Biso   1.000  H
  N125     1.0000 0.16851  0.22016  0.88935  Biso   1.000  N
  C750     1.0000 0.68590  0.90167  0.95900  Biso   1.000  C
  H838     1.0000 0.77298  0.91002  0.98226  Biso   1.000  H
  C751     1.0000 0.68585  0.90167  0.95900  Biso   1.000  C
  H839     1.0000 0.77294  0.91002  0.98226  Biso   1.000  H
  C752     1.0000 0.15413  0.25398  0.94070  Biso   1.000  C
  C753     1.0000 0.09624  0.31317  0.95895  Biso   1.000  C
  H840     1.0000 0.11967  0.28954  0.86733  Biso   1.000  H
  C754     1.0000 0.09621  0.31312  0.95895  Biso   1.000  C
  H841     1.0000 0.67739  0.74212  0.93886  Biso   1.000  H
  C755     1.0000 0.62528  0.78395  0.96905  Biso   1.000  C
  H842     1.0000 0.67735  0.74212  0.93886  Biso   1.000  H
  C756     1.0000 0.62524  0.78395  0.96905  Biso   1.000  C
  H843     1.0000 0.70728  0.78735  0.00377  Biso   1.000  H
  H844     1.0000 0.09647  0.76183  0.91622  Biso   1.000  H
  H845     1.0000 0.05927  0.75702  0.98496  Biso   1.000  H
  C757     1.0000 0.15399  0.79249  0.00051  Biso   1.000  C
  C758     1.0000 0.21696  0.90379  0.95895  Biso   1.000  C
  H846     1.0000 0.16991  0.88035  0.86733  Biso   1.000  H
  C759     1.0000 0.21692  0.90379  0.95895  Biso   1.000  C
  H847     1.0000 0.16987  0.88035  0.86733  Biso   1.000  H
  C760     1.0000 0.63855  0.84602  0.00051  Biso   1.000  C
  C761     1.0000 0.63850  0.84602  0.00051  Biso   1.000  C
  H848     1.0000 0.66540  0.90356  0.91622  Biso   1.000  H
  H849     1.0000 0.69778  0.94072  0.98496  Biso   1.000  H
  H850     1.0000 0.69774  0.94072  0.98496  Biso   1.000  H
  C762     1.0000 0.21583  0.31416  0.95900  Biso   1.000  C
  H851     1.0000 0.13711  0.22705  0.98226  Biso   1.000  H
  H852     1.0000 0.13707  0.22705  0.98226  Biso   1.000  H
  H853     1.0000 0.06475  0.32265  0.93886  Biso   1.000  H
  C763     1.0000 0.15873  0.37476  0.96905  Biso   1.000  C
  C764     1.0000 0.15869  0.37476  0.96905  Biso   1.000  C
  H854     1.0000 0.08006  0.29275  0.00377  Biso   1.000  H
  H855     1.0000 0.08002  0.29275  0.00377  Biso   1.000  H
  H856     1.0000 0.59667  0.74862  0.99924  Biso   1.000  H
  H857     1.0000 0.60409  0.77824  0.92454  Biso   1.000  H
  C765     1.0000 0.21606  0.84130  0.96905  Biso   1.000  C
  H858     1.0000 0.15090  0.80574  0.04737  Biso   1.000  H
  H859     1.0000 0.15297  0.75164  0.00357  Biso   1.000  H
  H860     1.0000 0.15086  0.80574  0.04737  Biso   1.000  H
  H861     1.0000 0.25789  0.93525  0.93886  Biso   1.000  H
  H862     1.0000 0.21269  0.91992  0.00377  Biso   1.000  H
  H863     1.0000 0.21265  0.91992  0.00377  Biso   1.000  H
  H864     1.0000 0.65489  0.84913  0.04737  Biso   1.000  H
  H865     1.0000 0.59871  0.84705  0.00357  Biso   1.000  H
  H866     1.0000 0.65485  0.84913  0.04737  Biso   1.000  H
  H867     1.0000 0.59867  0.84705  0.00357  Biso   1.000  H
  H868     1.0000 0.23816  0.33463  0.91622  Biso   1.000  H
  H869     1.0000 0.24299  0.30223  0.98496  Biso   1.000  H
  H870     1.0000 0.24291  0.30223  0.98496  Biso   1.000  H
  C766     1.0000 0.20747  0.36146  0.00051  Biso   1.000  C
  H871     1.0000 0.15194  0.40335  0.99924  Biso   1.000  H
  H872     1.0000 0.17418  0.39594  0.92454  Biso   1.000  H
  H873     1.0000 0.25141  0.84804  0.99924  Biso   1.000  H
  H874     1.0000 0.22180  0.82583  0.92454  Biso   1.000  H
  H875     1.0000 0.25137  0.84804  0.99924  Biso   1.000  H
  H876     1.0000 0.22176  0.82583  0.92454  Biso   1.000  H
  H877     1.0000 0.24835  0.40132  0.00357  Biso   1.000  H
  H878     1.0000 0.19428  0.34515  0.04737  Biso   1.000  H
  C767     1.0000 0.94960  0.93869  0.58551  Biso   1.000  C
  C768     1.0000 0.01119  0.94940  0.58480  Biso   1.000  C
  C769     1.0000 0.93823  0.98883  0.58480  Biso   1.000  C
  H879     1.0000 0.91508  0.89662  0.58653  Biso   1.000  H
  C770     1.0000 0.93821  0.98878  0.58480  Biso   1.000  C
  H880     1.0000 0.91504  0.89662  0.58653  Biso   1.000  H
  C771     1.0000 0.02442  0.89719  0.57715  Biso   1.000  C
  C772     1.0000 0.02438  0.89719  0.57715  Biso   1.000  C
  C773     1.0000 0.94964  0.93869  0.58551  Biso   1.000  C
  C774     1.0000 0.06129  0.01095  0.58551  Biso   1.000  C
  C775     1.0000 0.98906  0.05038  0.58551  Biso   1.000  C
  C776     1.0000 0.87281  0.97562  0.57715  Biso   1.000  C
  N126     1.0000 0.98383  0.84451  0.55364  Biso   1.000  N
  H881     1.0000 0.06461  0.90356  0.59035  Biso   1.000  H
  H882     1.0000 0.06457  0.90356  0.59035  Biso   1.000  H
  C777     1.0000 0.05056  0.06179  0.58480  Biso   1.000  C
  H883     1.0000 0.10335  0.01845  0.58653  Biso   1.000  H
  H884     1.0000 0.98159  0.08495  0.58653  Biso   1.000  H
  H885     1.0000 0.98151  0.08495  0.58653  Biso   1.000  H
  H886     1.0000 0.83900  0.93544  0.59035  Biso   1.000  H
  H887     1.0000 0.83896  0.93544  0.59035  Biso   1.000  H
  N127     1.0000 0.86070  0.01618  0.55364  Biso   1.000  N
  N128     1.0000 0.86066  0.01618  0.55364  Biso   1.000  N
  C778     1.0000 0.00275  0.79659  0.54564  Biso   1.000  C
  C779     1.0000 0.10279  0.12720  0.57715  Biso   1.000  C
  C780     1.0000 0.10275  0.12720  0.57715  Biso   1.000  C
  C781     1.0000 0.79386  0.99727  0.54564  Biso   1.000  C
  C782     1.0000 0.95465  0.73608  0.58235  Biso   1.000  C
  C783     1.0000 0.95461  0.73608  0.58235  Biso   1.000  C
  C784     1.0000 0.00643  0.78433  0.46987  Biso   1.000  C
  C785     1.0000 0.00639  0.78433  0.46987  Biso   1.000  C
  H888     1.0000 0.04527  0.81244  0.56674  Biso   1.000  H
  H889     1.0000 0.09650  0.16102  0.59035  Biso   1.000  H
  N129     1.0000 0.15554  0.13933  0.55364  Biso   1.000  N
  H890     1.0000 0.09646  0.16102  0.59035  Biso   1.000  H
  N130     1.0000 0.15546  0.13933  0.55364  Biso   1.000  N
  C786     1.0000 0.78144  0.04538  0.58235  Biso   1.000  C
  H891     1.0000 0.76720  0.95473  0.56674  Biso   1.000  H
  C787     1.0000 0.77795  0.99364  0.46987  Biso   1.000  C
  H892     1.0000 0.76716  0.95473  0.56674  Biso   1.000  H
  C788     1.0000 0.77793  0.99359  0.46987  Biso   1.000  C
  C789     1.0000 0.97473  0.68646  0.57419  Biso   1.000  C
  C790     1.0000 0.97469  0.68646  0.57419  Biso   1.000  C
  N131     1.0000 0.95432  0.75127  0.65414  Biso   1.000  N
  H893     1.0000 0.91168  0.72014  0.56226  Biso   1.000  H
  C791     1.0000 0.02584  0.73353  0.46104  Biso   1.000  C
  C792     1.0000 0.02579  0.73353  0.46104  Biso   1.000  C
  H894     1.0000 0.96488  0.76985  0.44825  Biso   1.000  H
  H895     1.0000 0.03771  0.82385  0.44723  Biso   1.000  H
  H896     1.0000 0.03767  0.82385  0.44723  Biso   1.000  H
  C793     1.0000 0.20341  0.20616  0.54564  Biso   1.000  C
  C794     1.0000 0.20337  0.20616  0.54564  Biso   1.000  C
  N132     1.0000 0.79700  0.04571  0.65414  Biso   1.000  N
  C795     1.0000 0.71178  0.02533  0.57419  Biso   1.000  C
  H897     1.0000 0.80848  0.08834  0.56226  Biso   1.000  H
  N133     1.0000 0.79692  0.04571  0.65414  Biso   1.000  N
  C796     1.0000 0.71168  0.02528  0.57419  Biso   1.000  C
  H898     1.0000 0.78619  0.96232  0.44723  Biso   1.000  H
  C797     1.0000 0.70775  0.97421  0.46104  Biso   1.000  C
  H899     1.0000 0.78615  0.96232  0.44723  Biso   1.000  H
  C798     1.0000 0.70771  0.97421  0.46104  Biso   1.000  C
  H900     1.0000 0.80499  0.03514  0.44825  Biso   1.000  H
  H901     1.0000 0.80491  0.03514  0.44825  Biso   1.000  H
  C799     1.0000 0.98082  0.67363  0.49934  Biso   1.000  C
  H902     1.0000 0.94319  0.64675  0.59642  Biso   1.000  H
  H903     1.0000 0.01569  0.70122  0.59734  Biso   1.000  H
  H904     1.0000 0.01565  0.70122  0.59734  Biso   1.000  H
  C800     1.0000 0.90850  0.75782  0.67469  Biso   1.000  C
  H905     1.0000 0.06921  0.74994  0.47843  Biso   1.000  H
  H906     1.0000 0.02559  0.72382  0.41194  Biso   1.000  H
  H907     1.0000 0.06917  0.74994  0.47843  Biso   1.000  H
  H908     1.0000 0.02555  0.72382  0.41194  Biso   1.000  H
  H909     1.0000 0.18756  0.23285  0.56674  Biso   1.000  H
  C801     1.0000 0.21567  0.22210  0.46987  Biso   1.000  C
  C802     1.0000 0.26390  0.21856  0.58235  Biso   1.000  C
  H910     1.0000 0.18752  0.23285  0.56674  Biso   1.000  H
  C803     1.0000 0.21565  0.22205  0.46987  Biso   1.000  C
  C804     1.0000 0.84935  0.09150  0.67469  Biso   1.000  C
  C805     1.0000 0.69283  0.01920  0.49934  Biso   1.000  C
  H911     1.0000 0.68561  0.98435  0.59734  Biso   1.000  H
  H912     1.0000 0.68557  0.98435  0.59734  Biso   1.000  H
  H913     1.0000 0.70356  0.05684  0.59642  Biso   1.000  H
  H914     1.0000 0.70352  0.05684  0.59642  Biso   1.000  H
  H915     1.0000 0.68078  0.93082  0.47843  Biso   1.000  H
  H916     1.0000 0.69831  0.97444  0.41194  Biso   1.000  H
  H917     1.0000 0.68074  0.93082  0.47843  Biso   1.000  H
  H918     1.0000 0.69827  0.97444  0.41194  Biso   1.000  H
  H919     1.0000 0.93869  0.65416  0.47762  Biso   1.000  H
  H920     1.0000 0.99622  0.64326  0.49612  Biso   1.000  H
  H921     1.0000 0.99616  0.64321  0.49612  Biso   1.000  H
  H922     1.0000 0.87486  0.74862  0.64415  Biso   1.000  H
  C806     1.0000 0.90602  0.77923  0.74434  Biso   1.000  C
  C807     1.0000 0.90597  0.77923  0.74434  Biso   1.000  C
  H923     1.0000 0.23016  0.19503  0.44825  Biso   1.000  H
  H924     1.0000 0.17617  0.21384  0.44723  Biso   1.000  H
  C808     1.0000 0.26649  0.29228  0.46104  Biso   1.000  C
  N134     1.0000 0.24871  0.20304  0.65414  Biso   1.000  N
  C809     1.0000 0.31358  0.28827  0.57419  Biso   1.000  C
  H925     1.0000 0.27983  0.19154  0.56226  Biso   1.000  H
  H926     1.0000 0.87380  0.12513  0.64415  Biso   1.000  H
  C810     1.0000 0.87325  0.09405  0.74434  Biso   1.000  C
  H927     1.0000 0.87376  0.12513  0.64415  Biso   1.000  H
  C811     1.0000 0.87323  0.09400  0.74434  Biso   1.000  C
  H928     1.0000 0.71544  0.06132  0.47762  Biso   1.000  H
  H929     1.0000 0.64707  0.00382  0.49612  Biso   1.000  H
  C812     1.0000 0.85678  0.78999  0.76239  Biso   1.000  C
  C813     1.0000 0.95289  0.79211  0.79166  Biso   1.000  C
  H930     1.0000 0.27617  0.30176  0.41194  Biso   1.000  H
  C814     1.0000 0.32634  0.30718  0.49934  Biso   1.000  C
  H931     1.0000 0.25008  0.31925  0.47843  Biso   1.000  H
  C815     1.0000 0.24218  0.15069  0.67469  Biso   1.000  C
  H932     1.0000 0.29877  0.31444  0.59734  Biso   1.000  H
  H933     1.0000 0.35327  0.29643  0.59642  Biso   1.000  H
  C816     1.0000 0.83925  0.04712  0.79166  Biso   1.000  C
  C817     1.0000 0.93326  0.14324  0.76239  Biso   1.000  C
  C818     1.0000 0.93318  0.14324  0.76239  Biso   1.000  C
  H934     1.0000 0.82517  0.78263  0.72976  Biso   1.000  H
  C819     1.0000 0.85337  0.81135  0.82735  Biso   1.000  C
  C820     1.0000 0.85331  0.81130  0.82735  Biso   1.000  C
  H935     1.0000 0.98678  0.78555  0.77993  Biso   1.000  H
  C821     1.0000 0.95090  0.81451  0.85626  Biso   1.000  C
  C822     1.0000 0.95086  0.81451  0.85626  Biso   1.000  C
  H936     1.0000 0.34590  0.28454  0.47762  Biso   1.000  H
  H937     1.0000 0.35673  0.35293  0.49612  Biso   1.000  H
  H938     1.0000 0.34586  0.28454  0.47762  Biso   1.000  H
  H939     1.0000 0.25140  0.12626  0.64415  Biso   1.000  H
  C823     1.0000 0.22080  0.12673  0.74434  Biso   1.000  C
  H940     1.0000 0.25130  0.12621  0.64415  Biso   1.000  H
  C824     1.0000 0.22076  0.12673  0.74434  Biso   1.000  C
  C825     1.0000 0.86367  0.04915  0.85626  Biso   1.000  C
  H941     1.0000 0.79875  0.01326  0.77993  Biso   1.000  H
  H942     1.0000 0.79881  0.01321  0.77993  Biso   1.000  H
  H943     1.0000 0.79873  0.01321  0.77993  Biso   1.000  H
  C826     1.0000 0.95802  0.14668  0.82735  Biso   1.000  C
  H944     1.0000 0.95743  0.17484  0.72976  Biso   1.000  H
  C827     1.0000 0.90115  0.82366  0.87395  Biso   1.000  C
  C828     1.0000 0.79935  0.82003  0.84387  Biso   1.000  C
  C829     1.0000 0.90111  0.82366  0.87395  Biso   1.000  C
  C830     1.0000 0.79931  0.82003  0.84387  Biso   1.000  C
  C831     1.0000 0.00251  0.83074  0.90603  Biso   1.000  C
  C832     1.0000 0.00247  0.83074  0.90603  Biso   1.000  C
  C833     1.0000 0.21003  0.06679  0.76239  Biso   1.000  C
  C834     1.0000 0.20793  0.16078  0.79166  Biso   1.000  C
  C835     1.0000 0.20789  0.16078  0.79166  Biso   1.000  C
  C836     1.0000 0.82829  0.99751  0.90603  Biso   1.000  C
  C837     1.0000 0.82825  0.99751  0.90603  Biso   1.000  C
  C838     1.0000 0.92253  0.09891  0.87395  Biso   1.000  C
  C839     1.0000 0.92249  0.09891  0.87395  Biso   1.000  C
  C840     1.0000 0.02067  0.20068  0.84387  Biso   1.000  C
  H945     1.0000 0.89959  0.83842  0.91826  Biso   1.000  H
  H946     1.0000 0.89954  0.83842  0.91826  Biso   1.000  H
  H947     1.0000 0.77077  0.81484  0.80833  Biso   1.000  H
  N135     1.0000 0.78908  0.83390  0.90251  Biso   1.000  N
  N136     1.0000 0.78904  0.83390  0.90251  Biso   1.000  N
  H948     1.0000 0.99771  0.84073  0.95166  Biso   1.000  H
  H949     1.0000 0.99767  0.84073  0.95166  Biso   1.000  H
  N137     1.0000 0.05166  0.83149  0.88935  Biso   1.000  N
  N138     1.0000 0.05159  0.83144  0.88935  Biso   1.000  N
  C841     1.0000 0.18866  0.04203  0.82735  Biso   1.000  C
  H950     1.0000 0.21739  0.04255  0.72976  Biso   1.000  H
  C842     1.0000 0.18550  0.13635  0.85626  Biso   1.000  C
  H951     1.0000 0.21444  0.20125  0.77993  Biso   1.000  H
  N139     1.0000 0.77989  0.94841  0.88935  Biso   1.000  N
  N140     1.0000 0.77982  0.94836  0.88935  Biso   1.000  N
  H952     1.0000 0.84303  0.00232  0.95166  Biso   1.000  H
  H953     1.0000 0.93884  0.10042  0.91826  Biso   1.000  H
  H954     1.0000 0.93880  0.10042  0.91826  Biso   1.000  H
  H955     1.0000 0.04405  0.22922  0.80833  Biso   1.000  H
  N141     1.0000 0.04485  0.21097  0.90251  Biso   1.000  N
  C843     1.0000 0.73148  0.83616  0.91266  Biso   1.000  C
  C844     1.0000 0.09983  0.84583  0.94070  Biso   1.000  C
  C845     1.0000 0.09979  0.84583  0.94070  Biso   1.000  C
  C846     1.0000 0.18001  0.97930  0.84387  Biso   1.000  C
  C847     1.0000 0.17997  0.97930  0.84387  Biso   1.000  C
  C848     1.0000 0.17635  0.07745  0.87395  Biso   1.000  C
  C849     1.0000 0.16929  0.17173  0.90603  Biso   1.000  C
  C850     1.0000 0.16925  0.17173  0.90603  Biso   1.000  C
  C851     1.0000 0.74606  0.90021  0.94070  Biso   1.000  C
  C852     1.0000 0.74600  0.90016  0.94070  Biso   1.000  C
  C853     1.0000 0.10470  0.26851  0.91266  Biso   1.000  C
  C854     1.0000 0.10466  0.26851  0.91266  Biso   1.000  C
  C855     1.0000 0.68687  0.78305  0.95895  Biso   1.000  C
  H956     1.0000 0.71049  0.83012  0.86733  Biso   1.000  H
  C856     1.0000 0.68683  0.78305  0.95895  Biso   1.000  C
  H957     1.0000 0.71045  0.83012  0.86733  Biso   1.000  H
  C857     1.0000 0.09834  0.78419  0.95900  Biso   1.000  C
  C858     1.0000 0.16389  0.89535  0.91266  Biso   1.000  C
  H958     1.0000 0.09001  0.86295  0.98226  Biso   1.000  H
  C859     1.0000 0.16382  0.89530  0.91266  Biso   1.000  C
  H959     1.0000 0.08997  0.86295  0.98226  Biso   1.000  H
  N142     1.0000 0.16614  0.95515  0.90251  Biso   1.000  N
  N143     1.0000 0.16609  0.95515  0.90251  Biso   1.000  N
  H960     1.0000 0.18520  0.95595  0.80833  Biso   1.000  H
  H961     1.0000 0.18516  0.95595  0.80833  Biso   1.000  H
  H962     1.0000 0.16153  0.06113  0.91826  Biso   1.000  H
  H963     1.0000 0.15927  0.15692  0.95166  Biso   1.000  H
  N144     1.0000 0.16851  0.22016  0.88935  Biso   1.000  N
  C860     1.0000 0.68590  0.90167  0.95900  Biso   1.000  C
  H964     1.0000 0.77298  0.91002  0.98226  Biso   1.000  H
  C861     1.0000 0.68585  0.90167  0.95900  Biso   1.000  C
  H965     1.0000 0.77294  0.91002  0.98226  Biso   1.000  H
  C862     1.0000 0.15413  0.25398  0.94070  Biso   1.000  C
  C863     1.0000 0.09624  0.31317  0.95895  Biso   1.000  C
  H966     1.0000 0.11967  0.28954  0.86733  Biso   1.000  H
  C864     1.0000 0.09621  0.31312  0.95895  Biso   1.000  C
  H967     1.0000 0.67739  0.74212  0.93886  Biso   1.000  H
  C865     1.0000 0.62528  0.78395  0.96905  Biso   1.000  C
  H968     1.0000 0.67735  0.74212  0.93886  Biso   1.000  H
  C866     1.0000 0.62524  0.78395  0.96905  Biso   1.000  C
  H969     1.0000 0.70728  0.78735  0.00377  Biso   1.000  H
  H970     1.0000 0.09647  0.76183  0.91622  Biso   1.000  H
  H971     1.0000 0.05927  0.75702  0.98496  Biso   1.000  H
  C867     1.0000 0.15399  0.79249  0.00051  Biso   1.000  C
  C868     1.0000 0.21696  0.90379  0.95895  Biso   1.000  C
  H972     1.0000 0.16991  0.88035  0.86733  Biso   1.000  H
  C869     1.0000 0.21692  0.90379  0.95895  Biso   1.000  C
  H973     1.0000 0.16987  0.88035  0.86733  Biso   1.000  H
  C870     1.0000 0.63855  0.84602  0.00051  Biso   1.000  C
  C871     1.0000 0.63850  0.84602  0.00051  Biso   1.000  C
  H974     1.0000 0.66540  0.90356  0.91622  Biso   1.000  H
  H975     1.0000 0.69778  0.94072  0.98496  Biso   1.000  H
  H976     1.0000 0.69774  0.94072  0.98496  Biso   1.000  H
  C872     1.0000 0.21583  0.31416  0.95900  Biso   1.000  C
  H977     1.0000 0.13711  0.22705  0.98226  Biso   1.000  H
  H978     1.0000 0.13707  0.22705  0.98226  Biso   1.000  H
  H979     1.0000 0.06475  0.32265  0.93886  Biso   1.000  H
  C873     1.0000 0.15873  0.37476  0.96905  Biso   1.000  C
  C874     1.0000 0.15869  0.37476  0.96905  Biso   1.000  C
  H980     1.0000 0.08006  0.29275  0.00377  Biso   1.000  H
  H981     1.0000 0.08002  0.29275  0.00377  Biso   1.000  H
  H982     1.0000 0.59667  0.74862  0.99924  Biso   1.000  H
  H983     1.0000 0.60409  0.77824  0.92454  Biso   1.000  H
  C875     1.0000 0.21606  0.84130  0.96905  Biso   1.000  C
  H984     1.0000 0.15090  0.80574  0.04737  Biso   1.000  H
  H985     1.0000 0.15297  0.75164  0.00357  Biso   1.000  H
  H986     1.0000 0.15086  0.80574  0.04737  Biso   1.000  H
  H987     1.0000 0.25789  0.93525  0.93886  Biso   1.000  H
  H988     1.0000 0.21269  0.91992  0.00377  Biso   1.000  H
  H989     1.0000 0.21265  0.91992  0.00377  Biso   1.000  H
  H990     1.0000 0.65489  0.84913  0.04737  Biso   1.000  H
  H991     1.0000 0.59871  0.84705  0.00357  Biso   1.000  H
  H992     1.0000 0.65485  0.84913  0.04737  Biso   1.000  H
  H993     1.0000 0.59867  0.84705  0.00357  Biso   1.000  H
  H994     1.0000 0.23816  0.33463  0.91622  Biso   1.000  H
  H995     1.0000 0.24299  0.30223  0.98496  Biso   1.000  H
  H996     1.0000 0.24291  0.30223  0.98496  Biso   1.000  H
  C876     1.0000 0.20747  0.36146  0.00051  Biso   1.000  C
  H997     1.0000 0.15194  0.40335  0.99924  Biso   1.000  H
  H998     1.0000 0.17418  0.39594  0.92454  Biso   1.000  H
  H999     1.0000 0.25141  0.84804  0.99924  Biso   1.000  H
  H1000    1.0000 0.22180  0.82583  0.92454  Biso   1.000  H
  H1001    1.0000 0.25137  0.84804  0.99924  Biso   1.000  H
  H1002    1.0000 0.22176  0.82583  0.92454  Biso   1.000  H
  H1003    1.0000 0.24835  0.40132  0.00357  Biso   1.000  H
  H1004    1.0000 0.19428  0.34515  0.04737  Biso   1.000  H
  C877     1.0000 0.69480  0.82064  0.66617  Biso   1.000  C
  C878     1.0000 0.64745  0.76499  0.70768  Biso   1.000  C
  C879     1.0000 0.70807  0.88271  0.69763  Biso   1.000  C
  H1005    1.0000 0.67846  0.81753  0.61937  Biso   1.000  H
  H1006    1.0000 0.73466  0.81965  0.66317  Biso   1.000  H
  C880     1.0000 0.58731  0.76650  0.72598  Biso   1.000  C
  H1007    1.0000 0.66798  0.76315  0.75046  Biso   1.000  H
  H1008    1.0000 0.63557  0.72594  0.68173  Biso   1.000  H
  C881     1.0000 0.64648  0.88361  0.70773  Biso   1.000  C
  H1009    1.0000 0.73668  0.91803  0.66745  Biso   1.000  H
  H1010    1.0000 0.72926  0.88842  0.74215  Biso   1.000  H
  N145     1.0000 0.55349  0.71830  0.77733  Biso   1.000  N
  C882     1.0000 0.60187  0.83050  0.75403  Biso   1.000  C
  H1011    1.0000 0.56037  0.75664  0.68443  Biso   1.000  H
  H1012    1.0000 0.65596  0.92454  0.72782  Biso   1.000  H
  H1013    1.0000 0.62607  0.87931  0.66296  Biso   1.000  H
  C883     1.0000 0.50506  0.66915  0.76066  Biso   1.000  C
  N146     1.0000 0.54427  0.83276  0.76417  Biso   1.000  N
  H1014    1.0000 0.62286  0.83654  0.79936  Biso   1.000  H
  C884     1.0000 0.46968  0.61751  0.81042  Biso   1.000  C
  H1015    1.0000 0.49028  0.66434  0.71502  Biso   1.000  H
  C885     1.0000 0.53403  0.84668  0.82281  Biso   1.000  C
  C886     1.0000 0.41080  0.56780  0.79273  Biso   1.000  C
  C887     1.0000 0.49410  0.61954  0.87503  Biso   1.000  C
  C888     1.0000 0.48000  0.85535  0.83938  Biso   1.000  C
  H1016    1.0000 0.56257  0.85182  0.85835  Biso   1.000  H
  C889     1.0000 0.37536  0.52002  0.83938  Biso   1.000  C
  H1017    1.0000 0.39446  0.56624  0.74842  Biso   1.000  H
  C890     1.0000 0.46008  0.57266  0.92234  Biso   1.000  C
  H1018    1.0000 0.53458  0.65345  0.88675  Biso   1.000  H
  C891     1.0000 0.43220  0.84300  0.79273  Biso   1.000  C
  C892     1.0000 0.47657  0.87667  0.90429  Biso   1.000  C
  C893     1.0000 0.31263  0.46597  0.82281  Biso   1.000  C
  C894     1.0000 0.40009  0.52342  0.90429  Biso   1.000  C
  C895     1.0000 0.48400  0.57516  0.99199  Biso   1.000  C
  C896     1.0000 0.38245  0.85215  0.81042  Biso   1.000  C
  H1019    1.0000 0.43376  0.82824  0.74842  Biso   1.000  H
  C897     1.0000 0.42733  0.88743  0.92234  Biso   1.000  C
  H1020    1.0000 0.50818  0.88403  0.93693  Biso   1.000  H
  N147     1.0000 0.28850  0.45569  0.76417  Biso   1.000  N
  H1021    1.0000 0.28926  0.43744  0.85835  Biso   1.000  H
  H1022    1.0000 0.37588  0.49182  0.93693  Biso   1.000  H
  N148     1.0000 0.53637  0.62100  0.01254  Biso   1.000  N
  H1023    1.0000 0.45955  0.54153  0.02254  Biso   1.000  H
  C898     1.0000 0.33084  0.83592  0.76066  Biso   1.000  C
  C899     1.0000 0.38046  0.87455  0.87503  Biso   1.000  C
  C900     1.0000 0.42485  0.90884  0.99199  Biso   1.000  C
  C901     1.0000 0.22865  0.39815  0.75403  Biso   1.000  C
  C902     1.0000 0.55187  0.62128  0.08439  Biso   1.000  C
  N149     1.0000 0.28172  0.83522  0.77733  Biso   1.000  N
  H1024    1.0000 0.33564  0.82592  0.71502  Biso   1.000  H
  H1025    1.0000 0.34659  0.88115  0.88675  Biso   1.000  H
  N150     1.0000 0.37903  0.91539  0.01254  Biso   1.000  N
  H1026    1.0000 0.45849  0.91803  0.02254  Biso   1.000  H
  C903     1.0000 0.17918  0.41268  0.72598  Biso   1.000  C
  C904     1.0000 0.23714  0.35354  0.70773  Biso   1.000  C
  H1027    1.0000 0.21368  0.37712  0.79936  Biso   1.000  H
  C905     1.0000 0.53949  0.66939  0.12105  Biso   1.000  C
  C906     1.0000 0.62159  0.64137  0.09249  Biso   1.000  C
  H1028    1.0000 0.52487  0.57832  0.10443  Biso   1.000  H
  C907     1.0000 0.23352  0.82083  0.72598  Biso   1.000  C
  C908     1.0000 0.37870  0.93058  0.08439  Biso   1.000  C
  C909     1.0000 0.11754  0.35255  0.70768  Biso   1.000  C
  N151     1.0000 0.16480  0.44650  0.77733  Biso   1.000  N
  H1029    1.0000 0.19626  0.43966  0.68443  Biso   1.000  H
  C910     1.0000 0.17464  0.29194  0.69763  Biso   1.000  C
  H1030    1.0000 0.26859  0.34406  0.72782  Biso   1.000  H
  H1031    1.0000 0.25325  0.37391  0.66296  Biso   1.000  H
  N152     1.0000 0.47265  0.65048  0.11309  Biso   1.000  N
  H1032    1.0000 0.56615  0.71193  0.09994  Biso   1.000  H
  C911     1.0000 0.55542  0.67307  0.19682  Biso   1.000  C
  C912     1.0000 0.64052  0.64746  0.16735  Biso   1.000  C
  H1033    1.0000 0.62975  0.60982  0.07026  Biso   1.000  H
  H1034    1.0000 0.64774  0.68231  0.06935  Biso   1.000  H
  C913     1.0000 0.16949  0.77136  0.75403  Biso   1.000  C
  C914     1.0000 0.23501  0.88247  0.70768  Biso   1.000  C
  H1035    1.0000 0.24334  0.80371  0.68443  Biso   1.000  H
  C915     1.0000 0.33062  0.87012  0.12105  Biso   1.000  C
  C916     1.0000 0.35864  0.98024  0.09249  Biso   1.000  C
  H1036    1.0000 0.42167  0.94652  0.10443  Biso   1.000  H
  C917     1.0000 0.12584  0.30519  0.66617  Biso   1.000  C
  H1037    1.0000 0.09515  0.33203  0.75046  Biso   1.000  H
  H1038    1.0000 0.09036  0.36443  0.68173  Biso   1.000  H
  C918     1.0000 0.16406  0.49493  0.76066  Biso   1.000  C
  H1039    1.0000 0.18136  0.26331  0.66745  Biso   1.000  H
  H1040    1.0000 0.15917  0.27072  0.74215  Biso   1.000  H
  C919     1.0000 0.46056  0.69108  0.08954  Biso   1.000  C
  H1041    1.0000 0.52836  0.63152  0.21844  Biso   1.000  H
  H1042    1.0000 0.54716  0.70434  0.21946  Biso   1.000  H
  C920     1.0000 0.62560  0.69245  0.20564  Biso   1.000  C
  H1043    1.0000 0.61787  0.60534  0.18907  Biso   1.000  H
  H1044    1.0000 0.68628  0.66283  0.17056  Biso   1.000  H
  N153     1.0000 0.16721  0.71151  0.76417  Biso   1.000  N
  C921     1.0000 0.11639  0.76287  0.70773  Biso   1.000  C
  H1045    1.0000 0.16347  0.78635  0.79936  Biso   1.000  H
  C922     1.0000 0.17936  0.87417  0.66617  Biso   1.000  C
  H1046    1.0000 0.23688  0.90483  0.75046  Biso   1.000  H
  H1047    1.0000 0.27408  0.90964  0.68173  Biso   1.000  H
  N154     1.0000 0.34952  0.82215  0.11309  Biso   1.000  N
  H1048    1.0000 0.28808  0.85422  0.09994  Biso   1.000  H
  C923     1.0000 0.32692  0.88233  0.19682  Biso   1.000  C
  C924     1.0000 0.35253  0.99302  0.16735  Biso   1.000  C
  H1049    1.0000 0.31766  0.96543  0.06935  Biso   1.000  H
  H1050    1.0000 0.39018  0.01995  0.07026  Biso   1.000  H
  H1051    1.0000 0.13907  0.32151  0.61937  Biso   1.000  H
  H1052    1.0000 0.08496  0.26534  0.66317  Biso   1.000  H
  C925     1.0000 0.14785  0.53030  0.81042  Biso   1.000  C
  H1053    1.0000 0.17408  0.50974  0.71502  Biso   1.000  H
  C926     1.0000 0.39514  0.67788  0.08194  Biso   1.000  C
  H1054    1.0000 0.49435  0.73122  0.07633  Biso   1.000  H
  H1055    1.0000 0.65257  0.73584  0.18825  Biso   1.000  H
  H1056    1.0000 0.63504  0.69222  0.25474  Biso   1.000  H
  C927     1.0000 0.15334  0.68736  0.82281  Biso   1.000  C
  H1057    1.0000 0.07549  0.73146  0.72782  Biso   1.000  H
  H1058    1.0000 0.12066  0.74674  0.66296  Biso   1.000  H
  C928     1.0000 0.11729  0.82536  0.69763  Biso   1.000  C
  H1059    1.0000 0.18245  0.86092  0.61937  Biso   1.000  H
  H1060    1.0000 0.18038  0.91502  0.66317  Biso   1.000  H
  C929     1.0000 0.30893  0.76947  0.08954  Biso   1.000  C
  H1061    1.0000 0.36847  0.89681  0.21844  Biso   1.000  H
  H1062    1.0000 0.29567  0.84286  0.21946  Biso   1.000  H
  C930     1.0000 0.30754  0.93317  0.20564  Biso   1.000  C
  H1063    1.0000 0.39469  0.01255  0.18907  Biso   1.000  H
  H1064    1.0000 0.33715  0.02344  0.17056  Biso   1.000  H
  C931     1.0000 0.15700  0.58921  0.79273  Biso   1.000  C
  C932     1.0000 0.12544  0.50592  0.87503  Biso   1.000  C
  C933     1.0000 0.34425  0.61628  0.08117  Biso   1.000  C
  C934     1.0000 0.38371  0.72797  0.08117  Biso   1.000  C
  C935     1.0000 0.14465  0.62463  0.83938  Biso   1.000  C
  H1065    1.0000 0.14817  0.71075  0.85835  Biso   1.000  H
  H1066    1.0000 0.08194  0.81861  0.66745  Biso   1.000  H
  H1067    1.0000 0.11155  0.84083  0.74215  Biso   1.000  H
  C936     1.0000 0.32216  0.71726  0.08194  Biso   1.000  C
  H1068    1.0000 0.26876  0.76315  0.07633  Biso   1.000  H
  H1069    1.0000 0.26414  0.91671  0.18825  Biso   1.000  H
  H1070    1.0000 0.30776  0.94284  0.25474  Biso   1.000  H
  H1071    1.0000 0.17178  0.60553  0.74842  Biso   1.000  H
  H1072    1.0000 0.11889  0.46546  0.88675  Biso   1.000  H
  C937     1.0000 0.11255  0.53993  0.92234  Biso   1.000  C
  C938     1.0000 0.28275  0.60487  0.08194  Biso   1.000  C
  H1073    1.0000 0.35176  0.58171  0.08016  Biso   1.000  H
  H1074    1.0000 0.41827  0.77004  0.08016  Biso   1.000  H
  C939     1.0000 0.12332  0.59987  0.90429  Biso   1.000  C
  C940     1.0000 0.27205  0.65576  0.08117  Biso   1.000  C
  C941     1.0000 0.09120  0.51601  0.99199  Biso   1.000  C
  C942     1.0000 0.23052  0.53945  0.08954  Biso   1.000  C
  H1075    1.0000 0.11596  0.62411  0.93693  Biso   1.000  H
  H1076    1.0000 0.22996  0.64821  0.08016  Biso   1.000  H
  N155     1.0000 0.08460  0.46362  0.01254  Biso   1.000  N
  H1077    1.0000 0.08197  0.54044  0.02254  Biso   1.000  H
  N156     1.0000 0.17781  0.52733  0.11309  Biso   1.000  N
  H1078    1.0000 0.23685  0.50564  0.07633  Biso   1.000  H
  C943     1.0000 0.06944  0.44815  0.08439  Biso   1.000  C
  C944     1.0000 0.12990  0.46050  0.12105  Biso   1.000  C
  C945     1.0000 0.01977  0.37839  0.09249  Biso   1.000  C
  H1079    1.0000 0.05347  0.47512  0.10443  Biso   1.000  H
  H1080    1.0000 0.14578  0.43386  0.09994  Biso   1.000  H
  C946     1.0000 0.11766  0.44461  0.19682  Biso   1.000  C
  H1081    1.0000 0.98008  0.37023  0.07026  Biso   1.000  H
  C947     1.0000 0.00697  0.35948  0.16735  Biso   1.000  C
  H1082    1.0000 0.03454  0.35222  0.06935  Biso   1.000  H
  H1083    1.0000 0.10315  0.47163  0.21844  Biso   1.000  H
  H1084    1.0000 0.15718  0.45282  0.21946  Biso   1.000  H
  C948     1.0000 0.06686  0.37438  0.20564  Biso   1.000  C
  H1085    1.0000 0.98745  0.38212  0.18907  Biso   1.000  H
  H1086    1.0000 0.97658  0.31373  0.17056  Biso   1.000  H
  H1087    1.0000 0.08330  0.34745  0.18825  Biso   1.000  H
  H1088    1.0000 0.05716  0.36495  0.25474  Biso   1.000  H
  C949     1.0000 0.82534  0.70806  0.30237  Biso   1.000  C
  C950     1.0000 0.76289  0.64647  0.29227  Biso   1.000  C
  H1089    1.0000 0.81863  0.73664  0.33255  Biso   1.000  H
  H1090    1.0000 0.84085  0.72929  0.25785  Biso   1.000  H
  C951     1.0000 0.87418  0.69481  0.33383  Biso   1.000  C
  C952     1.0000 0.77133  0.60185  0.24597  Biso   1.000  C
  H1091    1.0000 0.73144  0.65595  0.27218  Biso   1.000  H
  H1092    1.0000 0.74671  0.62605  0.33709  Biso   1.000  H
  C953     1.0000 0.88248  0.64746  0.29232  Biso   1.000  C
  H1093    1.0000 0.86093  0.67844  0.38069  Biso   1.000  H
  H1094    1.0000 0.91502  0.73466  0.33689  Biso   1.000  H
  N157     1.0000 0.71150  0.54427  0.23583  Biso   1.000  N
  H1095    1.0000 0.78634  0.62289  0.20069  Biso   1.000  H
  C954     1.0000 0.82084  0.58733  0.27402  Biso   1.000  C
  H1096    1.0000 0.90483  0.66797  0.24959  Biso   1.000  H
  H1097    1.0000 0.90963  0.63557  0.31827  Biso   1.000  H
  C955     1.0000 0.68739  0.53403  0.17719  Biso   1.000  C
  N158     1.0000 0.83522  0.55351  0.22267  Biso   1.000  N
  H1098    1.0000 0.80372  0.56035  0.31557  Biso   1.000  H
  C956     1.0000 0.62467  0.47998  0.16067  Biso   1.000  C
  H1099    1.0000 0.71072  0.56256  0.14165  Biso   1.000  H
  C957     1.0000 0.83592  0.50507  0.23934  Biso   1.000  C
  C958     1.0000 0.58918  0.43221  0.20727  Biso   1.000  C
  C959     1.0000 0.59989  0.47659  0.09571  Biso   1.000  C
  C960     1.0000 0.85218  0.46970  0.18958  Biso   1.000  C
  H1100    1.0000 0.82594  0.49026  0.28498  Biso   1.000  H
  C961     1.0000 0.53034  0.38249  0.18958  Biso   1.000  C
  H1101    1.0000 0.60552  0.43376  0.25158  Biso   1.000  H
  C962     1.0000 0.53990  0.42735  0.07771  Biso   1.000  C
  H1102    1.0000 0.62415  0.50819  0.06307  Biso   1.000  H
  C963     1.0000 0.84302  0.41079  0.20727  Biso   1.000  C
  C964     1.0000 0.87454  0.49408  0.12497  Biso   1.000  C
  C965     1.0000 0.49492  0.33085  0.23934  Biso   1.000  C
  C966     1.0000 0.50592  0.38047  0.12497  Biso   1.000  C
  C967     1.0000 0.51602  0.42485  0.00801  Biso   1.000  C
  C968     1.0000 0.85535  0.37533  0.16067  Biso   1.000  C
  H1103    1.0000 0.82825  0.39447  0.25158  Biso   1.000  H
  H1104    1.0000 0.88113  0.53455  0.11325  Biso   1.000  H
  C969     1.0000 0.88743  0.46008  0.07771  Biso   1.000  C
  N159     1.0000 0.44649  0.28171  0.22267  Biso   1.000  N
  H1105    1.0000 0.50974  0.33566  0.28498  Biso   1.000  H
  H1106    1.0000 0.46544  0.34656  0.11325  Biso   1.000  H
  N160     1.0000 0.46361  0.37900  0.98746  Biso   1.000  N
  H1107    1.0000 0.54043  0.45848  0.97746  Biso   1.000  H
  C970     1.0000 0.84664  0.31265  0.17719  Biso   1.000  C
  C971     1.0000 0.87668  0.40009  0.09571  Biso   1.000  C
  C972     1.0000 0.90883  0.48399  0.00801  Biso   1.000  C
  C973     1.0000 0.41267  0.23351  0.27402  Biso   1.000  C
  C974     1.0000 0.44811  0.37872  0.91566  Biso   1.000  C
  N161     1.0000 0.83277  0.28850  0.23583  Biso   1.000  N
  H1108    1.0000 0.85181  0.28925  0.14165  Biso   1.000  H
  H1109    1.0000 0.88404  0.37584  0.06307  Biso   1.000  H
  N162     1.0000 0.91542  0.53639  0.98746  Biso   1.000  N
  H1110    1.0000 0.91801  0.45956  0.97746  Biso   1.000  H
  C975     1.0000 0.35253  0.23502  0.29232  Biso   1.000  C
  C976     1.0000 0.39815  0.16951  0.24597  Biso   1.000  C
  H1111    1.0000 0.43962  0.24336  0.31557  Biso   1.000  H
  C977     1.0000 0.46053  0.33062  0.87895  Biso   1.000  C
  C978     1.0000 0.37839  0.35863  0.90751  Biso   1.000  C
  H1112    1.0000 0.47515  0.42169  0.89557  Biso   1.000  H
  C979     1.0000 0.83049  0.22865  0.24597  Biso   1.000  C
  C980     1.0000 0.93059  0.55186  0.91566  Biso   1.000  C
  H1113    1.0000 0.33204  0.23685  0.24959  Biso   1.000  H
  H1114    1.0000 0.36442  0.27407  0.31827  Biso   1.000  H
  C981     1.0000 0.30518  0.17936  0.33383  Biso   1.000  C
  N163     1.0000 0.45569  0.16719  0.23583  Biso   1.000  N
  C982     1.0000 0.35351  0.11640  0.29227  Biso   1.000  C
  H1115    1.0000 0.37712  0.16347  0.20069  Biso   1.000  H
  N164     1.0000 0.52734  0.34953  0.88696  Biso   1.000  N
  H1116    1.0000 0.43383  0.28807  0.90006  Biso   1.000  H
  C983     1.0000 0.44460  0.32694  0.80318  Biso   1.000  C
  C984     1.0000 0.35950  0.35255  0.83265  Biso   1.000  C
  H1117    1.0000 0.37023  0.39018  0.92979  Biso   1.000  H
  H1118    1.0000 0.35222  0.31765  0.93065  Biso   1.000  H
  C985     1.0000 0.76646  0.17917  0.27402  Biso   1.000  C
  C986     1.0000 0.88359  0.23714  0.29227  Biso   1.000  C
  H1119    1.0000 0.83651  0.21365  0.20069  Biso   1.000  H
  C987     1.0000 0.87009  0.53950  0.87895  Biso   1.000  C
  C988     1.0000 0.98023  0.62157  0.90751  Biso   1.000  C
  H1120    1.0000 0.94655  0.52488  0.89557  Biso   1.000  H
  C989     1.0000 0.29191  0.11730  0.30237  Biso   1.000  C
  H1121    1.0000 0.32152  0.18248  0.38069  Biso   1.000  H
  H1122    1.0000 0.26532  0.18035  0.33689  Biso   1.000  H
  C990     1.0000 0.46595  0.15333  0.17719  Biso   1.000  C
  H1123    1.0000 0.34402  0.07546  0.27218  Biso   1.000  H
  H1124    1.0000 0.37393  0.12064  0.33709  Biso   1.000  H
  C991     1.0000 0.53946  0.30892  0.91046  Biso   1.000  C
  H1125    1.0000 0.47163  0.36849  0.78156  Biso   1.000  H
  H1126    1.0000 0.45282  0.29567  0.78054  Biso   1.000  H
  C992     1.0000 0.37438  0.30755  0.79436  Biso   1.000  C
  H1127    1.0000 0.38211  0.39466  0.81098  Biso   1.000  H
  H1128    1.0000 0.31375  0.33717  0.82944  Biso   1.000  H
  N165     1.0000 0.71826  0.16479  0.22267  Biso   1.000  N
  C993     1.0000 0.76501  0.11753  0.29232  Biso   1.000  C
  H1129    1.0000 0.75662  0.19625  0.31557  Biso   1.000  H
  C994     1.0000 0.88273  0.17465  0.30237  Biso   1.000  C
  H1130    1.0000 0.92454  0.26855  0.27218  Biso   1.000  H
  H1131    1.0000 0.87932  0.25327  0.33709  Biso   1.000  H
  N166     1.0000 0.82217  0.47267  0.88696  Biso   1.000  N
  H1132    1.0000 0.85421  0.56615  0.90006  Biso   1.000  H
  C995     1.0000 0.88236  0.55540  0.80318  Biso   1.000  C
  C996     1.0000 0.99306  0.64053  0.83265  Biso   1.000  C
  H1133    1.0000 0.96544  0.64779  0.93065  Biso   1.000  H
  H1134    1.0000 0.01995  0.62977  0.92979  Biso   1.000  H
  H1135    1.0000 0.26334  0.08197  0.33255  Biso   1.000  H
  H1136    1.0000 0.27076  0.11159  0.25785  Biso   1.000  H
  C997     1.0000 0.51998  0.14465  0.16067  Biso   1.000  C
  H1137    1.0000 0.43745  0.14819  0.14165  Biso   1.000  H
  C998     1.0000 0.60488  0.32213  0.91811  Biso   1.000  C
  H1138    1.0000 0.50563  0.26878  0.92367  Biso   1.000  H
  H1139    1.0000 0.34741  0.26416  0.81175  Biso   1.000  H
  H1140    1.0000 0.36494  0.30779  0.74526  Biso   1.000  H
  C999     1.0000 0.66914  0.16408  0.23934  Biso   1.000  C
  H1141    1.0000 0.76315  0.09518  0.24959  Biso   1.000  H
  H1142    1.0000 0.72594  0.09036  0.31827  Biso   1.000  H
  C1000    1.0000 0.82067  0.12583  0.33383  Biso   1.000  C
  H1143    1.0000 0.91802  0.18134  0.33255  Biso   1.000  H
  H1144    1.0000 0.88844  0.15918  0.25785  Biso   1.000  H
  C1001    1.0000 0.76947  0.46055  0.91046  Biso   1.000  C
  H1145    1.0000 0.89683  0.52837  0.78156  Biso   1.000  H
  H1146    1.0000 0.84285  0.54719  0.78054  Biso   1.000  H
  C1002    1.0000 0.93316  0.62562  0.79436  Biso   1.000  C
  H1147    1.0000 0.01253  0.61789  0.81098  Biso   1.000  H
  H1148    1.0000 0.02345  0.68627  0.82944  Biso   1.000  H
  C1003    1.0000 0.56778  0.15701  0.20727  Biso   1.000  C
  C1004    1.0000 0.52346  0.12333  0.09571  Biso   1.000  C
  C1005    1.0000 0.65573  0.38372  0.91883  Biso   1.000  C
  C1006    1.0000 0.61627  0.27204  0.91883  Biso   1.000  C
  C1007    1.0000 0.61753  0.14786  0.18958  Biso   1.000  C
  H1149    1.0000 0.66434  0.17408  0.28498  Biso   1.000  H
  H1150    1.0000 0.81753  0.13908  0.38069  Biso   1.000  H
  H1151    1.0000 0.81965  0.08499  0.33689  Biso   1.000  H
  C1008    1.0000 0.71727  0.39513  0.91811  Biso   1.000  C
  H1152    1.0000 0.76313  0.49437  0.92367  Biso   1.000  H
  H1153    1.0000 0.91673  0.65255  0.81175  Biso   1.000  H
  H1154    1.0000 0.94282  0.63505  0.74526  Biso   1.000  H
  H1155    1.0000 0.56622  0.17177  0.25158  Biso   1.000  H
  H1156    1.0000 0.49184  0.11597  0.06307  Biso   1.000  H
  C1009    1.0000 0.57265  0.11258  0.07771  Biso   1.000  C
  H1157    1.0000 0.64820  0.41824  0.91984  Biso   1.000  H
  C1010    1.0000 0.67787  0.28274  0.91811  Biso   1.000  C
  H1158    1.0000 0.58172  0.22997  0.91984  Biso   1.000  H
  C1011    1.0000 0.61956  0.12545  0.12497  Biso   1.000  C
  C1012    1.0000 0.72798  0.34425  0.91883  Biso   1.000  C
  C1013    1.0000 0.57518  0.09117  0.00801  Biso   1.000  C
  C1014    1.0000 0.69105  0.23053  0.91046  Biso   1.000  C
  H1159    1.0000 0.65343  0.11885  0.11325  Biso   1.000  H
  H1160    1.0000 0.77004  0.35174  0.91984  Biso   1.000  H
  N167     1.0000 0.62099  0.08461  0.98746  Biso   1.000  N
  H1161    1.0000 0.54154  0.08197  0.97746  Biso   1.000  H
  N168     1.0000 0.65048  0.17781  0.88696  Biso   1.000  N
  H1162    1.0000 0.73122  0.23685  0.92367  Biso   1.000  H
  C1015    1.0000 0.62128  0.06942  0.91566  Biso   1.000  C
  C1016    1.0000 0.66940  0.12989  0.87895  Biso   1.000  C
  C1017    1.0000 0.64134  0.01976  0.90751  Biso   1.000  C
  H1163    1.0000 0.57835  0.05348  0.89557  Biso   1.000  H
  H1164    1.0000 0.71195  0.14578  0.90006  Biso   1.000  H
  C1018    1.0000 0.67303  0.11763  0.80318  Biso   1.000  C
  H1165    1.0000 0.60984  0.98005  0.92979  Biso   1.000  H
  C1019    1.0000 0.64749  0.00698  0.83265  Biso   1.000  C
  H1166    1.0000 0.68232  0.03457  0.93065  Biso   1.000  H
  H1167    1.0000 0.63153  0.10315  0.78156  Biso   1.000  H
  H1168    1.0000 0.70431  0.15715  0.78054  Biso   1.000  H
  C1020    1.0000 0.69244  0.06683  0.79436  Biso   1.000  C
  H1169    1.0000 0.60538  0.98745  0.81098  Biso   1.000  H
  H1170    1.0000 0.66283  0.97656  0.82944  Biso   1.000  H
  H1171    1.0000 0.73582  0.08324  0.81175  Biso   1.000  H
  H1172    1.0000 0.69223  0.05716  0.74526  Biso   1.000  H
  C1021    1.0000 0.54333  0.73344  0.42902  Biso   1.000  C
  C1022    1.0000 0.52201  0.70868  0.49398  Biso   1.000  C
  C1023    1.0000 0.55413  0.79343  0.41102  Biso   1.000  C
  H1173    1.0000 0.55069  0.70920  0.39639  Biso   1.000  H
  C1024    1.0000 0.51331  0.64595  0.51050  Biso   1.000  C
  C1025    1.0000 0.50968  0.74414  0.54059  Biso   1.000  C
  C1026    1.0000 0.57548  0.81734  0.34137  Biso   1.000  C
  C1027    1.0000 0.54123  0.82743  0.45834  Biso   1.000  C
  N169     1.0000 0.49946  0.62185  0.56919  Biso   1.000  N
  H1174    1.0000 0.51851  0.62260  0.47502  Biso   1.000  H
  C1028    1.0000 0.51881  0.80300  0.52289  Biso   1.000  C
  H1175    1.0000 0.49488  0.72778  0.58490  Biso   1.000  H
  N170     1.0000 0.58205  0.86969  0.32077  Biso   1.000  N
  H1176    1.0000 0.58471  0.79291  0.31083  Biso   1.000  H
  H1177    1.0000 0.54778  0.86790  0.44661  Biso   1.000  H
  C1029    1.0000 0.49719  0.56200  0.57929  Biso   1.000  C
  C1030    1.0000 0.50262  0.83842  0.57271  Biso   1.000  C
  C1031    1.0000 0.59724  0.88521  0.24898  Biso   1.000  C
  C1032    1.0000 0.43316  0.51252  0.60738  Biso   1.000  C
  C1033    1.0000 0.55026  0.57044  0.62559  Biso   1.000  C
  H1178    1.0000 0.50321  0.54700  0.53401  Biso   1.000  H
  H1179    1.0000 0.49260  0.82361  0.61829  Biso   1.000  H
  N171     1.0000 0.50186  0.88681  0.55604  Biso   1.000  N
  C1034    1.0000 0.53678  0.87285  0.21232  Biso   1.000  C
  C1035    1.0000 0.64688  0.95492  0.24087  Biso   1.000  C
  H1180    1.0000 0.61318  0.85818  0.22889  Biso   1.000  H
  N172     1.0000 0.38496  0.49814  0.55604  Biso   1.000  N
  C1036    1.0000 0.43167  0.45088  0.62569  Biso   1.000  C
  H1181    1.0000 0.42332  0.52960  0.64889  Biso   1.000  H
  C1037    1.0000 0.54936  0.50795  0.63573  Biso   1.000  C
  H1182    1.0000 0.59119  0.60190  0.60550  Biso   1.000  H
  H1183    1.0000 0.54601  0.58662  0.67041  Biso   1.000  H
  C1038    1.0000 0.48748  0.92063  0.60738  Biso   1.000  C
  N173     1.0000 0.48884  0.80597  0.22027  Biso   1.000  N
  H1184    1.0000 0.52090  0.89950  0.23343  Biso   1.000  H
  C1039    1.0000 0.54902  0.88875  0.13650  Biso   1.000  C
  C1040    1.0000 0.65969  0.97383  0.16602  Biso   1.000  C
  H1185    1.0000 0.68660  0.96312  0.26310  Biso   1.000  H
  H1186    1.0000 0.63211  0.98109  0.26402  Biso   1.000  H
  C1041    1.0000 0.33581  0.49738  0.57271  Biso   1.000  C
  H1187    1.0000 0.42978  0.42848  0.58291  Biso   1.000  H
  H1188    1.0000 0.39260  0.42372  0.65159  Biso   1.000  H
  C1042    1.0000 0.48732  0.45918  0.66714  Biso   1.000  C
  H1189    1.0000 0.58472  0.51469  0.66592  Biso   1.000  H
  H1190    1.0000 0.55511  0.49248  0.59122  Biso   1.000  H
  C1043    1.0000 0.43803  0.93520  0.57929  Biso   1.000  C
  C1044    1.0000 0.54914  0.98081  0.62569  Biso   1.000  C
  H1191    1.0000 0.47042  0.89370  0.64889  Biso   1.000  H
  C1045    1.0000 0.43614  0.79385  0.24383  Biso   1.000  C
  H1192    1.0000 0.56352  0.86172  0.11488  Biso   1.000  H
  H1193    1.0000 0.50948  0.88049  0.11391  Biso   1.000  H
  C1046    1.0000 0.59981  0.95897  0.12768  Biso   1.000  C
  H1194    1.0000 0.67921  0.95119  0.14430  Biso   1.000  H
  H1195    1.0000 0.69004  0.01958  0.16281  Biso   1.000  H
  C1047    1.0000 0.28420  0.48116  0.52289  Biso   1.000  C
  H1196    1.0000 0.33101  0.50738  0.61829  Biso   1.000  H
  H1197    1.0000 0.48420  0.47239  0.71400  Biso   1.000  H
  H1198    1.0000 0.48628  0.41829  0.67020  Biso   1.000  H
  N174     1.0000 0.37815  0.87762  0.56919  Biso   1.000  N
  C1048    1.0000 0.42954  0.97982  0.62559  Biso   1.000  C
  H1199    1.0000 0.45298  0.95619  0.53401  Biso   1.000  H
  H1200    1.0000 0.57630  0.96888  0.65159  Biso   1.000  H
  H1201    1.0000 0.57146  0.00128  0.58291  Biso   1.000  H
  C1049    1.0000 0.54079  0.02816  0.66714  Biso   1.000  C
  C1050    1.0000 0.38391  0.72844  0.25143  Biso   1.000  C
  H1202    1.0000 0.42983  0.82772  0.25699  Biso   1.000  H
  H1203    1.0000 0.58338  0.98590  0.14512  Biso   1.000  H
  H1204    1.0000 0.60951  0.96841  0.07863  Biso   1.000  H
  C1051    1.0000 0.28619  0.45876  0.45834  Biso   1.000  C
  C1052    1.0000 0.23445  0.49031  0.54059  Biso   1.000  C
  C1053    1.0000 0.35402  0.86733  0.51050  Biso   1.000  C
  H1205    1.0000 0.39809  0.98930  0.60550  Biso   1.000  H
  H1206    1.0000 0.41341  0.95940  0.67041  Biso   1.000  H
  C1054    1.0000 0.49199  0.04141  0.63573  Biso   1.000  C
  H1207    1.0000 0.52755  0.01180  0.71400  Biso   1.000  H
  H1208    1.0000 0.58167  0.06801  0.67020  Biso   1.000  H
  C1055    1.0000 0.39463  0.67760  0.25219  Biso   1.000  C
  C1056    1.0000 0.32243  0.71707  0.25219  Biso   1.000  C
  C1057    1.0000 0.23932  0.44588  0.41102  Biso   1.000  C
  H1209    1.0000 0.32008  0.45220  0.44661  Biso   1.000  H
  C1058    1.0000 0.18668  0.47800  0.49398  Biso   1.000  C
  H1210    1.0000 0.23291  0.50512  0.58490  Biso   1.000  H
  C1059    1.0000 0.29132  0.81333  0.49398  Biso   1.000  C
  H1211    1.0000 0.37742  0.89592  0.47502  Biso   1.000  H
  H1212    1.0000 0.48525  0.07000  0.66592  Biso   1.000  H
  H1213    1.0000 0.50744  0.06259  0.59122  Biso   1.000  H
  C1060    1.0000 0.34452  0.61609  0.25143  Biso   1.000  C
  H1214    1.0000 0.43669  0.68509  0.25321  Biso   1.000  H
  C1061    1.0000 0.27154  0.65548  0.25143  Biso   1.000  C
  H1215    1.0000 0.31490  0.75160  0.25321  Biso   1.000  H
  C1062    1.0000 0.24183  0.42452  0.34137  Biso   1.000  C
  C1063    1.0000 0.19011  0.45668  0.42902  Biso   1.000  C
  C1064    1.0000 0.13265  0.48668  0.51050  Biso   1.000  C
  C1065    1.0000 0.25587  0.76556  0.54059  Biso   1.000  C
  C1066    1.0000 0.26656  0.80989  0.42902  Biso   1.000  C
  C1067    1.0000 0.35773  0.56384  0.24383  Biso   1.000  C
  C1068    1.0000 0.28294  0.60534  0.25219  Biso   1.000  C
  C1069    1.0000 0.20612  0.64227  0.24383  Biso   1.000  C
  N175     1.0000 0.28765  0.41796  0.32077  Biso   1.000  N
  H1216    1.0000 0.20819  0.41532  0.31083  Biso   1.000  H
  H1217    1.0000 0.15847  0.44928  0.39639  Biso   1.000  H
  N176     1.0000 0.12239  0.50054  0.56919  Biso   1.000  N
  H1218    1.0000 0.10408  0.48149  0.47502  Biso   1.000  H
  C1070    1.0000 0.19697  0.71580  0.52289  Biso   1.000  C
  H1219    1.0000 0.27221  0.76711  0.58490  Biso   1.000  H
  C1071    1.0000 0.20660  0.76070  0.41102  Biso   1.000  C
  H1220    1.0000 0.29078  0.84149  0.39639  Biso   1.000  H
  N177     1.0000 0.31713  0.51116  0.22027  Biso   1.000  N
  H1221    1.0000 0.39792  0.57021  0.25699  Biso   1.000  H
  H1222    1.0000 0.24841  0.56332  0.25321  Biso   1.000  H
  H1223    1.0000 0.17230  0.60209  0.25699  Biso   1.000  H
  N178     1.0000 0.19401  0.68283  0.22027  Biso   1.000  N
  C1072    1.0000 0.28795  0.40273  0.24898  Biso   1.000  C
  C1073    1.0000 0.06479  0.50281  0.57929  Biso   1.000  C
  C1074    1.0000 0.16162  0.66420  0.57271  Biso   1.000  C
  C1075    1.0000 0.17255  0.71377  0.45834  Biso   1.000  C
  C1076    1.0000 0.18265  0.75815  0.34137  Biso   1.000  C
  C1077    1.0000 0.33606  0.46324  0.21232  Biso   1.000  C
  C1078    1.0000 0.12716  0.66392  0.21232  Biso   1.000  C
  C1079    1.0000 0.30804  0.35311  0.24087  Biso   1.000  C
  H1224    1.0000 0.24498  0.38679  0.22889  Biso   1.000  H
  C1080    1.0000 0.02020  0.44975  0.62559  Biso   1.000  C
  H1225    1.0000 0.04382  0.49682  0.53401  Biso   1.000  H
  C1081    1.0000 0.07937  0.56686  0.60738  Biso   1.000  C
  N179     1.0000 0.11319  0.61506  0.55604  Biso   1.000  N
  H1226    1.0000 0.17640  0.66901  0.61829  Biso   1.000  H
  H1227    1.0000 0.13209  0.67991  0.44661  Biso   1.000  H
  N180     1.0000 0.13031  0.71236  0.32077  Biso   1.000  N
  H1228    1.0000 0.20711  0.79178  0.31083  Biso   1.000  H
  C1082    1.0000 0.33973  0.45098  0.13650  Biso   1.000  C
  H1229    1.0000 0.37858  0.47909  0.23343  Biso   1.000  H
  H1230    1.0000 0.10050  0.62138  0.23343  Biso   1.000  H
  C1083    1.0000 0.11126  0.66029  0.13650  Biso   1.000  C
  C1084    1.0000 0.11478  0.71203  0.24898  Biso   1.000  C
  C1085    1.0000 0.31412  0.34028  0.16602  Biso   1.000  C
  H1231    1.0000 0.27650  0.31340  0.26310  Biso   1.000  H
  H1232    1.0000 0.34901  0.36792  0.26402  Biso   1.000  H
  H1233    1.0000 0.01072  0.40881  0.60550  Biso   1.000  H
  H1234    1.0000 0.04058  0.45399  0.67041  Biso   1.000  H
  C1086    1.0000 0.95858  0.45060  0.63573  Biso   1.000  C
  C1087    1.0000 0.01920  0.56832  0.62569  Biso   1.000  C
  H1235    1.0000 0.10631  0.57671  0.64889  Biso   1.000  H
  C1088    1.0000 0.35914  0.40018  0.12768  Biso   1.000  C
  H1236    1.0000 0.29818  0.43650  0.11488  Biso   1.000  H
  H1237    1.0000 0.37101  0.49050  0.11391  Biso   1.000  H
  H1238    1.0000 0.13830  0.70179  0.11488  Biso   1.000  H
  H1239    1.0000 0.11952  0.62902  0.11391  Biso   1.000  H
  C1089    1.0000 0.04105  0.64086  0.12768  Biso   1.000  C
  C1090    1.0000 0.04509  0.69198  0.24087  Biso   1.000  C
  H1240    1.0000 0.14178  0.75499  0.22889  Biso   1.000  H
  H1241    1.0000 0.27199  0.32081  0.14430  Biso   1.000  H
  H1242    1.0000 0.32953  0.30991  0.16281  Biso   1.000  H
  H1243    1.0000 0.93000  0.41532  0.66592  Biso   1.000  H
  H1244    1.0000 0.93739  0.44489  0.59122  Biso   1.000  H
  C1091    1.0000 0.97185  0.51267  0.66714  Biso   1.000  C
  H1245    1.0000 0.03111  0.60742  0.65159  Biso   1.000  H
  H1246    1.0000 0.99870  0.57021  0.58291  Biso   1.000  H
  H1247    1.0000 0.40251  0.41659  0.14512  Biso   1.000  H
  H1248    1.0000 0.35892  0.39051  0.07863  Biso   1.000  H
  C1092    1.0000 0.02613  0.68585  0.16602  Biso   1.000  C
  H1249    1.0000 0.01411  0.59751  0.14512  Biso   1.000  H
  H1250    1.0000 0.03161  0.64109  0.07863  Biso   1.000  H
  H1251    1.0000 0.03691  0.72349  0.26310  Biso   1.000  H
  H1252    1.0000 0.01892  0.65100  0.26402  Biso   1.000  H
  H1253    1.0000 0.98819  0.51578  0.71400  Biso   1.000  H
  H1254    1.0000 0.93201  0.51370  0.67020  Biso   1.000  H
  H1255    1.0000 0.04881  0.72801  0.14430  Biso   1.000  H
  H1256    1.0000 0.98040  0.67052  0.16281  Biso   1.000  H
  C1093    1.0000 0.71376  0.54120  0.54166  Biso   1.000  C
  C1094    1.0000 0.71582  0.51884  0.47711  Biso   1.000  C
  H1257    1.0000 0.67990  0.54780  0.55339  Biso   1.000  H
  C1095    1.0000 0.76070  0.55412  0.58898  Biso   1.000  C
  C1096    1.0000 0.66421  0.50262  0.42734  Biso   1.000  C
  C1097    1.0000 0.76557  0.50969  0.45941  Biso   1.000  C
  C1098    1.0000 0.80987  0.54332  0.57098  Biso   1.000  C
  C1099    1.0000 0.75815  0.57549  0.65868  Biso   1.000  C
  N181     1.0000 0.61506  0.50187  0.44401  Biso   1.000  N
  H1258    1.0000 0.66901  0.49262  0.38171  Biso   1.000  H
  C1100    1.0000 0.81334  0.52200  0.50602  Biso   1.000  C
  H1259    1.0000 0.76711  0.49489  0.41510  Biso   1.000  H
  H1260    1.0000 0.84149  0.55068  0.60361  Biso   1.000  H
  N182     1.0000 0.71233  0.58204  0.67923  Biso   1.000  N
  H1261    1.0000 0.79179  0.58468  0.68922  Biso   1.000  H
  C1101    1.0000 0.56686  0.48748  0.39267  Biso   1.000  C
  C1102    1.0000 0.86737  0.51333  0.48950  Biso   1.000  C
  C1103    1.0000 0.71204  0.59723  0.75102  Biso   1.000  C
  C1104    1.0000 0.50283  0.43801  0.42071  Biso   1.000  C
  C1105    1.0000 0.56832  0.54912  0.37436  Biso   1.000  C
  H1262    1.0000 0.57671  0.47041  0.35111  Biso   1.000  H
  N183     1.0000 0.87764  0.49946  0.43086  Biso   1.000  N
  H1263    1.0000 0.89590  0.51851  0.52498  Biso   1.000  H
  C1106    1.0000 0.66392  0.53677  0.78773  Biso   1.000  C
  C1107    1.0000 0.69199  0.64689  0.75913  Biso   1.000  C
  H1264    1.0000 0.75500  0.61322  0.77111  Biso   1.000  H
  C1108    1.0000 0.44974  0.42952  0.37441  Biso   1.000  C
  N184     1.0000 0.50056  0.37816  0.43086  Biso   1.000  N
  H1265    1.0000 0.49681  0.45300  0.46599  Biso   1.000  H
  C1109    1.0000 0.51266  0.54082  0.33286  Biso   1.000  C
  H1266    1.0000 0.57018  0.57148  0.41709  Biso   1.000  H
  H1267    1.0000 0.60739  0.57629  0.34841  Biso   1.000  H
  C1110    1.0000 0.93520  0.49720  0.42071  Biso   1.000  C
  N185     1.0000 0.68285  0.48885  0.77973  Biso   1.000  N
  H1268    1.0000 0.62140  0.52092  0.76662  Biso   1.000  H
  C1111    1.0000 0.66029  0.54903  0.86350  Biso   1.000  C
  C1112    1.0000 0.68586  0.65972  0.83398  Biso   1.000  C
  H1269    1.0000 0.72348  0.68660  0.73690  Biso   1.000  H
  H1270    1.0000 0.65101  0.63208  0.73603  Biso   1.000  H
  H1271    1.0000 0.40879  0.39811  0.39450  Biso   1.000  H
  H1272    1.0000 0.45401  0.41339  0.32959  Biso   1.000  H
  C1113    1.0000 0.45060  0.49201  0.36427  Biso   1.000  C
  C1114    1.0000 0.48669  0.35401  0.48950  Biso   1.000  C
  H1273    1.0000 0.51582  0.52762  0.28600  Biso   1.000  H
  H1274    1.0000 0.51370  0.58171  0.32980  Biso   1.000  H
  C1115    1.0000 0.97982  0.55025  0.37441  Biso   1.000  C
  H1275    1.0000 0.95620  0.50319  0.46599  Biso   1.000  H
  C1116    1.0000 0.92065  0.43315  0.39267  Biso   1.000  C
  C1117    1.0000 0.64227  0.43612  0.75622  Biso   1.000  C
  H1276    1.0000 0.70180  0.56351  0.88512  Biso   1.000  H
  H1277    1.0000 0.62901  0.50951  0.88609  Biso   1.000  H
  C1118    1.0000 0.64088  0.59982  0.87232  Biso   1.000  C
  H1278    1.0000 0.72799  0.67920  0.85570  Biso   1.000  H
  H1279    1.0000 0.67050  0.69009  0.83719  Biso   1.000  H
  H1280    1.0000 0.41531  0.48531  0.33408  Biso   1.000  H
  H1281    1.0000 0.44489  0.50748  0.40883  Biso   1.000  H
  C1119    1.0000 0.47798  0.29133  0.50602  Biso   1.000  C
  H1282    1.0000 0.48152  0.37740  0.52498  Biso   1.000  H
  H1283    1.0000 0.98930  0.59119  0.39450  Biso   1.000  H
  H1284    1.0000 0.95940  0.54601  0.32959  Biso   1.000  H
  C1120    1.0000 0.04142  0.54936  0.36427  Biso   1.000  C
  N186     1.0000 0.88683  0.38495  0.44401  Biso   1.000  N
  C1121    1.0000 0.98082  0.43169  0.37436  Biso   1.000  C
  H1285    1.0000 0.89371  0.42329  0.35111  Biso   1.000  H
  C1122    1.0000 0.65546  0.38391  0.74857  Biso   1.000  C
  H1286    1.0000 0.60211  0.42980  0.74301  Biso   1.000  H
  H1287    1.0000 0.59751  0.58341  0.85494  Biso   1.000  H
  H1288    1.0000 0.64110  0.60949  0.92143  Biso   1.000  H
  C1123    1.0000 0.49030  0.25586  0.45941  Biso   1.000  C
  C1124    1.0000 0.45665  0.26657  0.57098  Biso   1.000  C
  H1289    1.0000 0.06998  0.58468  0.33408  Biso   1.000  H
  H1290    1.0000 0.06259  0.55511  0.40883  Biso   1.000  H
  C1125    1.0000 0.02817  0.48734  0.33286  Biso   1.000  C
  C1126    1.0000 0.83841  0.33580  0.42734  Biso   1.000  C
  H1291    1.0000 0.96891  0.39259  0.34841  Biso   1.000  H
  H1292    1.0000 0.00128  0.42980  0.41709  Biso   1.000  H
  C1127    1.0000 0.60535  0.32241  0.74781  Biso   1.000  C
  C1128    1.0000 0.71708  0.39466  0.74781  Biso   1.000  C
  C1129    1.0000 0.48117  0.19700  0.47711  Biso   1.000  C
  H1293    1.0000 0.50508  0.27218  0.41510  Biso   1.000  H
  H1294    1.0000 0.44929  0.29081  0.60361  Biso   1.000  H
  C1130    1.0000 0.44589  0.20658  0.58898  Biso   1.000  C
  H1295    1.0000 0.01181  0.48418  0.28600  Biso   1.000  H
  H1296    1.0000 0.06801  0.48630  0.32980  Biso   1.000  H
  C1131    1.0000 0.80301  0.28421  0.47711  Biso   1.000  C
  H1297    1.0000 0.82359  0.33099  0.38171  Biso   1.000  H
  C1132    1.0000 0.61608  0.27157  0.74857  Biso   1.000  C
  H1298    1.0000 0.56329  0.31491  0.74679  Biso   1.000  H
  C1133    1.0000 0.72845  0.34453  0.74857  Biso   1.000  C
  H1299    1.0000 0.75161  0.43669  0.74679  Biso   1.000  H
  C1134    1.0000 0.45879  0.17257  0.54166  Biso   1.000  C
  C1135    1.0000 0.49741  0.16158  0.42734  Biso   1.000  C
  C1136    1.0000 0.42450  0.18266  0.65868  Biso   1.000  C
  C1137    1.0000 0.74415  0.23445  0.45941  Biso   1.000  C
  C1138    1.0000 0.82741  0.28619  0.54166  Biso   1.000  C
  C1139    1.0000 0.56389  0.20615  0.75622  Biso   1.000  C
  C1140    1.0000 0.67759  0.28293  0.74781  Biso   1.000  C
  C1141    1.0000 0.79387  0.35773  0.75622  Biso   1.000  C
  H1300    1.0000 0.45220  0.13210  0.55339  Biso   1.000  H
  H1301    1.0000 0.50738  0.17639  0.38171  Biso   1.000  H
  N187     1.0000 0.49813  0.11319  0.44401  Biso   1.000  N
  N188     1.0000 0.41793  0.13031  0.67923  Biso   1.000  N
  H1302    1.0000 0.41531  0.20709  0.68922  Biso   1.000  H
  C1142    1.0000 0.70866  0.18667  0.50602  Biso   1.000  C
  H1303    1.0000 0.72781  0.23289  0.41510  Biso   1.000  H
  C1143    1.0000 0.79343  0.23931  0.58898  Biso   1.000  C
  H1304    1.0000 0.86789  0.32010  0.55339  Biso   1.000  H
  N189     1.0000 0.51118  0.19403  0.77973  Biso   1.000  N
  H1305    1.0000 0.57019  0.17229  0.74301  Biso   1.000  H
  H1306    1.0000 0.68512  0.24841  0.74679  Biso   1.000  H
  H1307    1.0000 0.82772  0.39792  0.74301  Biso   1.000  H
  N190     1.0000 0.80599  0.31713  0.77973  Biso   1.000  N
  C1144    1.0000 0.51251  0.07938  0.39267  Biso   1.000  C
  C1145    1.0000 0.40274  0.11480  0.75102  Biso   1.000  C
  C1146    1.0000 0.64596  0.13267  0.48950  Biso   1.000  C
  C1147    1.0000 0.73346  0.19012  0.57098  Biso   1.000  C
  C1148    1.0000 0.81733  0.24185  0.65868  Biso   1.000  C
  C1149    1.0000 0.46324  0.12715  0.78773  Biso   1.000  C
  C1150    1.0000 0.87282  0.33609  0.78773  Biso   1.000  C
  C1151    1.0000 0.45084  0.01920  0.37436  Biso   1.000  C
  C1152    1.0000 0.56199  0.06480  0.42071  Biso   1.000  C
  H1308    1.0000 0.52961  0.10631  0.35111  Biso   1.000  H
  C1153    1.0000 0.35310  0.04509  0.75913  Biso   1.000  C
  H1309    1.0000 0.38680  0.14182  0.77111  Biso   1.000  H
  N191     1.0000 0.62183  0.12239  0.43086  Biso   1.000  N
  H1310    1.0000 0.62260  0.10409  0.52498  Biso   1.000  H
  H1311    1.0000 0.70921  0.15852  0.60361  Biso   1.000  H
  N192     1.0000 0.86972  0.28765  0.67923  Biso   1.000  N
  H1312    1.0000 0.79289  0.20818  0.68922  Biso   1.000  H
  H1313    1.0000 0.47912  0.10051  0.76662  Biso   1.000  H
  C1154    1.0000 0.45096  0.11126  0.86350  Biso   1.000  C
  C1155    1.0000 0.88524  0.28798  0.75102  Biso   1.000  C
  H1314    1.0000 0.89950  0.37858  0.76662  Biso   1.000  H
  C1156    1.0000 0.88872  0.33972  0.86350  Biso   1.000  C
  H1315    1.0000 0.42370  0.03108  0.34841  Biso   1.000  H
  H1316    1.0000 0.42854  0.99868  0.41709  Biso   1.000  H
  C1157    1.0000 0.45915  0.97184  0.33286  Biso   1.000  C
  C1158    1.0000 0.57044  0.02019  0.37441  Biso   1.000  C
  H1317    1.0000 0.54701  0.04381  0.46599  Biso   1.000  H
  C1159    1.0000 0.34029  0.02618  0.83398  Biso   1.000  C
  H1318    1.0000 0.31338  0.03688  0.73690  Biso   1.000  H
  H1319    1.0000 0.36791  0.01891  0.73603  Biso   1.000  H
  H1320    1.0000 0.43650  0.13828  0.88512  Biso   1.000  H
  H1321    1.0000 0.49050  0.11951  0.88609  Biso   1.000  H
  C1160    1.0000 0.40017  0.04103  0.87232  Biso   1.000  C
  C1161    1.0000 0.95494  0.30802  0.75913  Biso   1.000  C
  H1322    1.0000 0.85820  0.24501  0.77111  Biso   1.000  H
  H1323    1.0000 0.86172  0.29821  0.88512  Biso   1.000  H
  H1324    1.0000 0.88051  0.37099  0.88609  Biso   1.000  H
  C1162    1.0000 0.95897  0.35915  0.87232  Biso   1.000  C
  C1163    1.0000 0.50799  0.95859  0.36427  Biso   1.000  C
  H1325    1.0000 0.47240  0.98821  0.28600  Biso   1.000  H
  H1326    1.0000 0.41835  0.93199  0.32980  Biso   1.000  H
  H1327    1.0000 0.60189  0.01071  0.39450  Biso   1.000  H
  H1328    1.0000 0.58662  0.04061  0.32959  Biso   1.000  H
  H1329    1.0000 0.32082  0.04881  0.85570  Biso   1.000  H
  H1330    1.0000 0.30988  0.98038  0.83719  Biso   1.000  H
  H1331    1.0000 0.41660  0.01410  0.85494  Biso   1.000  H
  H1332    1.0000 0.39051  0.03160  0.92143  Biso   1.000  H
  C1164    1.0000 0.97382  0.31411  0.83398  Biso   1.000  C
  H1333    1.0000 0.96312  0.27652  0.73690  Biso   1.000  H
  H1334    1.0000 0.98110  0.34901  0.73603  Biso   1.000  H
  H1335    1.0000 0.98591  0.40249  0.85494  Biso   1.000  H
  H1336    1.0000 0.96841  0.35891  0.92143  Biso   1.000  H
  H1337    1.0000 0.51473  0.93001  0.33408  Biso   1.000  H
  H1338    1.0000 0.49254  0.93741  0.40883  Biso   1.000  H
  H1339    1.0000 0.95121  0.27199  0.85570  Biso   1.000  H
  H1340    1.0000 0.01958  0.32948  0.83719  Biso   1.000  H
