data_image0
_cell_length_a       24.483
_cell_length_b       24.483
_cell_length_c       19.612
_cell_angle_alpha    90
_cell_angle_beta     90
_cell_angle_gamma    120

_symmetry_space_group_name_H-M    "P 1"
_symmetry_int_tables_number       1

loop_
  _symmetry_equiv_pos_as_xyz
  'x, y, z'

loop_
  _atom_site_label
  _atom_site_occupancy
  _atom_site_fract_x
  _atom_site_fract_y
  _atom_site_fract_z
  _atom_site_thermal_displace_type
  _atom_site_B_iso_or_equiv
  _atom_site_type_symbol
  C1       1.0000 0.67362  0.69283  0.50066  Biso   1.000  C
  C2       1.0000 0.68643  0.71174  0.42581  Biso   1.000  C
  H1       1.0000 0.65414  0.71547  0.52238  Biso   1.000  H
  H2       1.0000 0.64323  0.64708  0.50388  Biso   1.000  H
  C3       1.0000 0.73352  0.70773  0.53901  Biso   1.000  C
  H3       1.0000 0.64673  0.70358  0.40358  Biso   1.000  H
  H4       1.0000 0.70124  0.68557  0.40266  Biso   1.000  H
  C4       1.0000 0.73607  0.78145  0.41770  Biso   1.000  C
  C5       1.0000 0.78429  0.77791  0.53013  Biso   1.000  C
  H5       1.0000 0.74993  0.68076  0.52157  Biso   1.000  H
  H6       1.0000 0.72384  0.69825  0.58806  Biso   1.000  H
  N1       1.0000 0.75126  0.79697  0.34586  Biso   1.000  N
  C6       1.0000 0.79659  0.79385  0.45436  Biso   1.000  C
  H7       1.0000 0.72013  0.80847  0.43779  Biso   1.000  H
  H8       1.0000 0.76985  0.80498  0.55175  Biso   1.000  H
  H9       1.0000 0.82383  0.78617  0.55277  Biso   1.000  H
  C7       1.0000 0.75783  0.84932  0.32531  Biso   1.000  C
  N2       1.0000 0.84451  0.86068  0.44641  Biso   1.000  N
  H10      1.0000 0.81245  0.76716  0.43326  Biso   1.000  H
  H11      1.0000 0.74864  0.87375  0.35585  Biso   1.000  H
  C8       1.0000 0.77924  0.87328  0.25566  Biso   1.000  C
  C9       1.0000 0.89721  0.87281  0.42285  Biso   1.000  C
  C10      1.0000 0.78998  0.93322  0.23761  Biso   1.000  C
  C11      1.0000 0.79212  0.83922  0.20834  Biso   1.000  C
  C12      1.0000 0.94940  0.93822  0.41526  Biso   1.000  C
  H12      1.0000 0.90354  0.83899  0.40970  Biso   1.000  H
  C13      1.0000 0.81130  0.95798  0.17270  Biso   1.000  C
  H13      1.0000 0.78262  0.95746  0.27029  Biso   1.000  H
  C14      1.0000 0.81450  0.86366  0.14374  Biso   1.000  C
  H14      1.0000 0.78552  0.79876  0.22007  Biso   1.000  H
  C15      1.0000 0.93868  0.98906  0.41449  Biso   1.000  C
  C16      1.0000 0.01094  0.94963  0.41449  Biso   1.000  C
  C17      1.0000 0.82363  0.92252  0.12605  Biso   1.000  C
  C18      1.0000 0.82004  0.02071  0.15613  Biso   1.000  C
  C19      1.0000 0.83073  0.82824  0.09397  Biso   1.000  C
  H15      1.0000 0.89661  0.98156  0.41347  Biso   1.000  H
  C20      1.0000 0.98881  0.05061  0.41526  Biso   1.000  C
  H16      1.0000 0.01845  0.91506  0.41347  Biso   1.000  H
  C21      1.0000 0.06177  0.01118  0.41526  Biso   1.000  C
  H17      1.0000 0.83843  0.93888  0.08179  Biso   1.000  H
  N3       1.0000 0.83387  0.04486  0.09749  Biso   1.000  N
  H18      1.0000 0.81480  0.04406  0.19167  Biso   1.000  H
  N4       1.0000 0.83145  0.77985  0.11065  Biso   1.000  N
  H19      1.0000 0.84071  0.84305  0.04839  Biso   1.000  H
  C22      1.0000 0.97562  0.10282  0.42285  Biso   1.000  C
  C23      1.0000 0.05041  0.06132  0.41449  Biso   1.000  C
  C24      1.0000 0.12719  0.02439  0.42285  Biso   1.000  C
  C25      1.0000 0.83616  0.10466  0.08734  Biso   1.000  C
  C26      1.0000 0.84583  0.74603  0.05930  Biso   1.000  C
  H20      1.0000 0.93539  0.09645  0.40970  Biso   1.000  H
  N5       1.0000 0.01622  0.15550  0.44641  Biso   1.000  N
  H21      1.0000 0.08496  0.10339  0.41347  Biso   1.000  H
  N6       1.0000 0.13934  0.98383  0.44641  Biso   1.000  N
  H22      1.0000 0.16101  0.06457  0.40970  Biso   1.000  H
  C27      1.0000 0.78309  0.09622  0.04105  Biso   1.000  C
  H23      1.0000 0.83010  0.11966  0.13267  Biso   1.000  H
  C28      1.0000 0.90017  0.15418  0.05930  Biso   1.000  C
  C29      1.0000 0.78417  0.68585  0.04100  Biso   1.000  C
  C30      1.0000 0.89532  0.73146  0.08734  Biso   1.000  C
  H24      1.0000 0.86293  0.77296  0.01774  Biso   1.000  H
  C31      1.0000 0.99725  0.20342  0.45436  Biso   1.000  C
  C32      1.0000 0.20619  0.00274  0.45436  Biso   1.000  C
  H25      1.0000 0.78732  0.08009  0.99628  Biso   1.000  H
  H26      1.0000 0.74216  0.06476  0.06119  Biso   1.000  H
  C33      1.0000 0.78399  0.15871  0.03095  Biso   1.000  C
  N7       1.0000 0.94839  0.16852  0.11065  Biso   1.000  N
  C34      1.0000 0.90167  0.21582  0.04100  Biso   1.000  C
  H27      1.0000 0.91003  0.13706  0.01774  Biso   1.000  H
  H28      1.0000 0.76185  0.66538  0.08378  Biso   1.000  H
  H29      1.0000 0.75705  0.69778  0.01504  Biso   1.000  H
  C35      1.0000 0.79248  0.63850  0.99954  Biso   1.000  C
  N8       1.0000 0.95516  0.78904  0.09749  Biso   1.000  N
  C36      1.0000 0.90377  0.68684  0.04105  Biso   1.000  C
  H30      1.0000 0.88033  0.71047  0.13267  Biso   1.000  H
  H31      1.0000 0.95477  0.18757  0.43326  Biso   1.000  H
  C37      1.0000 0.99358  0.21568  0.53013  Biso   1.000  C
  C38      1.0000 0.04535  0.26393  0.41770  Biso   1.000  C
  C39      1.0000 0.21857  0.95463  0.41770  Biso   1.000  C
  H32      1.0000 0.23281  0.04528  0.43326  Biso   1.000  H
  C40      1.0000 0.22209  0.00637  0.53013  Biso   1.000  C
  C41      1.0000 0.84601  0.20752  0.99954  Biso   1.000  C
  H33      1.0000 0.74859  0.15197  0.00076  Biso   1.000  H
  H34      1.0000 0.77820  0.17418  0.07546  Biso   1.000  H
  C42      1.0000 0.99749  0.16927  0.09397  Biso   1.000  C
  H35      1.0000 0.90357  0.23818  0.08378  Biso   1.000  H
  H36      1.0000 0.94074  0.24299  0.01504  Biso   1.000  H
  C43      1.0000 0.84132  0.62524  0.03095  Biso   1.000  C
  H37      1.0000 0.80572  0.65486  0.95268  Biso   1.000  H
  H38      1.0000 0.75164  0.59864  0.99648  Biso   1.000  H
  C44      1.0000 0.97929  0.79932  0.15613  Biso   1.000  C
  H39      1.0000 0.93522  0.67736  0.06119  Biso   1.000  H
  H40      1.0000 0.91994  0.70726  0.99628  Biso   1.000  H
  H41      1.0000 0.96230  0.17616  0.55277  Biso   1.000  H
  C45      1.0000 0.97421  0.26648  0.53901  Biso   1.000  C
  H42      1.0000 0.03513  0.23016  0.55175  Biso   1.000  H
  N9       1.0000 0.04573  0.24874  0.34586  Biso   1.000  N
  C46      1.0000 0.02531  0.31355  0.42581  Biso   1.000  C
  H43      1.0000 0.08837  0.27987  0.43779  Biso   1.000  H
  N10      1.0000 0.20304  0.95430  0.34586  Biso   1.000  N
  C47      1.0000 0.28826  0.97468  0.42581  Biso   1.000  C
  H44      1.0000 0.19153  0.91167  0.43779  Biso   1.000  H
  H45      1.0000 0.19505  0.96487  0.55175  Biso   1.000  H
  H46      1.0000 0.21382  0.03769  0.55277  Biso   1.000  H
  C48      1.0000 0.29226  0.02580  0.53901  Biso   1.000  C
  H47      1.0000 0.84915  0.19427  0.95268  Biso   1.000  H
  H48      1.0000 0.84707  0.24837  0.99648  Biso   1.000  H
  C49      1.0000 0.04915  0.18550  0.14374  Biso   1.000  C
  H49      1.0000 0.00230  0.15928  0.04839  Biso   1.000  H
  H50      1.0000 0.84802  0.59666  0.00076  Biso   1.000  H
  H51      1.0000 0.82583  0.60407  0.07546  Biso   1.000  H
  H52      1.0000 0.95593  0.77074  0.19167  Biso   1.000  H
  C50      1.0000 0.04199  0.85333  0.17270  Biso   1.000  C
  H53      1.0000 0.93084  0.25006  0.52157  Biso   1.000  H
  H54      1.0000 0.97445  0.27619  0.58806  Biso   1.000  H
  C51      1.0000 0.01919  0.32638  0.50066  Biso   1.000  C
  C52      1.0000 0.09154  0.24219  0.32531  Biso   1.000  C
  H55      1.0000 0.98432  0.29878  0.40266  Biso   1.000  H
  H56      1.0000 0.05685  0.35326  0.40358  Biso   1.000  H
  C53      1.0000 0.15066  0.90851  0.32531  Biso   1.000  C
  C54      1.0000 0.30718  0.98081  0.50066  Biso   1.000  C
  H57      1.0000 0.29644  0.94317  0.40358  Biso   1.000  H
  H58      1.0000 0.31439  0.01566  0.40266  Biso   1.000  H
  H59      1.0000 0.31922  0.06919  0.52157  Biso   1.000  H
  H60      1.0000 0.30174  0.02557  0.58806  Biso   1.000  H
  C55      1.0000 0.09890  0.17635  0.12605  Biso   1.000  C
  C56      1.0000 0.04716  0.20790  0.20834  Biso   1.000  C
  C57      1.0000 0.07748  0.90110  0.12605  Biso   1.000  C
  C58      1.0000 0.06679  0.85677  0.23761  Biso   1.000  C
  H61      1.0000 0.06132  0.34585  0.52238  Biso   1.000  H
  H62      1.0000 0.00382  0.35675  0.50388  Biso   1.000  H
  H63      1.0000 0.12518  0.25139  0.35585  Biso   1.000  H
  C59      1.0000 0.09403  0.22078  0.25566  Biso   1.000  C
  H64      1.0000 0.12624  0.87488  0.35585  Biso   1.000  H
  C60      1.0000 0.12675  0.90596  0.25566  Biso   1.000  C
  H65      1.0000 0.28454  0.93865  0.52238  Biso   1.000  H
  H66      1.0000 0.35293  0.99618  0.50388  Biso   1.000  H
  C61      1.0000 0.14667  0.18866  0.17270  Biso   1.000  C
  H67      1.0000 0.10046  0.16159  0.08179  Biso   1.000  H
  H68      1.0000 0.01327  0.21446  0.22007  Biso   1.000  H
  C62      1.0000 0.13634  0.95086  0.14374  Biso   1.000  C
  H69      1.0000 0.06114  0.89955  0.08179  Biso   1.000  H
  H70      1.0000 0.04253  0.82517  0.27029  Biso   1.000  H
  C63      1.0000 0.14326  0.21002  0.23761  Biso   1.000  C
  C64      1.0000 0.16076  0.95289  0.20834  Biso   1.000  C
  C65      1.0000 0.20066  0.17998  0.15613  Biso   1.000  C
  C66      1.0000 0.17176  0.00250  0.09397  Biso   1.000  C
  H71      1.0000 0.17484  0.21738  0.27029  Biso   1.000  H
  H72      1.0000 0.20121  0.98675  0.22007  Biso   1.000  H
  N11      1.0000 0.21096  0.16611  0.09749  Biso   1.000  N
  H73      1.0000 0.22927  0.18517  0.19167  Biso   1.000  H
  H74      1.0000 0.15691  0.99765  0.04839  Biso   1.000  H
  N12      1.0000 0.22016  0.05160  0.11065  Biso   1.000  N
  C67      1.0000 0.26856  0.16385  0.08734  Biso   1.000  C
  C68      1.0000 0.25398  0.09980  0.05930  Biso   1.000  C
  C69      1.0000 0.31317  0.21696  0.04105  Biso   1.000  C
  H75      1.0000 0.28951  0.16989  0.13267  Biso   1.000  H
  C70      1.0000 0.31415  0.09834  0.04100  Biso   1.000  C
  H76      1.0000 0.22702  0.08999  0.01774  Biso   1.000  H
  H77      1.0000 0.29273  0.21266  0.99628  Biso   1.000  H
  H78      1.0000 0.32261  0.25789  0.06119  Biso   1.000  H
  C71      1.0000 0.37473  0.21606  0.03095  Biso   1.000  C
  C72      1.0000 0.36146  0.15399  0.99954  Biso   1.000  C
  H79      1.0000 0.33461  0.09645  0.08378  Biso   1.000  H
  H80      1.0000 0.30226  0.05929  0.01504  Biso   1.000  H
  H81      1.0000 0.40338  0.25139  0.00076  Biso   1.000  H
  H82      1.0000 0.39596  0.22177  0.07546  Biso   1.000  H
  H83      1.0000 0.34516  0.15088  0.95268  Biso   1.000  H
  H84      1.0000 0.40134  0.15296  0.99648  Biso   1.000  H
  C73      1.0000 0.51331  0.64595  0.51050  Biso   1.000  C
  N13      1.0000 0.49946  0.62185  0.56919  Biso   1.000  N
  C74      1.0000 0.52201  0.70868  0.49398  Biso   1.000  C
  H85      1.0000 0.51851  0.62260  0.47502  Biso   1.000  H
  C75      1.0000 0.49719  0.56200  0.57929  Biso   1.000  C
  C76      1.0000 0.50968  0.74414  0.54059  Biso   1.000  C
  C77      1.0000 0.54333  0.73344  0.42902  Biso   1.000  C
  C78      1.0000 0.43316  0.51252  0.60738  Biso   1.000  C
  C79      1.0000 0.55026  0.57044  0.62559  Biso   1.000  C
  H86      1.0000 0.50321  0.54700  0.53401  Biso   1.000  H
  C80      1.0000 0.51881  0.80300  0.52289  Biso   1.000  C
  H87      1.0000 0.49488  0.72778  0.58490  Biso   1.000  H
  C81      1.0000 0.55413  0.79343  0.41102  Biso   1.000  C
  H88      1.0000 0.55069  0.70920  0.39639  Biso   1.000  H
  N14      1.0000 0.38496  0.49814  0.55604  Biso   1.000  N
  C82      1.0000 0.43167  0.45088  0.62569  Biso   1.000  C
  H89      1.0000 0.42332  0.52960  0.64889  Biso   1.000  H
  C83      1.0000 0.54936  0.50795  0.63573  Biso   1.000  C
  H90      1.0000 0.59119  0.60190  0.60550  Biso   1.000  H
  H91      1.0000 0.54601  0.58662  0.67041  Biso   1.000  H
  C84      1.0000 0.54123  0.82743  0.45834  Biso   1.000  C
  C85      1.0000 0.50262  0.83842  0.57271  Biso   1.000  C
  C86      1.0000 0.57548  0.81734  0.34137  Biso   1.000  C
  C87      1.0000 0.33581  0.49738  0.57271  Biso   1.000  C
  H92      1.0000 0.42978  0.42848  0.58291  Biso   1.000  H
  H93      1.0000 0.39260  0.42372  0.65159  Biso   1.000  H
  C88      1.0000 0.48732  0.45918  0.66714  Biso   1.000  C
  H94      1.0000 0.58472  0.51469  0.66592  Biso   1.000  H
  H95      1.0000 0.55511  0.49248  0.59122  Biso   1.000  H
  H96      1.0000 0.54778  0.86790  0.44661  Biso   1.000  H
  N15      1.0000 0.50186  0.88681  0.55604  Biso   1.000  N
  H97      1.0000 0.49260  0.82361  0.61829  Biso   1.000  H
  N16      1.0000 0.58205  0.86969  0.32077  Biso   1.000  N
  H98      1.0000 0.58471  0.79291  0.31083  Biso   1.000  H
  C89      1.0000 0.28420  0.48116  0.52289  Biso   1.000  C
  H99      1.0000 0.33101  0.50738  0.61829  Biso   1.000  H
  H100     1.0000 0.48420  0.47239  0.71400  Biso   1.000  H
  H101     1.0000 0.48628  0.41829  0.67020  Biso   1.000  H
  C90      1.0000 0.48748  0.92063  0.60738  Biso   1.000  C
  C91      1.0000 0.59724  0.88521  0.24898  Biso   1.000  C
  C92      1.0000 0.28619  0.45876  0.45834  Biso   1.000  C
  C93      1.0000 0.23445  0.49031  0.54059  Biso   1.000  C
  C94      1.0000 0.43803  0.93520  0.57929  Biso   1.000  C
  C95      1.0000 0.54914  0.98081  0.62569  Biso   1.000  C
  H102     1.0000 0.47042  0.89370  0.64889  Biso   1.000  H
  C96      1.0000 0.53678  0.87285  0.21232  Biso   1.000  C
  C97      1.0000 0.64688  0.95492  0.24087  Biso   1.000  C
  H103     1.0000 0.61318  0.85818  0.22889  Biso   1.000  H
  C98      1.0000 0.23932  0.44588  0.41102  Biso   1.000  C
  H104     1.0000 0.32008  0.45220  0.44661  Biso   1.000  H
  C99      1.0000 0.18668  0.47800  0.49398  Biso   1.000  C
  H105     1.0000 0.23291  0.50512  0.58490  Biso   1.000  H
  N17      1.0000 0.37815  0.87762  0.56919  Biso   1.000  N
  C100     1.0000 0.42954  0.97982  0.62559  Biso   1.000  C
  H106     1.0000 0.45298  0.95619  0.53401  Biso   1.000  H
  H107     1.0000 0.57630  0.96888  0.65159  Biso   1.000  H
  H108     1.0000 0.57149  0.00133  0.58291  Biso   1.000  H
  C101     1.0000 0.54083  0.02816  0.66714  Biso   1.000  C
  N18      1.0000 0.48884  0.80597  0.22027  Biso   1.000  N
  H109     1.0000 0.52090  0.89950  0.23343  Biso   1.000  H
  C102     1.0000 0.54902  0.88875  0.13650  Biso   1.000  C
  C103     1.0000 0.65969  0.97383  0.16602  Biso   1.000  C
  H110     1.0000 0.68660  0.96312  0.26310  Biso   1.000  H
  H111     1.0000 0.63211  0.98109  0.26402  Biso   1.000  H
  C104     1.0000 0.24183  0.42452  0.34137  Biso   1.000  C
  C105     1.0000 0.19011  0.45668  0.42902  Biso   1.000  C
  C106     1.0000 0.13265  0.48668  0.51050  Biso   1.000  C
  C107     1.0000 0.35402  0.86733  0.51050  Biso   1.000  C
  H112     1.0000 0.39809  0.98930  0.60550  Biso   1.000  H
  H113     1.0000 0.41341  0.95940  0.67041  Biso   1.000  H
  C108     1.0000 0.49199  0.04141  0.63573  Biso   1.000  C
  H114     1.0000 0.52759  0.01180  0.71400  Biso   1.000  H
  H115     1.0000 0.58167  0.06801  0.67020  Biso   1.000  H
  C109     1.0000 0.43614  0.79385  0.24383  Biso   1.000  C
  H116     1.0000 0.56352  0.86172  0.11488  Biso   1.000  H
  H117     1.0000 0.50948  0.88049  0.11391  Biso   1.000  H
  C110     1.0000 0.59981  0.95897  0.12768  Biso   1.000  C
  H118     1.0000 0.67921  0.95119  0.14430  Biso   1.000  H
  H119     1.0000 0.69014  0.01962  0.16281  Biso   1.000  H
  N19      1.0000 0.28765  0.41796  0.32077  Biso   1.000  N
  H120     1.0000 0.20819  0.41532  0.31083  Biso   1.000  H
  H121     1.0000 0.15847  0.44928  0.39639  Biso   1.000  H
  N20      1.0000 0.12239  0.50054  0.56919  Biso   1.000  N
  H122     1.0000 0.10408  0.48149  0.47502  Biso   1.000  H
  C111     1.0000 0.29132  0.81333  0.49398  Biso   1.000  C
  H123     1.0000 0.37742  0.89592  0.47502  Biso   1.000  H
  H124     1.0000 0.48533  0.07000  0.66592  Biso   1.000  H
  H125     1.0000 0.50748  0.06259  0.59122  Biso   1.000  H
  C112     1.0000 0.38391  0.72844  0.25143  Biso   1.000  C
  H126     1.0000 0.42983  0.82772  0.25699  Biso   1.000  H
  H127     1.0000 0.58338  0.98590  0.14512  Biso   1.000  H
  H128     1.0000 0.60951  0.96841  0.07863  Biso   1.000  H
  C113     1.0000 0.28795  0.40273  0.24898  Biso   1.000  C
  C114     1.0000 0.06479  0.50281  0.57929  Biso   1.000  C
  C115     1.0000 0.25587  0.76556  0.54059  Biso   1.000  C
  C116     1.0000 0.26656  0.80989  0.42902  Biso   1.000  C
  C117     1.0000 0.39463  0.67760  0.25219  Biso   1.000  C
  C118     1.0000 0.32243  0.71707  0.25219  Biso   1.000  C
  C119     1.0000 0.30804  0.35311  0.24087  Biso   1.000  C
  C120     1.0000 0.33606  0.46324  0.21232  Biso   1.000  C
  H129     1.0000 0.24498  0.38679  0.22889  Biso   1.000  H
  C121     1.0000 0.02020  0.44975  0.62559  Biso   1.000  C
  H130     1.0000 0.04382  0.49682  0.53401  Biso   1.000  H
  C122     1.0000 0.07937  0.56686  0.60738  Biso   1.000  C
  C123     1.0000 0.19697  0.71580  0.52289  Biso   1.000  C
  H131     1.0000 0.27221  0.76711  0.58490  Biso   1.000  H
  C124     1.0000 0.20660  0.76070  0.41102  Biso   1.000  C
  H132     1.0000 0.29078  0.84149  0.39639  Biso   1.000  H
  C125     1.0000 0.34452  0.61609  0.25143  Biso   1.000  C
  H133     1.0000 0.43669  0.68509  0.25321  Biso   1.000  H
  C126     1.0000 0.27154  0.65548  0.25143  Biso   1.000  C
  H134     1.0000 0.31490  0.75160  0.25321  Biso   1.000  H
  C127     1.0000 0.31412  0.34028  0.16602  Biso   1.000  C
  H135     1.0000 0.27650  0.31340  0.26310  Biso   1.000  H
  H136     1.0000 0.34901  0.36792  0.26402  Biso   1.000  H
  C128     1.0000 0.33973  0.45098  0.13650  Biso   1.000  C
  N21      1.0000 0.31713  0.51116  0.22027  Biso   1.000  N
  H137     1.0000 0.37858  0.47909  0.23343  Biso   1.000  H
  H138     1.0000 0.01072  0.40881  0.60550  Biso   1.000  H
  H139     1.0000 0.04058  0.45399  0.67041  Biso   1.000  H
  C129     1.0000 0.95858  0.45060  0.63573  Biso   1.000  C
  N22      1.0000 0.11319  0.61506  0.55604  Biso   1.000  N
  C130     1.0000 0.01920  0.56832  0.62569  Biso   1.000  C
  H140     1.0000 0.10631  0.57671  0.64889  Biso   1.000  H
  C131     1.0000 0.16162  0.66420  0.57271  Biso   1.000  C
  C132     1.0000 0.17255  0.71377  0.45834  Biso   1.000  C
  C133     1.0000 0.18265  0.75815  0.34137  Biso   1.000  C
  C134     1.0000 0.35773  0.56384  0.24383  Biso   1.000  C
  C135     1.0000 0.28294  0.60534  0.25219  Biso   1.000  C
  C136     1.0000 0.20612  0.64227  0.24383  Biso   1.000  C
  H141     1.0000 0.27199  0.32081  0.14430  Biso   1.000  H
  H142     1.0000 0.32953  0.30991  0.16281  Biso   1.000  H
  C137     1.0000 0.35914  0.40018  0.12768  Biso   1.000  C
  H143     1.0000 0.29818  0.43650  0.11488  Biso   1.000  H
  H144     1.0000 0.37101  0.49050  0.11391  Biso   1.000  H
  H145     1.0000 0.93000  0.41532  0.66592  Biso   1.000  H
  H146     1.0000 0.93739  0.44489  0.59122  Biso   1.000  H
  C138     1.0000 0.97185  0.51267  0.66714  Biso   1.000  C
  H147     1.0000 0.03111  0.60742  0.65159  Biso   1.000  H
  H148     1.0000 0.99870  0.57021  0.58291  Biso   1.000  H
  H149     1.0000 0.17640  0.66901  0.61829  Biso   1.000  H
  H150     1.0000 0.13209  0.67991  0.44661  Biso   1.000  H
  N23      1.0000 0.13031  0.71236  0.32077  Biso   1.000  N
  H151     1.0000 0.20711  0.79178  0.31083  Biso   1.000  H
  H152     1.0000 0.39792  0.57021  0.25699  Biso   1.000  H
  H153     1.0000 0.24841  0.56332  0.25321  Biso   1.000  H
  H154     1.0000 0.17230  0.60209  0.25699  Biso   1.000  H
  N24      1.0000 0.19401  0.68283  0.22027  Biso   1.000  N
  H155     1.0000 0.40251  0.41659  0.14512  Biso   1.000  H
  H156     1.0000 0.35892  0.39051  0.07863  Biso   1.000  H
  H157     1.0000 0.98819  0.51578  0.71400  Biso   1.000  H
  H158     1.0000 0.93201  0.51370  0.67020  Biso   1.000  H
  C139     1.0000 0.11478  0.71203  0.24898  Biso   1.000  C
  C140     1.0000 0.12716  0.66392  0.21232  Biso   1.000  C
  C141     1.0000 0.04509  0.69198  0.24087  Biso   1.000  C
  H159     1.0000 0.14178  0.75499  0.22889  Biso   1.000  H
  H160     1.0000 0.10050  0.62138  0.23343  Biso   1.000  H
  C142     1.0000 0.11126  0.66029  0.13650  Biso   1.000  C
  C143     1.0000 0.02613  0.68585  0.16602  Biso   1.000  C
  H161     1.0000 0.03691  0.72349  0.26310  Biso   1.000  H
  H162     1.0000 0.01892  0.65100  0.26402  Biso   1.000  H
  H163     1.0000 0.13830  0.70179  0.11488  Biso   1.000  H
  H164     1.0000 0.11952  0.62902  0.11391  Biso   1.000  H
  C144     1.0000 0.04105  0.64086  0.12768  Biso   1.000  C
  H165     1.0000 0.04881  0.72801  0.14430  Biso   1.000  H
  H166     1.0000 0.98040  0.67052  0.16281  Biso   1.000  H
  H167     1.0000 0.01411  0.59751  0.14512  Biso   1.000  H
  H168     1.0000 0.03161  0.64109  0.07863  Biso   1.000  H
  C145     1.0000 0.56832  0.54912  0.37436  Biso   1.000  C
  C146     1.0000 0.56686  0.48748  0.39267  Biso   1.000  C
  C147     1.0000 0.51266  0.54082  0.33286  Biso   1.000  C
  H169     1.0000 0.57018  0.57148  0.41709  Biso   1.000  H
  H170     1.0000 0.60739  0.57629  0.34841  Biso   1.000  H
  C148     1.0000 0.50283  0.43801  0.42071  Biso   1.000  C
  N25      1.0000 0.61506  0.50187  0.44401  Biso   1.000  N
  H171     1.0000 0.57671  0.47041  0.35111  Biso   1.000  H
  C149     1.0000 0.45060  0.49201  0.36427  Biso   1.000  C
  H172     1.0000 0.51582  0.52762  0.28600  Biso   1.000  H
  H173     1.0000 0.51370  0.58171  0.32980  Biso   1.000  H
  C150     1.0000 0.44974  0.42952  0.37441  Biso   1.000  C
  N26      1.0000 0.50056  0.37816  0.43086  Biso   1.000  N
  H174     1.0000 0.49681  0.45300  0.46599  Biso   1.000  H
  C151     1.0000 0.66421  0.50262  0.42734  Biso   1.000  C
  H175     1.0000 0.41531  0.48531  0.33408  Biso   1.000  H
  H176     1.0000 0.44489  0.50748  0.40883  Biso   1.000  H
  H177     1.0000 0.40879  0.39811  0.39450  Biso   1.000  H
  H178     1.0000 0.45401  0.41339  0.32959  Biso   1.000  H
  C152     1.0000 0.48669  0.35401  0.48950  Biso   1.000  C
  C153     1.0000 0.71582  0.51884  0.47711  Biso   1.000  C
  H179     1.0000 0.66901  0.49262  0.38171  Biso   1.000  H
  C154     1.0000 0.47798  0.29133  0.50602  Biso   1.000  C
  H180     1.0000 0.48152  0.37740  0.52498  Biso   1.000  H
  C155     1.0000 0.76557  0.50969  0.45941  Biso   1.000  C
  C156     1.0000 0.71376  0.54120  0.54166  Biso   1.000  C
  C157     1.0000 0.49030  0.25586  0.45941  Biso   1.000  C
  C158     1.0000 0.45665  0.26657  0.57098  Biso   1.000  C
  C159     1.0000 0.81334  0.52200  0.50602  Biso   1.000  C
  H181     1.0000 0.76711  0.49489  0.41510  Biso   1.000  H
  H182     1.0000 0.67990  0.54780  0.55339  Biso   1.000  H
  C160     1.0000 0.76070  0.55412  0.58898  Biso   1.000  C
  C161     1.0000 0.48117  0.19700  0.47711  Biso   1.000  C
  H183     1.0000 0.50508  0.27218  0.41510  Biso   1.000  H
  H184     1.0000 0.44929  0.29081  0.60361  Biso   1.000  H
  C162     1.0000 0.44589  0.20658  0.58898  Biso   1.000  C
  C163     1.0000 0.80987  0.54332  0.57098  Biso   1.000  C
  C164     1.0000 0.86737  0.51333  0.48950  Biso   1.000  C
  C165     1.0000 0.75815  0.57549  0.65868  Biso   1.000  C
  C166     1.0000 0.45879  0.17257  0.54166  Biso   1.000  C
  C167     1.0000 0.49741  0.16158  0.42734  Biso   1.000  C
  C168     1.0000 0.42450  0.18266  0.65868  Biso   1.000  C
  H185     1.0000 0.84149  0.55068  0.60361  Biso   1.000  H
  N27      1.0000 0.87764  0.49946  0.43086  Biso   1.000  N
  H186     1.0000 0.89590  0.51851  0.52498  Biso   1.000  H
  N28      1.0000 0.71233  0.58204  0.67923  Biso   1.000  N
  H187     1.0000 0.79179  0.58468  0.68922  Biso   1.000  H
  H188     1.0000 0.45220  0.13210  0.55339  Biso   1.000  H
  N29      1.0000 0.49813  0.11319  0.44401  Biso   1.000  N
  H189     1.0000 0.50738  0.17639  0.38171  Biso   1.000  H
  N30      1.0000 0.41793  0.13031  0.67923  Biso   1.000  N
  H190     1.0000 0.41531  0.20709  0.68922  Biso   1.000  H
  C169     1.0000 0.93520  0.49720  0.42071  Biso   1.000  C
  C170     1.0000 0.71204  0.59723  0.75102  Biso   1.000  C
  C171     1.0000 0.51251  0.07938  0.39267  Biso   1.000  C
  C172     1.0000 0.40274  0.11480  0.75102  Biso   1.000  C
  C173     1.0000 0.97982  0.55025  0.37441  Biso   1.000  C
  H191     1.0000 0.95620  0.50319  0.46599  Biso   1.000  H
  C174     1.0000 0.92065  0.43315  0.39267  Biso   1.000  C
  C175     1.0000 0.66392  0.53677  0.78773  Biso   1.000  C
  C176     1.0000 0.69199  0.64689  0.75913  Biso   1.000  C
  H192     1.0000 0.75500  0.61322  0.77111  Biso   1.000  H
  C177     1.0000 0.45084  0.01920  0.37436  Biso   1.000  C
  C178     1.0000 0.56199  0.06480  0.42071  Biso   1.000  C
  H193     1.0000 0.52961  0.10631  0.35111  Biso   1.000  H
  C179     1.0000 0.46324  0.12715  0.78773  Biso   1.000  C
  C180     1.0000 0.35310  0.04509  0.75913  Biso   1.000  C
  H194     1.0000 0.38680  0.14182  0.77111  Biso   1.000  H
  H195     1.0000 0.98930  0.59119  0.39450  Biso   1.000  H
  H196     1.0000 0.95940  0.54601  0.32959  Biso   1.000  H
  C181     1.0000 0.04142  0.54936  0.36427  Biso   1.000  C
  N31      1.0000 0.88683  0.38495  0.44401  Biso   1.000  N
  C182     1.0000 0.98082  0.43169  0.37436  Biso   1.000  C
  H197     1.0000 0.89371  0.42329  0.35111  Biso   1.000  H
  N32      1.0000 0.68285  0.48885  0.77973  Biso   1.000  N
  H198     1.0000 0.62140  0.52092  0.76662  Biso   1.000  H
  C183     1.0000 0.66029  0.54903  0.86350  Biso   1.000  C
  C184     1.0000 0.68586  0.65972  0.83398  Biso   1.000  C
  H199     1.0000 0.72348  0.68660  0.73690  Biso   1.000  H
  H200     1.0000 0.65101  0.63208  0.73603  Biso   1.000  H
  H201     1.0000 0.42370  0.03108  0.34841  Biso   1.000  H
  H202     1.0000 0.42849  0.99868  0.41709  Biso   1.000  H
  C185     1.0000 0.45915  0.97184  0.33286  Biso   1.000  C
  N33      1.0000 0.62183  0.12239  0.43086  Biso   1.000  N
  C186     1.0000 0.57044  0.02019  0.37441  Biso   1.000  C
  H203     1.0000 0.54701  0.04381  0.46599  Biso   1.000  H
  N34      1.0000 0.51118  0.19403  0.77973  Biso   1.000  N
  H204     1.0000 0.47912  0.10051  0.76662  Biso   1.000  H
  C187     1.0000 0.45096  0.11126  0.86350  Biso   1.000  C
  C188     1.0000 0.34029  0.02618  0.83398  Biso   1.000  C
  H205     1.0000 0.31338  0.03688  0.73690  Biso   1.000  H
  H206     1.0000 0.36791  0.01891  0.73603  Biso   1.000  H
  H207     1.0000 0.06998  0.58468  0.33408  Biso   1.000  H
  H208     1.0000 0.06259  0.55511  0.40883  Biso   1.000  H
  C189     1.0000 0.02817  0.48734  0.33286  Biso   1.000  C
  C190     1.0000 0.83841  0.33580  0.42734  Biso   1.000  C
  H209     1.0000 0.96891  0.39259  0.34841  Biso   1.000  H
  H210     1.0000 0.00128  0.42980  0.41709  Biso   1.000  H
  C191     1.0000 0.64227  0.43612  0.75622  Biso   1.000  C
  H211     1.0000 0.70180  0.56351  0.88512  Biso   1.000  H
  H212     1.0000 0.62901  0.50951  0.88609  Biso   1.000  H
  C192     1.0000 0.64088  0.59982  0.87232  Biso   1.000  C
  H213     1.0000 0.72799  0.67920  0.85570  Biso   1.000  H
  H214     1.0000 0.67050  0.69009  0.83719  Biso   1.000  H
  C193     1.0000 0.50799  0.95859  0.36427  Biso   1.000  C
  H215     1.0000 0.47240  0.98821  0.28600  Biso   1.000  H
  H216     1.0000 0.41827  0.93199  0.32980  Biso   1.000  H
  C194     1.0000 0.64596  0.13267  0.48950  Biso   1.000  C
  H217     1.0000 0.60189  0.01071  0.39450  Biso   1.000  H
  H218     1.0000 0.58662  0.04061  0.32959  Biso   1.000  H
  C195     1.0000 0.56389  0.20615  0.75622  Biso   1.000  C
  H219     1.0000 0.43650  0.13828  0.88512  Biso   1.000  H
  H220     1.0000 0.49050  0.11951  0.88609  Biso   1.000  H
  C196     1.0000 0.40017  0.04103  0.87232  Biso   1.000  C
  H221     1.0000 0.32082  0.04881  0.85570  Biso   1.000  H
  H222     1.0000 0.30988  0.98038  0.83719  Biso   1.000  H
  H223     1.0000 0.01181  0.48418  0.28600  Biso   1.000  H
  H224     1.0000 0.06801  0.48630  0.32980  Biso   1.000  H
  C197     1.0000 0.80301  0.28421  0.47711  Biso   1.000  C
  H225     1.0000 0.82359  0.33099  0.38171  Biso   1.000  H
  C198     1.0000 0.65546  0.38391  0.74857  Biso   1.000  C
  H226     1.0000 0.60211  0.42980  0.74301  Biso   1.000  H
  H227     1.0000 0.59751  0.58341  0.85494  Biso   1.000  H
  H228     1.0000 0.64110  0.60949  0.92143  Biso   1.000  H
  H229     1.0000 0.51473  0.93001  0.33408  Biso   1.000  H
  H230     1.0000 0.49254  0.93741  0.40883  Biso   1.000  H
  C199     1.0000 0.70866  0.18667  0.50602  Biso   1.000  C
  H231     1.0000 0.62260  0.10409  0.52498  Biso   1.000  H
  C200     1.0000 0.61608  0.27157  0.74857  Biso   1.000  C
  H232     1.0000 0.57019  0.17229  0.74301  Biso   1.000  H
  H233     1.0000 0.41660  0.01410  0.85494  Biso   1.000  H
  H234     1.0000 0.39051  0.03160  0.92143  Biso   1.000  H
  C201     1.0000 0.74415  0.23445  0.45941  Biso   1.000  C
  C202     1.0000 0.82741  0.28619  0.54166  Biso   1.000  C
  C203     1.0000 0.60535  0.32241  0.74781  Biso   1.000  C
  C204     1.0000 0.71708  0.39466  0.74781  Biso   1.000  C
  C205     1.0000 0.73346  0.19012  0.57098  Biso   1.000  C
  C206     1.0000 0.67759  0.28293  0.74781  Biso   1.000  C
  H235     1.0000 0.72781  0.23289  0.41510  Biso   1.000  H
  C207     1.0000 0.79343  0.23931  0.58898  Biso   1.000  C
  H236     1.0000 0.86789  0.32010  0.55339  Biso   1.000  H
  H237     1.0000 0.56329  0.31491  0.74679  Biso   1.000  H
  C208     1.0000 0.72845  0.34453  0.74857  Biso   1.000  C
  H238     1.0000 0.75161  0.43669  0.74679  Biso   1.000  H
  H239     1.0000 0.70921  0.15852  0.60361  Biso   1.000  H
  H240     1.0000 0.68512  0.24841  0.74679  Biso   1.000  H
  C209     1.0000 0.81733  0.24185  0.65868  Biso   1.000  C
  C210     1.0000 0.79387  0.35773  0.75622  Biso   1.000  C
  N35      1.0000 0.86972  0.28765  0.67923  Biso   1.000  N
  H241     1.0000 0.79289  0.20818  0.68922  Biso   1.000  H
  H242     1.0000 0.82772  0.39792  0.74301  Biso   1.000  H
  N36      1.0000 0.80599  0.31713  0.77973  Biso   1.000  N
  C211     1.0000 0.88524  0.28798  0.75102  Biso   1.000  C
  C212     1.0000 0.87282  0.33609  0.78773  Biso   1.000  C
  C213     1.0000 0.95494  0.30802  0.75913  Biso   1.000  C
  H243     1.0000 0.85820  0.24501  0.77111  Biso   1.000  H
  H244     1.0000 0.89950  0.37858  0.76662  Biso   1.000  H
  C214     1.0000 0.88872  0.33972  0.86350  Biso   1.000  C
  C215     1.0000 0.97382  0.31411  0.83398  Biso   1.000  C
  H245     1.0000 0.96312  0.27652  0.73690  Biso   1.000  H
  H246     1.0000 0.98110  0.34901  0.73603  Biso   1.000  H
  H247     1.0000 0.86172  0.29821  0.88512  Biso   1.000  H
  H248     1.0000 0.88051  0.37099  0.88609  Biso   1.000  H
  C216     1.0000 0.95897  0.35915  0.87232  Biso   1.000  C
  H249     1.0000 0.95121  0.27199  0.85570  Biso   1.000  H
  H250     1.0000 0.01958  0.32948  0.83719  Biso   1.000  H
  H251     1.0000 0.98591  0.40249  0.85494  Biso   1.000  H
  H252     1.0000 0.96841  0.35891  0.92143  Biso   1.000  H
  C217     1.0000 0.64745  0.76499  0.70768  Biso   1.000  C
  C218     1.0000 0.58731  0.76650  0.72598  Biso   1.000  C
  H253     1.0000 0.66798  0.76315  0.75046  Biso   1.000  H
  H254     1.0000 0.63557  0.72594  0.68173  Biso   1.000  H
  C219     1.0000 0.69480  0.82064  0.66617  Biso   1.000  C
  N37      1.0000 0.55349  0.71830  0.77733  Biso   1.000  N
  C220     1.0000 0.60187  0.83050  0.75403  Biso   1.000  C
  H255     1.0000 0.56037  0.75664  0.68443  Biso   1.000  H
  C221     1.0000 0.70807  0.88271  0.69763  Biso   1.000  C
  H256     1.0000 0.67846  0.81753  0.61937  Biso   1.000  H
  H257     1.0000 0.73466  0.81965  0.66317  Biso   1.000  H
  C222     1.0000 0.50506  0.66915  0.76066  Biso   1.000  C
  N38      1.0000 0.54427  0.83276  0.76417  Biso   1.000  N
  C223     1.0000 0.64648  0.88361  0.70773  Biso   1.000  C
  H258     1.0000 0.62286  0.83654  0.79936  Biso   1.000  H
  H259     1.0000 0.73668  0.91803  0.66745  Biso   1.000  H
  H260     1.0000 0.72926  0.88842  0.74215  Biso   1.000  H
  C224     1.0000 0.46968  0.61751  0.81042  Biso   1.000  C
  H261     1.0000 0.49028  0.66434  0.71502  Biso   1.000  H
  C225     1.0000 0.53403  0.84668  0.82281  Biso   1.000  C
  H262     1.0000 0.65596  0.92454  0.72782  Biso   1.000  H
  H263     1.0000 0.62607  0.87931  0.66296  Biso   1.000  H
  C226     1.0000 0.41080  0.56780  0.79273  Biso   1.000  C
  C227     1.0000 0.49410  0.61954  0.87503  Biso   1.000  C
  C228     1.0000 0.48000  0.85535  0.83938  Biso   1.000  C
  H264     1.0000 0.56257  0.85182  0.85835  Biso   1.000  H
  C229     1.0000 0.37536  0.52002  0.83938  Biso   1.000  C
  H265     1.0000 0.39446  0.56624  0.74842  Biso   1.000  H
  C230     1.0000 0.46008  0.57266  0.92234  Biso   1.000  C
  H266     1.0000 0.53458  0.65345  0.88675  Biso   1.000  H
  C231     1.0000 0.43220  0.84300  0.79273  Biso   1.000  C
  C232     1.0000 0.47657  0.87667  0.90429  Biso   1.000  C
  C233     1.0000 0.31263  0.46597  0.82281  Biso   1.000  C
  C234     1.0000 0.40009  0.52342  0.90429  Biso   1.000  C
  C235     1.0000 0.48400  0.57516  0.99199  Biso   1.000  C
  C236     1.0000 0.38245  0.85215  0.81042  Biso   1.000  C
  H267     1.0000 0.43376  0.82824  0.74842  Biso   1.000  H
  C237     1.0000 0.42733  0.88743  0.92234  Biso   1.000  C
  H268     1.0000 0.50818  0.88403  0.93693  Biso   1.000  H
  N39      1.0000 0.28850  0.45569  0.76417  Biso   1.000  N
  H269     1.0000 0.28926  0.43744  0.85835  Biso   1.000  H
  H270     1.0000 0.37588  0.49182  0.93693  Biso   1.000  H
  N40      1.0000 0.53637  0.62100  0.01254  Biso   1.000  N
  H271     1.0000 0.45955  0.54153  0.02254  Biso   1.000  H
  C238     1.0000 0.33084  0.83592  0.76066  Biso   1.000  C
  C239     1.0000 0.38046  0.87455  0.87503  Biso   1.000  C
  C240     1.0000 0.42485  0.90884  0.99199  Biso   1.000  C
  C241     1.0000 0.22865  0.39815  0.75403  Biso   1.000  C
  C242     1.0000 0.55187  0.62128  0.08434  Biso   1.000  C
  N41      1.0000 0.28172  0.83522  0.77733  Biso   1.000  N
  H272     1.0000 0.33564  0.82592  0.71502  Biso   1.000  H
  H273     1.0000 0.34659  0.88115  0.88675  Biso   1.000  H
  N42      1.0000 0.37903  0.91539  0.01254  Biso   1.000  N
  H274     1.0000 0.45849  0.91803  0.02254  Biso   1.000  H
  C243     1.0000 0.17918  0.41268  0.72598  Biso   1.000  C
  C244     1.0000 0.23714  0.35354  0.70773  Biso   1.000  C
  H275     1.0000 0.21368  0.37712  0.79936  Biso   1.000  H
  C245     1.0000 0.53949  0.66939  0.12105  Biso   1.000  C
  C246     1.0000 0.62159  0.64137  0.09249  Biso   1.000  C
  H276     1.0000 0.52487  0.57832  0.10443  Biso   1.000  H
  C247     1.0000 0.23352  0.82083  0.72598  Biso   1.000  C
  C248     1.0000 0.37870  0.93058  0.08434  Biso   1.000  C
  C249     1.0000 0.11754  0.35255  0.70768  Biso   1.000  C
  N43      1.0000 0.16480  0.44650  0.77733  Biso   1.000  N
  H277     1.0000 0.19626  0.43966  0.68443  Biso   1.000  H
  C250     1.0000 0.17464  0.29194  0.69763  Biso   1.000  C
  H278     1.0000 0.26859  0.34406  0.72782  Biso   1.000  H
  H279     1.0000 0.25325  0.37391  0.66296  Biso   1.000  H
  N44      1.0000 0.47265  0.65048  0.11304  Biso   1.000  N
  H280     1.0000 0.56615  0.71193  0.09994  Biso   1.000  H
  C251     1.0000 0.55542  0.67307  0.19682  Biso   1.000  C
  C252     1.0000 0.64052  0.64746  0.16735  Biso   1.000  C
  H281     1.0000 0.62975  0.60982  0.07021  Biso   1.000  H
  H282     1.0000 0.64774  0.68231  0.06935  Biso   1.000  H
  C253     1.0000 0.16949  0.77136  0.75403  Biso   1.000  C
  C254     1.0000 0.23501  0.88247  0.70768  Biso   1.000  C
  H283     1.0000 0.24334  0.80371  0.68443  Biso   1.000  H
  C255     1.0000 0.33062  0.87012  0.12105  Biso   1.000  C
  C256     1.0000 0.35864  0.98024  0.09249  Biso   1.000  C
  H284     1.0000 0.42167  0.94652  0.10443  Biso   1.000  H
  C257     1.0000 0.12584  0.30519  0.66617  Biso   1.000  C
  H285     1.0000 0.09515  0.33203  0.75046  Biso   1.000  H
  H286     1.0000 0.09036  0.36443  0.68173  Biso   1.000  H
  C258     1.0000 0.16406  0.49493  0.76066  Biso   1.000  C
  H287     1.0000 0.18136  0.26331  0.66745  Biso   1.000  H
  H288     1.0000 0.15917  0.27072  0.74215  Biso   1.000  H
  C259     1.0000 0.46056  0.69108  0.08954  Biso   1.000  C
  H289     1.0000 0.52836  0.63152  0.21844  Biso   1.000  H
  H290     1.0000 0.54716  0.70434  0.21946  Biso   1.000  H
  C260     1.0000 0.62560  0.69245  0.20564  Biso   1.000  C
  H291     1.0000 0.61787  0.60534  0.18902  Biso   1.000  H
  H292     1.0000 0.68628  0.66283  0.17056  Biso   1.000  H
  N45      1.0000 0.16721  0.71151  0.76417  Biso   1.000  N
  C261     1.0000 0.11639  0.76287  0.70773  Biso   1.000  C
  H293     1.0000 0.16347  0.78635  0.79936  Biso   1.000  H
  C262     1.0000 0.17936  0.87417  0.66617  Biso   1.000  C
  H294     1.0000 0.23688  0.90483  0.75046  Biso   1.000  H
  H295     1.0000 0.27408  0.90964  0.68173  Biso   1.000  H
  N46      1.0000 0.34952  0.82215  0.11304  Biso   1.000  N
  H296     1.0000 0.28808  0.85422  0.09994  Biso   1.000  H
  C263     1.0000 0.32692  0.88233  0.19682  Biso   1.000  C
  C264     1.0000 0.35253  0.99302  0.16735  Biso   1.000  C
  H297     1.0000 0.31766  0.96543  0.06935  Biso   1.000  H
  H298     1.0000 0.39018  0.01995  0.07021  Biso   1.000  H
  H299     1.0000 0.13907  0.32151  0.61937  Biso   1.000  H
  H300     1.0000 0.08496  0.26534  0.66317  Biso   1.000  H
  C265     1.0000 0.14785  0.53030  0.81042  Biso   1.000  C
  H301     1.0000 0.17408  0.50974  0.71502  Biso   1.000  H
  C266     1.0000 0.39514  0.67788  0.08189  Biso   1.000  C
  H302     1.0000 0.49435  0.73122  0.07633  Biso   1.000  H
  H303     1.0000 0.65257  0.73584  0.18825  Biso   1.000  H
  H304     1.0000 0.63504  0.69222  0.25474  Biso   1.000  H
  C267     1.0000 0.15334  0.68736  0.82281  Biso   1.000  C
  H305     1.0000 0.07549  0.73146  0.72782  Biso   1.000  H
  H306     1.0000 0.12066  0.74674  0.66296  Biso   1.000  H
  C268     1.0000 0.11729  0.82536  0.69763  Biso   1.000  C
  H307     1.0000 0.18245  0.86092  0.61937  Biso   1.000  H
  H308     1.0000 0.18038  0.91502  0.66317  Biso   1.000  H
  C269     1.0000 0.30893  0.76947  0.08954  Biso   1.000  C
  H309     1.0000 0.36847  0.89681  0.21844  Biso   1.000  H
  H310     1.0000 0.29567  0.84286  0.21946  Biso   1.000  H
  C270     1.0000 0.30754  0.93317  0.20564  Biso   1.000  C
  H311     1.0000 0.39469  0.01255  0.18902  Biso   1.000  H
  H312     1.0000 0.33715  0.02344  0.17056  Biso   1.000  H
  C271     1.0000 0.15700  0.58921  0.79273  Biso   1.000  C
  C272     1.0000 0.12544  0.50592  0.87503  Biso   1.000  C
  C273     1.0000 0.34425  0.61628  0.08117  Biso   1.000  C
  C274     1.0000 0.38371  0.72797  0.08117  Biso   1.000  C
  C275     1.0000 0.14465  0.62463  0.83938  Biso   1.000  C
  H313     1.0000 0.14817  0.71075  0.85835  Biso   1.000  H
  H314     1.0000 0.08194  0.81861  0.66745  Biso   1.000  H
  H315     1.0000 0.11155  0.84083  0.74215  Biso   1.000  H
  C276     1.0000 0.32216  0.71726  0.08189  Biso   1.000  C
  H316     1.0000 0.26876  0.76315  0.07633  Biso   1.000  H
  H317     1.0000 0.26414  0.91671  0.18825  Biso   1.000  H
  H318     1.0000 0.30776  0.94284  0.25474  Biso   1.000  H
  H319     1.0000 0.17178  0.60553  0.74842  Biso   1.000  H
  H320     1.0000 0.11889  0.46546  0.88675  Biso   1.000  H
  C277     1.0000 0.11255  0.53993  0.92234  Biso   1.000  C
  C278     1.0000 0.28275  0.60487  0.08189  Biso   1.000  C
  H321     1.0000 0.35176  0.58171  0.08016  Biso   1.000  H
  H322     1.0000 0.41827  0.77004  0.08016  Biso   1.000  H
  C279     1.0000 0.12332  0.59987  0.90429  Biso   1.000  C
  C280     1.0000 0.27205  0.65576  0.08117  Biso   1.000  C
  C281     1.0000 0.09120  0.51601  0.99199  Biso   1.000  C
  C282     1.0000 0.23052  0.53945  0.08954  Biso   1.000  C
  H323     1.0000 0.11596  0.62411  0.93693  Biso   1.000  H
  H324     1.0000 0.22996  0.64821  0.08016  Biso   1.000  H
  N47      1.0000 0.08460  0.46362  0.01254  Biso   1.000  N
  H325     1.0000 0.08197  0.54044  0.02254  Biso   1.000  H
  N48      1.0000 0.17781  0.52733  0.11304  Biso   1.000  N
  H326     1.0000 0.23685  0.50564  0.07633  Biso   1.000  H
  C283     1.0000 0.06944  0.44815  0.08434  Biso   1.000  C
  C284     1.0000 0.12990  0.46050  0.12105  Biso   1.000  C
  C285     1.0000 0.01977  0.37839  0.09249  Biso   1.000  C
  H327     1.0000 0.05347  0.47512  0.10443  Biso   1.000  H
  H328     1.0000 0.14578  0.43386  0.09994  Biso   1.000  H
  C286     1.0000 0.11766  0.44461  0.19682  Biso   1.000  C
  H329     1.0000 0.98008  0.37023  0.07021  Biso   1.000  H
  C287     1.0000 0.00697  0.35948  0.16735  Biso   1.000  C
  H330     1.0000 0.03454  0.35222  0.06935  Biso   1.000  H
  H331     1.0000 0.10315  0.47163  0.21844  Biso   1.000  H
  H332     1.0000 0.15718  0.45282  0.21946  Biso   1.000  H
  C288     1.0000 0.06686  0.37438  0.20564  Biso   1.000  C
  H333     1.0000 0.98745  0.38212  0.18902  Biso   1.000  H
  H334     1.0000 0.97658  0.31373  0.17056  Biso   1.000  H
  H335     1.0000 0.08330  0.34745  0.18825  Biso   1.000  H
  H336     1.0000 0.05716  0.36495  0.25474  Biso   1.000  H
  C289     1.0000 0.76289  0.64647  0.29227  Biso   1.000  C
  C290     1.0000 0.77133  0.60185  0.24597  Biso   1.000  C
  H337     1.0000 0.73144  0.65595  0.27218  Biso   1.000  H
  H338     1.0000 0.74671  0.62605  0.33709  Biso   1.000  H
  C291     1.0000 0.82534  0.70806  0.30237  Biso   1.000  C
  N49      1.0000 0.71150  0.54427  0.23583  Biso   1.000  N
  H339     1.0000 0.78634  0.62289  0.20069  Biso   1.000  H
  C292     1.0000 0.82084  0.58733  0.27402  Biso   1.000  C
  H340     1.0000 0.81863  0.73664  0.33255  Biso   1.000  H
  H341     1.0000 0.84085  0.72929  0.25785  Biso   1.000  H
  C293     1.0000 0.87418  0.69481  0.33383  Biso   1.000  C
  C294     1.0000 0.68739  0.53403  0.17719  Biso   1.000  C
  N50      1.0000 0.83522  0.55351  0.22267  Biso   1.000  N
  C295     1.0000 0.88248  0.64746  0.29232  Biso   1.000  C
  H342     1.0000 0.80372  0.56035  0.31557  Biso   1.000  H
  H343     1.0000 0.86093  0.67844  0.38069  Biso   1.000  H
  H344     1.0000 0.91502  0.73466  0.33689  Biso   1.000  H
  C296     1.0000 0.62467  0.47998  0.16067  Biso   1.000  C
  H345     1.0000 0.71072  0.56256  0.14165  Biso   1.000  H
  C297     1.0000 0.83592  0.50507  0.23934  Biso   1.000  C
  H346     1.0000 0.90483  0.66797  0.24959  Biso   1.000  H
  H347     1.0000 0.90963  0.63557  0.31827  Biso   1.000  H
  C298     1.0000 0.58918  0.43221  0.20727  Biso   1.000  C
  C299     1.0000 0.59989  0.47659  0.09571  Biso   1.000  C
  C300     1.0000 0.85218  0.46970  0.18958  Biso   1.000  C
  H348     1.0000 0.82594  0.49026  0.28498  Biso   1.000  H
  C301     1.0000 0.53034  0.38249  0.18958  Biso   1.000  C
  H349     1.0000 0.60552  0.43376  0.25158  Biso   1.000  H
  C302     1.0000 0.53990  0.42735  0.07771  Biso   1.000  C
  H350     1.0000 0.62415  0.50819  0.06307  Biso   1.000  H
  C303     1.0000 0.84302  0.41079  0.20727  Biso   1.000  C
  C304     1.0000 0.87454  0.49408  0.12497  Biso   1.000  C
  C305     1.0000 0.49492  0.33085  0.23934  Biso   1.000  C
  C306     1.0000 0.50592  0.38047  0.12497  Biso   1.000  C
  C307     1.0000 0.51602  0.42485  0.00801  Biso   1.000  C
  C308     1.0000 0.85535  0.37533  0.16067  Biso   1.000  C
  H351     1.0000 0.82825  0.39447  0.25158  Biso   1.000  H
  H352     1.0000 0.88113  0.53455  0.11325  Biso   1.000  H
  C309     1.0000 0.88743  0.46008  0.07771  Biso   1.000  C
  N51      1.0000 0.44649  0.28171  0.22267  Biso   1.000  N
  H353     1.0000 0.50974  0.33566  0.28498  Biso   1.000  H
  H354     1.0000 0.46544  0.34656  0.11325  Biso   1.000  H
  N52      1.0000 0.46361  0.37900  0.98746  Biso   1.000  N
  H355     1.0000 0.54043  0.45848  0.97746  Biso   1.000  H
  C310     1.0000 0.84664  0.31265  0.17719  Biso   1.000  C
  C311     1.0000 0.87668  0.40009  0.09571  Biso   1.000  C
  C312     1.0000 0.90883  0.48399  0.00801  Biso   1.000  C
  C313     1.0000 0.41267  0.23351  0.27402  Biso   1.000  C
  C314     1.0000 0.44811  0.37872  0.91566  Biso   1.000  C
  N53      1.0000 0.83277  0.28850  0.23583  Biso   1.000  N
  H356     1.0000 0.85181  0.28925  0.14165  Biso   1.000  H
  H357     1.0000 0.88404  0.37584  0.06307  Biso   1.000  H
  N54      1.0000 0.91542  0.53639  0.98746  Biso   1.000  N
  H358     1.0000 0.91801  0.45956  0.97746  Biso   1.000  H
  C315     1.0000 0.35253  0.23502  0.29232  Biso   1.000  C
  C316     1.0000 0.39815  0.16951  0.24597  Biso   1.000  C
  H359     1.0000 0.43962  0.24336  0.31557  Biso   1.000  H
  C317     1.0000 0.46053  0.33062  0.87900  Biso   1.000  C
  C318     1.0000 0.37839  0.35863  0.90756  Biso   1.000  C
  H360     1.0000 0.47515  0.42169  0.89557  Biso   1.000  H
  C319     1.0000 0.83049  0.22865  0.24597  Biso   1.000  C
  C320     1.0000 0.93059  0.55186  0.91566  Biso   1.000  C
  H361     1.0000 0.33204  0.23685  0.24959  Biso   1.000  H
  H362     1.0000 0.36442  0.27407  0.31827  Biso   1.000  H
  C321     1.0000 0.30518  0.17936  0.33383  Biso   1.000  C
  N55      1.0000 0.45569  0.16719  0.23583  Biso   1.000  N
  C322     1.0000 0.35351  0.11640  0.29227  Biso   1.000  C
  H363     1.0000 0.37712  0.16347  0.20069  Biso   1.000  H
  N56      1.0000 0.52734  0.34953  0.88696  Biso   1.000  N
  H364     1.0000 0.43383  0.28807  0.90006  Biso   1.000  H
  C323     1.0000 0.44460  0.32694  0.80318  Biso   1.000  C
  C324     1.0000 0.35950  0.35255  0.83270  Biso   1.000  C
  H365     1.0000 0.37023  0.39018  0.92979  Biso   1.000  H
  H366     1.0000 0.35222  0.31765  0.93071  Biso   1.000  H
  C325     1.0000 0.76646  0.17917  0.27402  Biso   1.000  C
  C326     1.0000 0.88359  0.23714  0.29227  Biso   1.000  C
  H367     1.0000 0.83651  0.21365  0.20069  Biso   1.000  H
  C327     1.0000 0.87009  0.53950  0.87900  Biso   1.000  C
  C328     1.0000 0.98023  0.62157  0.90756  Biso   1.000  C
  H368     1.0000 0.94655  0.52488  0.89557  Biso   1.000  H
  C329     1.0000 0.29191  0.11730  0.30237  Biso   1.000  C
  H369     1.0000 0.32152  0.18248  0.38069  Biso   1.000  H
  H370     1.0000 0.26532  0.18035  0.33689  Biso   1.000  H
  C330     1.0000 0.46595  0.15333  0.17719  Biso   1.000  C
  H371     1.0000 0.34402  0.07546  0.27218  Biso   1.000  H
  H372     1.0000 0.37393  0.12064  0.33709  Biso   1.000  H
  C331     1.0000 0.53946  0.30892  0.91051  Biso   1.000  C
  H373     1.0000 0.47163  0.36849  0.78156  Biso   1.000  H
  H374     1.0000 0.45282  0.29567  0.78059  Biso   1.000  H
  C332     1.0000 0.37438  0.30755  0.79436  Biso   1.000  C
  H375     1.0000 0.38211  0.39466  0.81098  Biso   1.000  H
  H376     1.0000 0.31375  0.33717  0.82949  Biso   1.000  H
  N57      1.0000 0.71826  0.16479  0.22267  Biso   1.000  N
  C333     1.0000 0.76501  0.11753  0.29232  Biso   1.000  C
  H377     1.0000 0.75662  0.19625  0.31557  Biso   1.000  H
  C334     1.0000 0.88273  0.17465  0.30237  Biso   1.000  C
  H378     1.0000 0.92454  0.26855  0.27218  Biso   1.000  H
  H379     1.0000 0.87932  0.25327  0.33709  Biso   1.000  H
  N58      1.0000 0.82217  0.47267  0.88696  Biso   1.000  N
  H380     1.0000 0.85421  0.56615  0.90006  Biso   1.000  H
  C335     1.0000 0.88236  0.55540  0.80318  Biso   1.000  C
  C336     1.0000 0.99306  0.64053  0.83270  Biso   1.000  C
  H381     1.0000 0.96544  0.64779  0.93071  Biso   1.000  H
  H382     1.0000 0.01995  0.62977  0.92979  Biso   1.000  H
  H383     1.0000 0.26334  0.08197  0.33255  Biso   1.000  H
  H384     1.0000 0.27076  0.11159  0.25785  Biso   1.000  H
  C337     1.0000 0.51998  0.14465  0.16067  Biso   1.000  C
  H385     1.0000 0.43745  0.14819  0.14165  Biso   1.000  H
  C338     1.0000 0.60488  0.32213  0.91811  Biso   1.000  C
  H386     1.0000 0.50563  0.26878  0.92367  Biso   1.000  H
  H387     1.0000 0.34741  0.26416  0.81180  Biso   1.000  H
  H388     1.0000 0.36494  0.30779  0.74526  Biso   1.000  H
  C339     1.0000 0.66914  0.16408  0.23934  Biso   1.000  C
  H389     1.0000 0.76315  0.09518  0.24959  Biso   1.000  H
  H390     1.0000 0.72594  0.09036  0.31827  Biso   1.000  H
  C340     1.0000 0.82067  0.12583  0.33383  Biso   1.000  C
  H391     1.0000 0.91802  0.18134  0.33255  Biso   1.000  H
  H392     1.0000 0.88844  0.15918  0.25785  Biso   1.000  H
  C341     1.0000 0.76947  0.46055  0.91051  Biso   1.000  C
  H393     1.0000 0.89683  0.52837  0.78156  Biso   1.000  H
  H394     1.0000 0.84285  0.54719  0.78059  Biso   1.000  H
  C342     1.0000 0.93316  0.62562  0.79436  Biso   1.000  C
  H395     1.0000 0.01253  0.61789  0.81098  Biso   1.000  H
  H396     1.0000 0.02345  0.68627  0.82949  Biso   1.000  H
  C343     1.0000 0.56778  0.15701  0.20727  Biso   1.000  C
  C344     1.0000 0.52346  0.12333  0.09571  Biso   1.000  C
  C345     1.0000 0.65573  0.38372  0.91888  Biso   1.000  C
  C346     1.0000 0.61627  0.27204  0.91888  Biso   1.000  C
  C347     1.0000 0.61753  0.14786  0.18958  Biso   1.000  C
  H397     1.0000 0.66434  0.17408  0.28498  Biso   1.000  H
  H398     1.0000 0.81753  0.13908  0.38069  Biso   1.000  H
  H399     1.0000 0.81965  0.08499  0.33689  Biso   1.000  H
  C348     1.0000 0.71727  0.39513  0.91811  Biso   1.000  C
  H400     1.0000 0.76313  0.49437  0.92367  Biso   1.000  H
  H401     1.0000 0.91673  0.65255  0.81180  Biso   1.000  H
  H402     1.0000 0.94282  0.63505  0.74526  Biso   1.000  H
  H403     1.0000 0.56622  0.17177  0.25158  Biso   1.000  H
  H404     1.0000 0.49184  0.11597  0.06307  Biso   1.000  H
  C349     1.0000 0.57265  0.11258  0.07771  Biso   1.000  C
  H405     1.0000 0.64820  0.41824  0.91990  Biso   1.000  H
  C350     1.0000 0.67787  0.28274  0.91811  Biso   1.000  C
  H406     1.0000 0.58172  0.22997  0.91990  Biso   1.000  H
  C351     1.0000 0.61956  0.12545  0.12497  Biso   1.000  C
  C352     1.0000 0.72798  0.34425  0.91888  Biso   1.000  C
  C353     1.0000 0.57518  0.09117  0.00801  Biso   1.000  C
  C354     1.0000 0.69105  0.23053  0.91051  Biso   1.000  C
  H407     1.0000 0.65343  0.11885  0.11325  Biso   1.000  H
  H408     1.0000 0.77004  0.35174  0.91990  Biso   1.000  H
  N59      1.0000 0.62099  0.08461  0.98746  Biso   1.000  N
  H409     1.0000 0.54154  0.08197  0.97746  Biso   1.000  H
  N60      1.0000 0.65048  0.17781  0.88696  Biso   1.000  N
  H410     1.0000 0.73122  0.23685  0.92367  Biso   1.000  H
  C355     1.0000 0.62128  0.06942  0.91566  Biso   1.000  C
  C356     1.0000 0.66940  0.12989  0.87900  Biso   1.000  C
  C357     1.0000 0.64134  0.01976  0.90756  Biso   1.000  C
  H411     1.0000 0.57835  0.05348  0.89557  Biso   1.000  H
  H412     1.0000 0.71195  0.14578  0.90006  Biso   1.000  H
  C358     1.0000 0.67303  0.11763  0.80318  Biso   1.000  C
  H413     1.0000 0.60984  0.98005  0.92979  Biso   1.000  H
  C359     1.0000 0.64749  0.00698  0.83270  Biso   1.000  C
  H414     1.0000 0.68232  0.03457  0.93071  Biso   1.000  H
  H415     1.0000 0.63153  0.10315  0.78156  Biso   1.000  H
  H416     1.0000 0.70431  0.15715  0.78059  Biso   1.000  H
  C360     1.0000 0.69244  0.06683  0.79436  Biso   1.000  C
  H417     1.0000 0.60529  0.98745  0.81098  Biso   1.000  H
  H418     1.0000 0.66283  0.97656  0.82949  Biso   1.000  H
  H419     1.0000 0.73582  0.08324  0.81180  Biso   1.000  H
  H420     1.0000 0.69223  0.05716  0.74526  Biso   1.000  H
  C361     1.0000 0.90850  0.75782  0.67469  Biso   1.000  C
  N61      1.0000 0.95432  0.75127  0.65414  Biso   1.000  N
  H421     1.0000 0.87486  0.74862  0.64415  Biso   1.000  H
  C362     1.0000 0.90597  0.77923  0.74434  Biso   1.000  C
  C363     1.0000 0.95461  0.73608  0.58235  Biso   1.000  C
  C364     1.0000 0.85678  0.78999  0.76239  Biso   1.000  C
  C365     1.0000 0.95289  0.79211  0.79166  Biso   1.000  C
  C366     1.0000 0.00275  0.79659  0.54564  Biso   1.000  C
  C367     1.0000 0.97469  0.68646  0.57419  Biso   1.000  C
  H422     1.0000 0.91168  0.72014  0.56226  Biso   1.000  H
  C368     1.0000 0.85331  0.81130  0.82735  Biso   1.000  C
  H423     1.0000 0.82517  0.78263  0.72976  Biso   1.000  H
  C369     1.0000 0.95086  0.81451  0.85626  Biso   1.000  C
  H424     1.0000 0.98678  0.78555  0.77993  Biso   1.000  H
  N62      1.0000 0.98383  0.84451  0.55364  Biso   1.000  N
  H425     1.0000 0.04527  0.81244  0.56674  Biso   1.000  H
  C370     1.0000 0.00639  0.78433  0.46987  Biso   1.000  C
  C371     1.0000 0.98082  0.67363  0.49934  Biso   1.000  C
  H426     1.0000 0.94319  0.64675  0.59642  Biso   1.000  H
  H427     1.0000 0.01565  0.70122  0.59734  Biso   1.000  H
  C372     1.0000 0.79931  0.82003  0.84387  Biso   1.000  C
  C373     1.0000 0.90111  0.82366  0.87395  Biso   1.000  C
  C374     1.0000 0.00247  0.83074  0.90603  Biso   1.000  C
  C375     1.0000 0.02438  0.89719  0.57715  Biso   1.000  C
  H428     1.0000 0.96488  0.76985  0.44825  Biso   1.000  H
  H429     1.0000 0.03767  0.82385  0.44723  Biso   1.000  H
  C376     1.0000 0.02579  0.73353  0.46104  Biso   1.000  C
  H430     1.0000 0.93869  0.65416  0.47762  Biso   1.000  H
  H431     1.0000 0.99616  0.64321  0.49612  Biso   1.000  H
  N63      1.0000 0.78904  0.83390  0.90251  Biso   1.000  N
  H432     1.0000 0.77077  0.81484  0.80833  Biso   1.000  H
  H433     1.0000 0.89954  0.83842  0.91826  Biso   1.000  H
  H434     1.0000 0.99767  0.84073  0.95166  Biso   1.000  H
  N64      1.0000 0.05159  0.83144  0.88935  Biso   1.000  N
  C377     1.0000 0.01119  0.94940  0.58480  Biso   1.000  C
  H435     1.0000 0.06457  0.90356  0.59035  Biso   1.000  H
  H436     1.0000 0.06917  0.74994  0.47843  Biso   1.000  H
  H437     1.0000 0.02555  0.72382  0.41194  Biso   1.000  H
  C378     1.0000 0.73148  0.83616  0.91266  Biso   1.000  C
  C379     1.0000 0.09979  0.84583  0.94070  Biso   1.000  C
  C380     1.0000 0.94960  0.93869  0.58551  Biso   1.000  C
  C381     1.0000 0.06129  0.01095  0.58551  Biso   1.000  C
  C382     1.0000 0.74600  0.90016  0.94070  Biso   1.000  C
  C383     1.0000 0.68683  0.78305  0.95895  Biso   1.000  C
  H438     1.0000 0.71045  0.83012  0.86733  Biso   1.000  H
  C384     1.0000 0.16382  0.89530  0.91266  Biso   1.000  C
  C385     1.0000 0.09834  0.78419  0.95900  Biso   1.000  C
  H439     1.0000 0.08997  0.86295  0.98226  Biso   1.000  H
  C386     1.0000 0.93821  0.98878  0.58480  Biso   1.000  C
  H440     1.0000 0.91504  0.89662  0.58653  Biso   1.000  H
  C387     1.0000 0.05056  0.06179  0.58480  Biso   1.000  C
  H441     1.0000 0.10335  0.01845  0.58653  Biso   1.000  H
  N65      1.0000 0.77982  0.94836  0.88935  Biso   1.000  N
  C388     1.0000 0.68585  0.90167  0.95900  Biso   1.000  C
  H442     1.0000 0.77294  0.91002  0.98226  Biso   1.000  H
  C389     1.0000 0.62524  0.78395  0.96905  Biso   1.000  C
  H443     1.0000 0.67735  0.74212  0.93886  Biso   1.000  H
  H444     1.0000 0.70728  0.78735  0.00372  Biso   1.000  H
  N66      1.0000 0.16609  0.95515  0.90251  Biso   1.000  N
  C390     1.0000 0.21692  0.90379  0.95895  Biso   1.000  C
  H445     1.0000 0.16987  0.88035  0.86733  Biso   1.000  H
  H446     1.0000 0.09647  0.76183  0.91622  Biso   1.000  H
  H447     1.0000 0.05927  0.75702  0.98496  Biso   1.000  H
  C391     1.0000 0.15399  0.79249  0.00046  Biso   1.000  C
  C392     1.0000 0.87281  0.97562  0.57715  Biso   1.000  C
  C393     1.0000 0.98906  0.05038  0.58551  Biso   1.000  C
  C394     1.0000 0.10279  0.12720  0.57715  Biso   1.000  C
  C395     1.0000 0.82825  0.99751  0.90603  Biso   1.000  C
  H448     1.0000 0.66540  0.90356  0.91622  Biso   1.000  H
  H449     1.0000 0.69774  0.94072  0.98496  Biso   1.000  H
  C396     1.0000 0.63850  0.84602  0.00046  Biso   1.000  C
  H450     1.0000 0.59667  0.74862  0.99924  Biso   1.000  H
  H451     1.0000 0.60409  0.77824  0.92454  Biso   1.000  H
  C397     1.0000 0.17997  0.97930  0.84387  Biso   1.000  C
  H452     1.0000 0.25789  0.93525  0.93886  Biso   1.000  H
  C398     1.0000 0.21606  0.84130  0.96905  Biso   1.000  C
  H453     1.0000 0.21265  0.91992  0.00372  Biso   1.000  H
  H454     1.0000 0.15086  0.80574  0.04732  Biso   1.000  H
  H455     1.0000 0.15297  0.75164  0.00352  Biso   1.000  H
  N67      1.0000 0.86070  0.01618  0.55364  Biso   1.000  N
  H456     1.0000 0.83896  0.93544  0.59035  Biso   1.000  H
  H457     1.0000 0.98159  0.08495  0.58653  Biso   1.000  H
  H458     1.0000 0.09650  0.16102  0.59035  Biso   1.000  H
  N68      1.0000 0.15554  0.13933  0.55364  Biso   1.000  N
  C399     1.0000 0.86367  0.04915  0.85626  Biso   1.000  C
  H459     1.0000 0.84303  0.00232  0.95166  Biso   1.000  H
  H460     1.0000 0.65485  0.84913  0.04732  Biso   1.000  H
  H461     1.0000 0.59867  0.84705  0.00352  Biso   1.000  H
  C400     1.0000 0.18866  0.04203  0.82735  Biso   1.000  C
  H462     1.0000 0.18516  0.95595  0.80833  Biso   1.000  H
  H463     1.0000 0.25137  0.84804  0.99924  Biso   1.000  H
  H464     1.0000 0.22176  0.82583  0.92454  Biso   1.000  H
  C401     1.0000 0.79386  0.99727  0.54564  Biso   1.000  C
  C402     1.0000 0.20341  0.20616  0.54564  Biso   1.000  C
  C403     1.0000 0.83925  0.04712  0.79166  Biso   1.000  C
  C404     1.0000 0.92253  0.09891  0.87395  Biso   1.000  C
  C405     1.0000 0.21003  0.06679  0.76239  Biso   1.000  C
  C406     1.0000 0.17635  0.07745  0.87395  Biso   1.000  C
  C407     1.0000 0.77793  0.99359  0.46987  Biso   1.000  C
  H465     1.0000 0.76716  0.95473  0.56674  Biso   1.000  H
  C408     1.0000 0.78144  0.04538  0.58235  Biso   1.000  C
  H466     1.0000 0.18756  0.23285  0.56674  Biso   1.000  H
  C409     1.0000 0.21567  0.22210  0.46987  Biso   1.000  C
  C410     1.0000 0.26390  0.21856  0.58235  Biso   1.000  C
  C411     1.0000 0.87325  0.09405  0.74434  Biso   1.000  C
  H467     1.0000 0.79875  0.01326  0.77993  Biso   1.000  H
  C412     1.0000 0.95802  0.14668  0.82735  Biso   1.000  C
  H468     1.0000 0.93884  0.10042  0.91826  Biso   1.000  H
  C413     1.0000 0.22080  0.12673  0.74434  Biso   1.000  C
  H469     1.0000 0.21739  0.04255  0.72976  Biso   1.000  H
  C414     1.0000 0.18550  0.13635  0.85626  Biso   1.000  C
  H470     1.0000 0.16153  0.06113  0.91826  Biso   1.000  H
  C415     1.0000 0.70771  0.97421  0.46104  Biso   1.000  C
  H471     1.0000 0.78615  0.96232  0.44723  Biso   1.000  H
  H472     1.0000 0.80499  0.03514  0.44825  Biso   1.000  H
  C416     1.0000 0.71178  0.02533  0.57419  Biso   1.000  C
  N69      1.0000 0.79700  0.04571  0.65414  Biso   1.000  N
  H473     1.0000 0.80848  0.08834  0.56226  Biso   1.000  H
  H474     1.0000 0.23016  0.19503  0.44825  Biso   1.000  H
  H475     1.0000 0.17617  0.21384  0.44723  Biso   1.000  H
  C417     1.0000 0.26649  0.29228  0.46104  Biso   1.000  C
  N70      1.0000 0.24871  0.20304  0.65414  Biso   1.000  N
  C418     1.0000 0.31358  0.28827  0.57419  Biso   1.000  C
  H476     1.0000 0.27983  0.19154  0.56226  Biso   1.000  H
  C419     1.0000 0.84935  0.09150  0.67469  Biso   1.000  C
  C420     1.0000 0.93326  0.14324  0.76239  Biso   1.000  C
  C421     1.0000 0.02067  0.20068  0.84387  Biso   1.000  C
  C422     1.0000 0.24218  0.15069  0.67469  Biso   1.000  C
  C423     1.0000 0.20793  0.16078  0.79166  Biso   1.000  C
  C424     1.0000 0.16929  0.17173  0.90603  Biso   1.000  C
  H477     1.0000 0.68074  0.93082  0.47843  Biso   1.000  H
  H478     1.0000 0.69827  0.97444  0.41194  Biso   1.000  H
  C425     1.0000 0.69283  0.01920  0.49934  Biso   1.000  C
  H479     1.0000 0.68557  0.98435  0.59734  Biso   1.000  H
  H480     1.0000 0.70356  0.05684  0.59642  Biso   1.000  H
  C426     1.0000 0.32634  0.30718  0.49934  Biso   1.000  C
  H481     1.0000 0.25008  0.31925  0.47843  Biso   1.000  H
  H482     1.0000 0.27617  0.30176  0.41194  Biso   1.000  H
  H483     1.0000 0.35327  0.29643  0.59642  Biso   1.000  H
  H484     1.0000 0.29877  0.31444  0.59734  Biso   1.000  H
  H485     1.0000 0.87380  0.12513  0.64415  Biso   1.000  H
  H486     1.0000 0.95743  0.17484  0.72976  Biso   1.000  H
  N71      1.0000 0.04485  0.21097  0.90251  Biso   1.000  N
  H487     1.0000 0.04405  0.22922  0.80833  Biso   1.000  H
  H488     1.0000 0.25140  0.12626  0.64415  Biso   1.000  H
  H489     1.0000 0.21444  0.20125  0.77993  Biso   1.000  H
  N72      1.0000 0.16851  0.22016  0.88935  Biso   1.000  N
  H490     1.0000 0.15927  0.15692  0.95166  Biso   1.000  H
  H491     1.0000 0.71544  0.06132  0.47762  Biso   1.000  H
  H492     1.0000 0.64707  0.00382  0.49612  Biso   1.000  H
  H493     1.0000 0.34590  0.28454  0.47762  Biso   1.000  H
  H494     1.0000 0.35673  0.35293  0.49612  Biso   1.000  H
  C427     1.0000 0.10470  0.26851  0.91266  Biso   1.000  C
  C428     1.0000 0.15413  0.25398  0.94070  Biso   1.000  C
  C429     1.0000 0.09624  0.31317  0.95895  Biso   1.000  C
  H495     1.0000 0.11967  0.28954  0.86733  Biso   1.000  H
  C430     1.0000 0.21583  0.31416  0.95900  Biso   1.000  C
  H496     1.0000 0.13711  0.22705  0.98226  Biso   1.000  H
  H497     1.0000 0.06475  0.32265  0.93886  Biso   1.000  H
  C431     1.0000 0.15873  0.37476  0.96905  Biso   1.000  C
  H498     1.0000 0.08006  0.29275  0.00372  Biso   1.000  H
  C432     1.0000 0.20747  0.36146  0.00046  Biso   1.000  C
  H499     1.0000 0.23816  0.33463  0.91622  Biso   1.000  H
  H500     1.0000 0.24299  0.30223  0.98496  Biso   1.000  H
  H501     1.0000 0.15194  0.40335  0.99924  Biso   1.000  H
  H502     1.0000 0.17418  0.39594  0.92454  Biso   1.000  H
  H503     1.0000 0.19428  0.34515  0.04732  Biso   1.000  H
  H504     1.0000 0.24835  0.40132  0.00352  Biso   1.000  H
