data_image0
_cell_length_a       15.884
_cell_length_b       15.985
_cell_length_c       21.691
_cell_angle_alpha    101.88
_cell_angle_beta     108.09
_cell_angle_gamma    96.14

_symmetry_space_group_name_H-M    "P 1"
_symmetry_int_tables_number       1

loop_
  _symmetry_equiv_pos_as_xyz
  'x, y, z'

loop_
  _atom_site_label
  _atom_site_occupancy
  _atom_site_fract_x
  _atom_site_fract_y
  _atom_site_fract_z
  _atom_site_thermal_displace_type
  _atom_site_B_iso_or_equiv
  _atom_site_type_symbol
  O1       1.0000 0.25306  0.12005  0.57003  Biso   1.000  O
  C1       1.0000 0.32008  0.16401  0.61003  Biso   1.000  C
  C2       1.0000 0.32009  0.16408  0.61003  Biso   1.000  C
  O2       1.0000 0.38810  0.19803  0.59404  Biso   1.000  O
  O3       1.0000 0.38804  0.19803  0.59404  Biso   1.000  O
  C3       1.0000 0.34308  0.18304  0.68603  Biso   1.000  C
  C4       1.0000 0.37306  0.18900  0.52300  Biso   1.000  C
  C5       1.0000 0.37307  0.18906  0.52300  Biso   1.000  C
  C6       1.0000 0.42210  0.23507  0.72703  Biso   1.000  C
  C7       1.0000 0.27708  0.14902  0.70603  Biso   1.000  C
  C8       1.0000 0.27708  0.14908  0.70603  Biso   1.000  C
  C9       1.0000 0.34506  0.25503  0.49202  Biso   1.000  C
  C10      1.0000 0.39003  0.11499  0.48501  Biso   1.000  C
  C11      1.0000 0.39004  0.11506  0.48501  Biso   1.000  C
  H1       1.0000 0.47111  0.26105  0.70803  Biso   1.000  H
  C12      1.0000 0.43711  0.25205  0.79701  Biso   1.000  C
  H2       1.0000 0.47105  0.26105  0.70803  Biso   1.000  H
  C13      1.0000 0.43705  0.25205  0.79701  Biso   1.000  C
  C14      1.0000 0.29507  0.16802  0.77601  Biso   1.000  C
  H3       1.0000 0.21610  0.10702  0.67104  Biso   1.000  H
  H4       1.0000 0.21605  0.10708  0.67104  Biso   1.000  H
  C15      1.0000 0.33702  0.24802  0.42600  Biso   1.000  C
  O4       1.0000 0.32609  0.32606  0.53303  Biso   1.000  O
  O5       1.0000 0.32602  0.32606  0.53303  Biso   1.000  O
  C16      1.0000 0.38608  0.10803  0.42104  Biso   1.000  C
  C17      1.0000 0.38602  0.10803  0.42104  Biso   1.000  C
  O6       1.0000 0.41605  0.04805  0.51704  Biso   1.000  O
  H5       1.0000 0.49913  0.29207  0.83306  Biso   1.000  H
  C18      1.0000 0.37708  0.21803  0.82102  Biso   1.000  C
  H6       1.0000 0.49907  0.29207  0.83306  Biso   1.000  H
  C19      1.0000 0.22509  0.13506  0.80403  Biso   1.000  C
  C20      1.0000 0.30002  0.32104  0.39502  Biso   1.000  C
  C21      1.0000 0.36106  0.17703  0.39201  Biso   1.000  C
  C22      1.0000 0.23403  0.32403  0.52802  Biso   1.000  C
  C23      1.0000 0.40906  0.02801  0.38003  Biso   1.000  C
  C24      1.0000 0.40907  0.02807  0.38003  Biso   1.000  C
  C25      1.0000 0.34807  0.97301  0.50004  Biso   1.000  C
  C26      1.0000 0.34808  0.97307  0.50004  Biso   1.000  C
  H7       1.0000 0.39010  0.22906  0.87401  Biso   1.000  H
  O7       1.0000 0.23811  0.14706  0.86303  Biso   1.000  O
  O8       1.0000 0.15311  0.08602  0.75601  Biso   1.000  O
  O9       1.0000 0.15305  0.08608  0.75601  Biso   1.000  O
  C27      1.0000 0.34403  0.34098  0.34499  Biso   1.000  C
  C28      1.0000 0.19800  0.29400  0.36499  Biso   1.000  C
  H8       1.0000 0.31803  0.38202  0.43302  Biso   1.000  H
  C29      1.0000 0.34404  0.34105  0.34499  Biso   1.000  C
  H9       1.0000 0.36005  0.17504  0.34204  Biso   1.000  H
  O10      1.0000 0.19105  0.36503  0.47503  Biso   1.000  O
  H10      1.0000 0.20107  0.25806  0.51604  Biso   1.000  H
  H11      1.0000 0.23109  0.36004  0.57504  Biso   1.000  H
  H12      1.0000 0.23103  0.36004  0.57504  Biso   1.000  H
  H13      1.0000 0.46008  0.00303  0.41302  Biso   1.000  H
  C30      1.0000 0.45302  0.04802  0.33000  Biso   1.000  C
  H14      1.0000 0.46002  0.00303  0.41302  Biso   1.000  H
  C31      1.0000 0.32405  0.96000  0.34900  Biso   1.000  C
  O11      1.0000 0.35708  0.90505  0.44901  Biso   1.000  O
  H15      1.0000 0.28208  0.99004  0.48099  Biso   1.000  H
  H16      1.0000 0.35204  0.94900  0.54401  Biso   1.000  H
  O12      1.0000 0.35702  0.90505  0.44901  Biso   1.000  O
  H17      1.0000 0.28202  0.99004  0.48099  Biso   1.000  H
  H18      1.0000 0.35205  0.94906  0.54401  Biso   1.000  H
  C32      1.0000 0.08608  0.04806  0.77801  Biso   1.000  C
  H19      1.0000 0.41703  0.35300  0.36800  Biso   1.000  H
  H20      1.0000 0.32406  0.28605  0.30203  Biso   1.000  H
  C33      1.0000 0.31704  0.42203  0.32103  Biso   1.000  C
  H21      1.0000 0.32400  0.28605  0.30203  Biso   1.000  H
  C34      1.0000 0.15105  0.31499  0.40901  Biso   1.000  C
  C35      1.0000 0.15103  0.25005  0.30103  Biso   1.000  C
  C36      1.0000 0.15100  0.31505  0.40901  Biso   1.000  C
  H22      1.0000 0.40303  0.06402  0.29000  Biso   1.000  H
  H23      1.0000 0.50705  0.10299  0.35602  Biso   1.000  H
  H24      1.0000 0.50706  0.10306  0.35602  Biso   1.000  H
  C37      1.0000 0.49206  0.97100  0.30103  Biso   1.000  C
  C38      1.0000 0.49201  0.97106  0.30103  Biso   1.000  C
  C39      1.0000 0.26503  0.94999  0.28303  Biso   1.000  C
  C40      1.0000 0.30107  0.90002  0.38500  Biso   1.000  C
  C41      1.0000 0.26504  0.95005  0.28303  Biso   1.000  C
  C42      1.0000 0.30100  0.90002  0.38500  Biso   1.000  C
  C43      1.0000 0.02610  0.10203  0.79004  Biso   1.000  C
  C44      1.0000 0.02611  0.10209  0.79004  Biso   1.000  C
  C45      1.0000 0.07811  0.96301  0.77902  Biso   1.000  C
  C46      1.0000 0.07811  0.96307  0.77902  Biso   1.000  C
  H25      1.0000 0.33702  0.47702  0.36399  Biso   1.000  H
  H26      1.0000 0.24404  0.41001  0.29802  Biso   1.000  H
  C47      1.0000 0.35803  0.44098  0.27200  Biso   1.000  C
  C48      1.0000 0.35798  0.44105  0.27200  Biso   1.000  C
  C49      1.0000 0.05905  0.28801  0.38700  Biso   1.000  C
  C50      1.0000 0.05899  0.28801  0.38700  Biso   1.000  C
  C51      1.0000 0.05902  0.22400  0.27802  Biso   1.000  C
  H27      1.0000 0.18801  0.23502  0.26599  Biso   1.000  H
  C52      1.0000 0.05903  0.22406  0.27802  Biso   1.000  C
  H28      1.0000 0.55404  0.96703  0.33802  Biso   1.000  H
  H29      1.0000 0.44403  0.91200  0.28900  Biso   1.000  H
  C53      1.0000 0.51203  0.98000  0.23701  Biso   1.000  C
  H30      1.0000 0.44404  0.91206  0.28900  Biso   1.000  H
  C54      1.0000 0.18601  0.88804  0.25300  Biso   1.000  C
  H31      1.0000 0.28106  0.99198  0.25300  Biso   1.000  H
  H32      1.0000 0.28100  0.99205  0.25300  Biso   1.000  H
  C55      1.0000 0.22908  0.83700  0.35402  Biso   1.000  C
  C56      1.0000 0.22902  0.83707  0.35402  Biso   1.000  C
  O13      1.0000 0.04108  0.19002  0.79205  Biso   1.000  O
  O14      1.0000 0.04109  0.19009  0.79205  Biso   1.000  O
  C57      1.0000 0.95110  0.06604  0.80403  Biso   1.000  C
  C58      1.0000 0.00413  0.92703  0.79305  Biso   1.000  C
  O15      1.0000 0.14311  0.91706  0.76804  Biso   1.000  O
  C59      1.0000 0.00408  0.92710  0.79305  Biso   1.000  C
  C60      1.0000 0.32004  0.39502  0.20403  Biso   1.000  C
  C61      1.0000 0.43504  0.50400  0.29301  Biso   1.000  C
  C62      1.0000 0.31998  0.39502  0.20403  Biso   1.000  C
  C63      1.0000 0.43498  0.50400  0.29301  Biso   1.000  C
  C64      1.0000 0.01205  0.24502  0.32003  Biso   1.000  C
  O16      1.0000 0.01008  0.29802  0.43302  Biso   1.000  O
  O17      1.0000 0.01001  0.29802  0.43302  Biso   1.000  O
  C65      1.0000 0.00901  0.17003  0.20598  Biso   1.000  C
  C66      1.0000 0.59800  0.01599  0.24102  Biso   1.000  C
  C67      1.0000 0.59801  0.01605  0.24102  Biso   1.000  C
  C68      1.0000 0.44301  0.95204  0.17500  Biso   1.000  C
  C69      1.0000 0.11903  0.88201  0.18403  Biso   1.000  C
  C70      1.0000 0.16803  0.82803  0.29100  Biso   1.000  C
  O18      1.0000 0.21405  0.76904  0.38600  Biso   1.000  O
  C71      1.0000 0.99009  0.21307  0.73305  Biso   1.000  C
  C72      1.0000 0.94210  0.97804  0.80604  Biso   1.000  C
  C73      1.0000 0.88107  0.11804  0.81601  Biso   1.000  C
  C74      1.0000 0.99110  0.83003  0.79406  Biso   1.000  C
  C75      1.0000 0.99110  0.83009  0.79406  Biso   1.000  C
  C76      1.0000 0.12408  0.85906  0.70402  Biso   1.000  C
  C77      1.0000 0.36001  0.41301  0.15801  Biso   1.000  C
  H33      1.0000 0.25899  0.34602  0.18799  Biso   1.000  H
  C78      1.0000 0.47502  0.52099  0.24699  Biso   1.000  C
  H34      1.0000 0.46501  0.53899  0.34499  Biso   1.000  H
  C79      1.0000 0.47497  0.52105  0.24699  Biso   1.000  C
  H35      1.0000 0.46501  0.53906  0.34499  Biso   1.000  H
  O19      1.0000 0.91603  0.22501  0.29702  Biso   1.000  O
  C80      1.0000 0.96206  0.36104  0.43102  Biso   1.000  C
  C81      1.0000 0.04799  0.18601  0.14999  Biso   1.000  C
  C82      1.0000 0.99603  0.07302  0.20699  Biso   1.000  C
  H36      1.0000 0.94604  0.19302  0.18899  Biso   1.000  H
  H37      1.0000 0.94598  0.19302  0.18899  Biso   1.000  H
  C83      1.0000 0.61502  0.02300  0.18302  Biso   1.000  C
  H38      1.0000 0.65203  0.03702  0.28900  Biso   1.000  H
  C84      1.0000 0.46000  0.96000  0.11700  Biso   1.000  C
  H39      1.0000 0.37599  0.92500  0.17200  Biso   1.000  H
  C85      1.0000 0.04900  0.93402  0.19601  Biso   1.000  C
  H40      1.0000 0.08501  0.81698  0.15400  Biso   1.000  H
  C86      1.0000 0.16804  0.90603  0.13700  Biso   1.000  C
  H41      1.0000 0.08502  0.81704  0.15400  Biso   1.000  H
  O20      1.0000 0.09405  0.76505  0.26303  Biso   1.000  O
  C87      1.0000 0.16608  0.78201  0.42801  Biso   1.000  C
  C88      1.0000 0.16602  0.78201  0.42801  Biso   1.000  C
  O21      1.0000 0.90605  0.23500  0.73701  Biso   1.000  O
  O22      1.0000 0.90606  0.23507  0.73701  Biso   1.000  O
  H42      1.0000 0.02912  0.26906  0.72803  Biso   1.000  H
  H43      1.0000 0.02906  0.26906  0.72803  Biso   1.000  H
  H44      1.0000 0.97712  0.15906  0.69004  Biso   1.000  H
  H45      1.0000 0.97705  0.15906  0.69004  Biso   1.000  H
  H46      1.0000 0.88711  0.95003  0.81902  Biso   1.000  H
  C89      1.0000 0.81409  0.11201  0.74703  Biso   1.000  C
  C90      1.0000 0.81410  0.11208  0.74703  Biso   1.000  C
  H47      1.0000 0.91509  0.18308  0.84604  Biso   1.000  H
  C91      1.0000 0.83213  0.09402  0.86303  Biso   1.000  C
  C92      1.0000 0.83207  0.09408  0.86303  Biso   1.000  C
  C93      1.0000 0.94108  0.77606  0.72202  Biso   1.000  C
  C94      1.0000 0.95212  0.81405  0.85005  Biso   1.000  C
  H48      1.0000 0.05413  0.80704  0.81105  Biso   1.000  H
  O23      1.0000 0.08407  0.77505  0.70302  Biso   1.000  O
  H49      1.0000 0.07811  0.88303  0.66703  Biso   1.000  H
  H50      1.0000 0.18608  0.85503  0.69405  Biso   1.000  H
  H51      1.0000 0.18609  0.85509  0.69405  Biso   1.000  H
  C95      1.0000 0.43700  0.47598  0.18002  Biso   1.000  C
  H52      1.0000 0.32998  0.37802  0.10602  Biso   1.000  H
  C96      1.0000 0.43700  0.47604  0.18002  Biso   1.000  C
  H53      1.0000 0.53600  0.57000  0.26403  Biso   1.000  H
  H54      1.0000 0.53601  0.57006  0.26403  Biso   1.000  H
  C97      1.0000 0.87603  0.14100  0.29602  Biso   1.000  C
  C98      1.0000 0.87603  0.14106  0.29602  Biso   1.000  C
  C99      1.0000 0.90808  0.36304  0.47603  Biso   1.000  C
  O24      1.0000 0.96102  0.41203  0.39602  Biso   1.000  O
  C100     1.0000 0.90801  0.36304  0.47603  Biso   1.000  C
  H55      1.0000 0.01004  0.13901  0.10302  Biso   1.000  H
  H56      1.0000 0.11705  0.17704  0.16503  Biso   1.000  H
  C101     1.0000 0.04602  0.27900  0.14001  Biso   1.000  C
  H57      1.0000 0.00998  0.13901  0.10302  Biso   1.000  H
  H58      1.0000 0.11699  0.17704  0.16503  Biso   1.000  H
  C102     1.0000 0.05800  0.02201  0.19400  Biso   1.000  C
  C103     1.0000 0.92206  0.03705  0.22102  Biso   1.000  C
  C104     1.0000 0.92200  0.03705  0.22102  Biso   1.000  C
  H59      1.0000 0.68202  0.05105  0.18603  Biso   1.000  H
  C105     1.0000 0.54599  0.99504  0.12101  Biso   1.000  C
  H60      1.0000 0.40699  0.93801  0.06898  Biso   1.000  H
  C106     1.0000 0.97400  0.89802  0.20999  Biso   1.000  C
  H61      1.0000 0.19904  0.97398  0.15500  Biso   1.000  H
  H62      1.0000 0.21900  0.86701  0.13600  Biso   1.000  H
  C107     1.0000 0.09804  0.88999  0.06702  Biso   1.000  C
  H63      1.0000 0.19898  0.97404  0.15500  Biso   1.000  H
  C108     1.0000 0.09799  0.89005  0.06702  Biso   1.000  C
  C109     1.0000 0.01001  0.78699  0.26699  Biso   1.000  C
  C110     1.0000 0.01002  0.78705  0.26699  Biso   1.000  C
  O25      1.0000 0.14106  0.85002  0.44199  Biso   1.000  O
  C111     1.0000 0.15707  0.70403  0.45403  Biso   1.000  C
  C112     1.0000 0.83207  0.17203  0.70904  Biso   1.000  C
  C113     1.0000 0.73507  0.05006  0.71701  Biso   1.000  C
  H64      1.0000 0.80113  0.02608  0.84504  Biso   1.000  H
  H65      1.0000 0.78110  0.13305  0.86404  Biso   1.000  H
  C114     1.0000 0.90212  0.11007  0.93301  Biso   1.000  C
  C115     1.0000 0.98812  0.75504  0.68001  Biso   1.000  C
  C116     1.0000 0.84907  0.75001  0.69901  Biso   1.000  C
  C117     1.0000 0.98805  0.75504  0.68001  Biso   1.000  C
  C118     1.0000 0.84908  0.75007  0.69901  Biso   1.000  C
  H66      1.0000 0.99012  0.86105  0.89702  Biso   1.000  H
  H67      1.0000 0.88312  0.82302  0.83501  Biso   1.000  H
  C119     1.0000 0.95414  0.72105  0.86003  Biso   1.000  C
  H68      1.0000 0.88312  0.82308  0.83501  Biso   1.000  H
  C120     1.0000 0.95408  0.72105  0.86003  Biso   1.000  C
  H69      1.0000 0.46801  0.49003  0.14402  Biso   1.000  H
  H70      1.0000 0.92206  0.11702  0.33301  Biso   1.000  H
  H71      1.0000 0.81402  0.14503  0.30599  Biso   1.000  H
  O26      1.0000 0.85699  0.08299  0.23200  Biso   1.000  O
  H72      1.0000 0.92200  0.11702  0.33301  Biso   1.000  H
  O27      1.0000 0.85700  0.08306  0.23200  Biso   1.000  O
  C121     1.0000 0.87209  0.43606  0.49704  Biso   1.000  C
  C122     1.0000 0.89306  0.29203  0.50200  Biso   1.000  C
  C123     1.0000 0.87202  0.43606  0.49704  Biso   1.000  C
  H73      1.0000 0.09605  0.32401  0.18302  Biso   1.000  H
  C124     1.0000 0.06498  0.29203  0.08001  Biso   1.000  C
  H74      1.0000 0.09599  0.32401  0.18302  Biso   1.000  H
  H75      1.0000 0.97997  0.29298  0.13600  Biso   1.000  H
  H76      1.0000 0.97998  0.29304  0.13600  Biso   1.000  H
  H77      1.0000 0.11305  0.05003  0.18102  Biso   1.000  H
  H78      1.0000 0.11299  0.05003  0.18102  Biso   1.000  H
  C125     1.0000 0.91402  0.95199  0.22202  Biso   1.000  C
  C126     1.0000 0.91403  0.95206  0.22202  Biso   1.000  C
  H79      1.0000 0.56004  0.00103  0.07600  Biso   1.000  H
  H80      1.0000 0.55997  0.00103  0.07600  Biso   1.000  H
  O28      1.0000 0.95902  0.81003  0.20799  Biso   1.000  O
  H81      1.0000 0.06899  0.82198  0.04903  Biso   1.000  H
  H82      1.0000 0.04500  0.92700  0.06898  Biso   1.000  H
  C127     1.0000 0.14400  0.91700  0.01800  Biso   1.000  C
  H83      1.0000 0.06900  0.82205  0.04903  Biso   1.000  H
  H84      1.0000 0.97105  0.73100  0.27200  Biso   1.000  H
  H85      1.0000 0.02305  0.84099  0.31000  Biso   1.000  H
  H86      1.0000 0.02305  0.84106  0.31000  Biso   1.000  H
  C128     1.0000 0.18707  0.63003  0.43503  Biso   1.000  C
  C129     1.0000 0.10710  0.70803  0.49804  Biso   1.000  C
  C130     1.0000 0.10704  0.70803  0.49804  Biso   1.000  C
  C131     1.0000 0.77109  0.16305  0.64602  Biso   1.000  C
  C132     1.0000 0.67611  0.04005  0.65104  Biso   1.000  C
  C133     1.0000 0.67605  0.04005  0.65104  Biso   1.000  C
  H87      1.0000 0.71911  0.00807  0.74703  Biso   1.000  H
  H88      1.0000 0.93114  0.17809  0.95106  Biso   1.000  H
  H89      1.0000 0.95510  0.07306  0.93106  Biso   1.000  H
  C134     1.0000 0.85610  0.08305  0.98204  Biso   1.000  C
  C135     1.0000 0.94111  0.71204  0.61304  Biso   1.000  C
  C136     1.0000 0.94105  0.71204  0.61304  Biso   1.000  C
  C137     1.0000 0.80210  0.70605  0.63504  Biso   1.000  C
  H90      1.0000 0.81209  0.76503  0.73405  Biso   1.000  H
  H91      1.0000 0.81210  0.76509  0.73405  Biso   1.000  H
  H92      1.0000 0.90411  0.67605  0.81701  Biso   1.000  H
  C138     1.0000 0.93512  0.70803  0.92003  Biso   1.000  C
  C139     1.0000 0.93513  0.70809  0.92003  Biso   1.000  C
  H93      1.0000 0.02013  0.70708  0.86404  Biso   1.000  H
  C140     1.0000 0.82504  0.44105  0.54100  Biso   1.000  C
  H94      1.0000 0.88205  0.49103  0.47703  Biso   1.000  H
  C141     1.0000 0.84303  0.29603  0.54601  Biso   1.000  C
  H95      1.0000 0.91907  0.23300  0.48701  Biso   1.000  H
  H96      1.0000 0.91901  0.23306  0.48701  Biso   1.000  H
  C142     1.0000 0.01501  0.34298  0.04201  Biso   1.000  C
  C143     1.0000 0.13102  0.25501  0.06001  Biso   1.000  C
  C144     1.0000 0.01501  0.34304  0.04201  Biso   1.000  C
  C145     1.0000 0.13096  0.25501  0.06001  Biso   1.000  C
  O29      1.0000 0.84706  0.91404  0.24403  Biso   1.000  O
  C146     1.0000 0.19406  0.86304  0.99103  Biso   1.000  C
  C147     1.0000 0.19412  0.86304  0.99103  Biso   1.000  C
  C148     1.0000 0.13401  0.99600  0.00201  Biso   1.000  C
  H97      1.0000 0.22508  0.62806  0.40104  Biso   1.000  H
  C149     1.0000 0.17507  0.55901  0.45904  Biso   1.000  C
  C150     1.0000 0.17507  0.55907  0.45904  Biso   1.000  C
  C151     1.0000 0.09209  0.63702  0.52401  Biso   1.000  C
  H98      1.0000 0.08110  0.76706  0.51303  Biso   1.000  H
  O30      1.0000 0.78606  0.23102  0.61404  Biso   1.000  O
  O31      1.0000 0.78606  0.23108  0.61404  Biso   1.000  O
  C152     1.0000 0.69910  0.10003  0.61504  Biso   1.000  C
  C153     1.0000 0.59111  0.97205  0.62000  Biso   1.000  C
  C154     1.0000 0.59104  0.97205  0.62000  Biso   1.000  C
  C155     1.0000 0.86615  0.00405  0.99803  Biso   1.000  C
  C156     1.0000 0.86609  0.00405  0.99803  Biso   1.000  C
  C157     1.0000 0.80598  0.13696  0.00901  Biso   1.000  C
  C158     1.0000 0.80605  0.13702  0.00901  Biso   1.000  C
  O32      1.0000 0.99009  0.70204  0.56702  Biso   1.000  O
  C159     1.0000 0.84911  0.68506  0.59103  Biso   1.000  C
  C160     1.0000 0.84905  0.68506  0.59103  Biso   1.000  C
  C161     1.0000 0.70009  0.67902  0.60502  Biso   1.000  C
  C162     1.0000 0.98516  0.65707  0.95803  Biso   1.000  C
  C163     1.0000 0.86914  0.74504  0.94003  Biso   1.000  C
  C164     1.0000 0.98510  0.65707  0.95803  Biso   1.000  C
  C165     1.0000 0.81303  0.37003  0.56501  Biso   1.000  C
  H99      1.0000 0.80008  0.49901  0.55504  Biso   1.000  H
  H100     1.0000 0.80003  0.49907  0.55504  Biso   1.000  H
  C166     1.0000 0.83408  0.21805  0.57203  Biso   1.000  C
  H101     1.0000 0.96298  0.37200  0.05700  Biso   1.000  H
  C167     1.0000 0.03117  0.35607  0.98506  Biso   1.000  C
  C168     1.0000 0.03111  0.35607  0.98506  Biso   1.000  C
  C169     1.0000 0.14702  0.26902  0.00301  Biso   1.000  C
  H102     1.0000 0.16901  0.21601  0.08898  Biso   1.000  H
  C170     1.0000 0.14695  0.26902  0.00301  Biso   1.000  C
  H103     1.0000 0.16895  0.21601  0.08898  Biso   1.000  H
  C171     1.0000 0.77502  0.86499  0.19601  Biso   1.000  C
  C172     1.0000 0.77502  0.86506  0.19601  Biso   1.000  C
  C173     1.0000 0.23208  0.88805  0.94606  Biso   1.000  C
  C174     1.0000 0.23214  0.88805  0.94606  Biso   1.000  C
  H104     1.0000 0.20199  0.80199  0.00401  Biso   1.000  H
  H105     1.0000 0.20200  0.80205  0.00401  Biso   1.000  H
  H106     1.0000 0.09601  0.03800  0.02301  Biso   1.000  H
  C175     1.0000 0.17317  0.02107  0.95704  Biso   1.000  C
  C176     1.0000 0.17311  0.02107  0.95704  Biso   1.000  C
  H107     1.0000 0.20008  0.50105  0.44500  Biso   1.000  H
  C177     1.0000 0.12808  0.56400  0.50300  Biso   1.000  C
  C178     1.0000 0.12809  0.56406  0.50300  Biso   1.000  C
  C179     1.0000 0.03811  0.63902  0.56902  Biso   1.000  C
  C180     1.0000 0.03805  0.63902  0.56902  Biso   1.000  C
  O33      1.0000 0.64308  0.09501  0.55103  Biso   1.000  O
  O34      1.0000 0.64309  0.09507  0.55103  Biso   1.000  O
  C181     1.0000 0.61408  0.89202  0.57900  Biso   1.000  C
  H108     1.0000 0.54008  0.99702  0.58702  Biso   1.000  H
  C182     1.0000 0.54708  0.95204  0.67003  Biso   1.000  C
  H109     1.0000 0.90416  0.96205  0.97703  Biso   1.000  H
  H110     1.0000 0.90410  0.96205  0.97703  Biso   1.000  H
  C183     1.0000 0.82693  0.97898  0.04300  Biso   1.000  C
  H111     1.0000 0.79811  0.19807  0.99603  Biso   1.000  H
  C184     1.0000 0.76796  0.11195  0.05398  Biso   1.000  C
  C185     1.0000 0.76803  0.11201  0.05398  Biso   1.000  C
  O35      1.0000 0.80906  0.63502  0.52501  Biso   1.000  O
  C186     1.0000 0.66308  0.75203  0.57404  Biso   1.000  C
  H112     1.0000 0.68207  0.61804  0.56702  Biso   1.000  H
  C187     1.0000 0.65613  0.65907  0.65505  Biso   1.000  C
  C188     1.0000 0.65607  0.65907  0.65505  Biso   1.000  C
  C189     1.0000 0.96893  0.64399  0.01498  Biso   1.000  C
  H113     1.0000 0.03713  0.62806  0.94304  Biso   1.000  H
  C190     1.0000 0.85315  0.73103  0.99703  Biso   1.000  C
  H114     1.0000 0.83115  0.78405  0.91106  Biso   1.000  H
  C191     1.0000 0.85316  0.73109  0.99703  Biso   1.000  C
  H115     1.0000 0.77509  0.37206  0.59900  Biso   1.000  H
  H116     1.0000 0.77503  0.37206  0.59900  Biso   1.000  H
  O36      1.0000 0.85911  0.15004  0.55804  Biso   1.000  O
  O37      1.0000 0.85905  0.15004  0.55804  Biso   1.000  O
  H117     1.0000 0.99215  0.39505  0.95604  Biso   1.000  H
  H118     1.0000 0.99209  0.39512  0.95604  Biso   1.000  H
  C192     1.0000 0.09715  0.31905  0.96506  Biso   1.000  C
  C193     1.0000 0.09716  0.31911  0.96506  Biso   1.000  C
  H119     1.0000 0.19813  0.24009  0.98807  Biso   1.000  H
  C194     1.0000 0.70503  0.83203  0.22403  Biso   1.000  C
  O38      1.0000 0.76205  0.85299  0.13700  Biso   1.000  O
  O39      1.0000 0.76199  0.85299  0.13700  Biso   1.000  O
  C195     1.0000 0.22210  0.96703  0.92907  Biso   1.000  C
  H120     1.0000 0.27010  0.84603  0.92405  Biso   1.000  H
  H121     1.0000 0.27016  0.84603  0.92405  Biso   1.000  H
  H122     1.0000 0.16517  0.08206  0.94406  Biso   1.000  H
  H123     1.0000 0.16511  0.08212  0.94406  Biso   1.000  H
  H124     1.0000 0.11805  0.50903  0.52300  Biso   1.000  H
  O40      1.0000 0.03909  0.58802  0.60401  Biso   1.000  O
  C196     1.0000 0.65205  0.02706  0.50004  Biso   1.000  C
  C197     1.0000 0.63911  0.82302  0.60802  Biso   1.000  C
  C198     1.0000 0.61007  0.88506  0.51503  Biso   1.000  C
  C199     1.0000 0.63905  0.82302  0.60802  Biso   1.000  C
  H125     1.0000 0.59707  0.93603  0.71004  Biso   1.000  H
  H126     1.0000 0.49312  0.89706  0.64402  Biso   1.000  H
  H127     1.0000 0.49305  0.89706  0.64402  Biso   1.000  H
  C200     1.0000 0.50810  0.02906  0.69901  Biso   1.000  C
  C201     1.0000 0.50804  0.02906  0.69901  Biso   1.000  C
  H128     1.0000 0.83494  0.91799  0.05598  Biso   1.000  H
  C202     1.0000 0.77799  0.03296  0.07097  Biso   1.000  C
  H129     1.0000 0.73000  0.15396  0.07598  Biso   1.000  H
  C203     1.0000 0.76607  0.67602  0.47202  Biso   1.000  C
  C204     1.0000 0.65511  0.74503  0.50801  Biso   1.000  C
  C205     1.0000 0.65504  0.74503  0.50801  Biso   1.000  C
  H130     1.0000 0.58313  0.64705  0.63204  Biso   1.000  H
  H131     1.0000 0.67611  0.71400  0.69801  Biso   1.000  H
  C206     1.0000 0.68307  0.57803  0.67901  Biso   1.000  C
  H132     1.0000 0.58307  0.64705  0.63204  Biso   1.000  H
  H133     1.0000 0.67605  0.71407  0.69801  Biso   1.000  H
  C207     1.0000 0.90295  0.68101  0.03498  Biso   1.000  C
  C208     1.0000 0.90289  0.68101  0.03498  Biso   1.000  C
  H134     1.0000 0.00795  0.60500  0.04400  Biso   1.000  H
  H135     1.0000 0.80191  0.75997  0.01197  Biso   1.000  H
  H136     1.0000 0.11016  0.32908  0.92105  Biso   1.000  H
  H137     1.0000 0.11010  0.32908  0.92105  Biso   1.000  H
  C209     1.0000 0.62302  0.78203  0.17901  Biso   1.000  C
  C210     1.0000 0.72303  0.85104  0.29401  Biso   1.000  C
  H138     1.0000 0.25208  0.98600  0.89503  Biso   1.000  H
  O41      1.0000 0.58405  0.95200  0.48300  Biso   1.000  O
  O42      1.0000 0.58406  0.95207  0.48300  Biso   1.000  O
  H139     1.0000 0.71808  0.01001  0.51904  Biso   1.000  H
  H140     1.0000 0.64806  0.05106  0.45603  Biso   1.000  H
  H141     1.0000 0.71809  0.01008  0.51904  Biso   1.000  H
  H142     1.0000 0.64006  0.82502  0.65800  Biso   1.000  H
  C211     1.0000 0.62710  0.81106  0.47703  Biso   1.000  C
  C212     1.0000 0.62704  0.81106  0.47703  Biso   1.000  C
  H143     1.0000 0.44607  0.03302  0.66201  Biso   1.000  H
  H144     1.0000 0.55607  0.08806  0.71104  Biso   1.000  H
  C213     1.0000 0.48813  0.02005  0.76302  Biso   1.000  C
  C214     1.0000 0.48807  0.02005  0.76302  Biso   1.000  C
  H145     1.0000 0.74802  0.01399  0.10501  Biso   1.000  H
  H146     1.0000 0.74808  0.01399  0.10501  Biso   1.000  H
  O43      1.0000 0.67408  0.67400  0.46701  Biso   1.000  O
  O44      1.0000 0.67409  0.67406  0.46701  Biso   1.000  O
  H147     1.0000 0.79909  0.74199  0.48400  Biso   1.000  H
  H148     1.0000 0.76908  0.64002  0.42500  Biso   1.000  H
  H149     1.0000 0.79904  0.74206  0.48400  Biso   1.000  H
  H150     1.0000 0.76901  0.64002  0.42500  Biso   1.000  H
  H151     1.0000 0.66309  0.52303  0.63605  Biso   1.000  H
  H152     1.0000 0.75613  0.59005  0.70202  Biso   1.000  H
  C215     1.0000 0.64213  0.55907  0.72803  Biso   1.000  C
  H153     1.0000 0.75607  0.59005  0.70202  Biso   1.000  H
  H154     1.0000 0.88994  0.67097  0.07899  Biso   1.000  H
  C216     1.0000 0.56306  0.74800  0.20303  Biso   1.000  C
  H155     1.0000 0.61000  0.77099  0.12603  Biso   1.000  H
  C217     1.0000 0.56306  0.74806  0.20303  Biso   1.000  C
  H156     1.0000 0.61001  0.77106  0.12603  Biso   1.000  H
  C218     1.0000 0.65702  0.81702  0.31401  Biso   1.000  C
  H157     1.0000 0.78406  0.89303  0.32900  Biso   1.000  H
  H158     1.0000 0.78400  0.89303  0.32900  Biso   1.000  H
  O45      1.0000 0.61207  0.80203  0.40600  Biso   1.000  O
  C219     1.0000 0.40210  0.98407  0.75901  Biso   1.000  C
  C220     1.0000 0.55710  0.04808  0.82504  Biso   1.000  C
  C221     1.0000 0.68012  0.60504  0.79601  Biso   1.000  C
  C222     1.0000 0.56512  0.49605  0.70703  Biso   1.000  C
  C223     1.0000 0.57806  0.76499  0.27301  Biso   1.000  C
  H159     1.0000 0.50103  0.70799  0.16698  Biso   1.000  H
  C224     1.0000 0.57801  0.76505  0.27301  Biso   1.000  C
  H160     1.0000 0.50104  0.70805  0.16698  Biso   1.000  H
  C225     1.0000 0.68009  0.83604  0.39001  Biso   1.000  C
  C226     1.0000 0.68002  0.83604  0.39001  Biso   1.000  C
  C227     1.0000 0.38508  0.97705  0.81701  Biso   1.000  C
  H161     1.0000 0.34808  0.96304  0.71104  Biso   1.000  H
  C228     1.0000 0.54010  0.04006  0.88304  Biso   1.000  C
  H162     1.0000 0.62411  0.07505  0.82804  Biso   1.000  H
  C229     1.0000 0.64016  0.58704  0.84203  Biso   1.000  C
  H163     1.0000 0.74112  0.65403  0.81205  Biso   1.000  H
  C230     1.0000 0.64009  0.58704  0.84203  Biso   1.000  C
  H164     1.0000 0.74112  0.65409  0.81205  Biso   1.000  H
  C231     1.0000 0.52514  0.47907  0.75305  Biso   1.000  C
  H165     1.0000 0.53510  0.46106  0.65505  Biso   1.000  H
  H166     1.0000 0.52906  0.73901  0.29201  Biso   1.000  H
  O46      1.0000 0.74705  0.88000  0.43001  Biso   1.000  O
  O47      1.0000 0.74705  0.88006  0.43001  Biso   1.000  O
  H167     1.0000 0.31810  0.94903  0.81406  Biso   1.000  H
  H168     1.0000 0.31811  0.94909  0.81406  Biso   1.000  H
  C232     1.0000 0.45411  0.00502  0.87903  Biso   1.000  C
  C233     1.0000 0.45412  0.00508  0.87903  Biso   1.000  C
  H169     1.0000 0.59311  0.06205  0.93106  Biso   1.000  H
  C234     1.0000 0.56311  0.52407  0.82002  Biso   1.000  C
  H170     1.0000 0.67012  0.62204  0.89401  Biso   1.000  H
  H171     1.0000 0.46410  0.43006  0.73600  Biso   1.000  H
  H172     1.0000 0.44013  0.99903  0.92404  Biso   1.000  H
  H173     1.0000 0.44014  0.99909  0.92404  Biso   1.000  H
  H174     1.0000 0.53209  0.51003  0.85602  Biso   1.000  H
  H175     1.0000 0.53210  0.51009  0.85602  Biso   1.000  H
  O48      1.0000 0.25306  0.12005  0.57003  Biso   1.000  O
  C235     1.0000 0.32008  0.16401  0.61003  Biso   1.000  C
  C236     1.0000 0.32009  0.16408  0.61003  Biso   1.000  C
  O49      1.0000 0.38810  0.19803  0.59404  Biso   1.000  O
  O50      1.0000 0.38804  0.19803  0.59404  Biso   1.000  O
  C237     1.0000 0.34308  0.18304  0.68603  Biso   1.000  C
  C238     1.0000 0.37306  0.18900  0.52300  Biso   1.000  C
  C239     1.0000 0.37307  0.18906  0.52300  Biso   1.000  C
  C240     1.0000 0.42210  0.23507  0.72703  Biso   1.000  C
  C241     1.0000 0.27708  0.14902  0.70603  Biso   1.000  C
  C242     1.0000 0.27708  0.14908  0.70603  Biso   1.000  C
  C243     1.0000 0.34506  0.25503  0.49202  Biso   1.000  C
  C244     1.0000 0.39003  0.11499  0.48501  Biso   1.000  C
  C245     1.0000 0.39004  0.11506  0.48501  Biso   1.000  C
  H176     1.0000 0.47111  0.26105  0.70803  Biso   1.000  H
  C246     1.0000 0.43711  0.25205  0.79701  Biso   1.000  C
  H177     1.0000 0.47105  0.26105  0.70803  Biso   1.000  H
  C247     1.0000 0.43705  0.25205  0.79701  Biso   1.000  C
  C248     1.0000 0.29507  0.16802  0.77601  Biso   1.000  C
  H178     1.0000 0.21610  0.10702  0.67104  Biso   1.000  H
  H179     1.0000 0.21605  0.10708  0.67104  Biso   1.000  H
  C249     1.0000 0.33702  0.24802  0.42600  Biso   1.000  C
  O51      1.0000 0.32609  0.32606  0.53303  Biso   1.000  O
  O52      1.0000 0.32602  0.32606  0.53303  Biso   1.000  O
  C250     1.0000 0.38608  0.10803  0.42104  Biso   1.000  C
  C251     1.0000 0.38602  0.10803  0.42104  Biso   1.000  C
  O53      1.0000 0.41605  0.04805  0.51704  Biso   1.000  O
  C252     1.0000 0.37708  0.21803  0.82102  Biso   1.000  C
  H180     1.0000 0.49913  0.29207  0.83306  Biso   1.000  H
  H181     1.0000 0.49907  0.29207  0.83306  Biso   1.000  H
  C253     1.0000 0.22509  0.13506  0.80403  Biso   1.000  C
  C254     1.0000 0.30002  0.32104  0.39502  Biso   1.000  C
  C255     1.0000 0.36106  0.17703  0.39201  Biso   1.000  C
  C256     1.0000 0.23403  0.32403  0.52802  Biso   1.000  C
  C257     1.0000 0.40906  0.02801  0.38003  Biso   1.000  C
  C258     1.0000 0.40907  0.02807  0.38003  Biso   1.000  C
  C259     1.0000 0.34807  0.97301  0.50004  Biso   1.000  C
  C260     1.0000 0.34808  0.97307  0.50004  Biso   1.000  C
  H182     1.0000 0.39010  0.22906  0.87401  Biso   1.000  H
  O54      1.0000 0.23811  0.14706  0.86303  Biso   1.000  O
  O55      1.0000 0.15311  0.08602  0.75601  Biso   1.000  O
  O56      1.0000 0.15305  0.08608  0.75601  Biso   1.000  O
  C261     1.0000 0.34403  0.34098  0.34499  Biso   1.000  C
  C262     1.0000 0.19800  0.29400  0.36499  Biso   1.000  C
  H183     1.0000 0.31803  0.38202  0.43302  Biso   1.000  H
  C263     1.0000 0.34404  0.34105  0.34499  Biso   1.000  C
  H184     1.0000 0.36005  0.17504  0.34204  Biso   1.000  H
  O57      1.0000 0.19105  0.36503  0.47503  Biso   1.000  O
  H185     1.0000 0.20107  0.25806  0.51604  Biso   1.000  H
  H186     1.0000 0.23109  0.36004  0.57504  Biso   1.000  H
  H187     1.0000 0.23103  0.36004  0.57504  Biso   1.000  H
  C264     1.0000 0.45302  0.04802  0.33000  Biso   1.000  C
  H188     1.0000 0.46008  0.00303  0.41302  Biso   1.000  H
  H189     1.0000 0.46002  0.00303  0.41302  Biso   1.000  H
  C265     1.0000 0.32405  0.96000  0.34900  Biso   1.000  C
  O58      1.0000 0.35708  0.90505  0.44901  Biso   1.000  O
  H190     1.0000 0.28208  0.99004  0.48099  Biso   1.000  H
  H191     1.0000 0.35204  0.94900  0.54401  Biso   1.000  H
  O59      1.0000 0.35702  0.90505  0.44901  Biso   1.000  O
  H192     1.0000 0.28202  0.99004  0.48099  Biso   1.000  H
  H193     1.0000 0.35205  0.94906  0.54401  Biso   1.000  H
  C266     1.0000 0.08608  0.04806  0.77801  Biso   1.000  C
  H194     1.0000 0.41703  0.35300  0.36800  Biso   1.000  H
  C267     1.0000 0.31704  0.42203  0.32103  Biso   1.000  C
  H195     1.0000 0.32406  0.28605  0.30203  Biso   1.000  H
  H196     1.0000 0.32400  0.28605  0.30203  Biso   1.000  H
  C268     1.0000 0.15103  0.25005  0.30103  Biso   1.000  C
  C269     1.0000 0.15105  0.31499  0.40901  Biso   1.000  C
  C270     1.0000 0.15100  0.31505  0.40901  Biso   1.000  C
  H197     1.0000 0.40303  0.06402  0.29000  Biso   1.000  H
  H198     1.0000 0.50705  0.10299  0.35602  Biso   1.000  H
  H199     1.0000 0.50706  0.10306  0.35602  Biso   1.000  H
  C271     1.0000 0.49206  0.97100  0.30103  Biso   1.000  C
  C272     1.0000 0.49201  0.97106  0.30103  Biso   1.000  C
  C273     1.0000 0.26503  0.94999  0.28303  Biso   1.000  C
  C274     1.0000 0.30107  0.90002  0.38500  Biso   1.000  C
  C275     1.0000 0.26504  0.95005  0.28303  Biso   1.000  C
  C276     1.0000 0.30100  0.90002  0.38500  Biso   1.000  C
  C277     1.0000 0.02610  0.10203  0.79004  Biso   1.000  C
  C278     1.0000 0.02611  0.10209  0.79004  Biso   1.000  C
  C279     1.0000 0.07811  0.96301  0.77902  Biso   1.000  C
  C280     1.0000 0.07811  0.96307  0.77902  Biso   1.000  C
  H200     1.0000 0.33702  0.47702  0.36399  Biso   1.000  H
  H201     1.0000 0.24404  0.41001  0.29802  Biso   1.000  H
  C281     1.0000 0.35803  0.44098  0.27200  Biso   1.000  C
  C282     1.0000 0.35798  0.44105  0.27200  Biso   1.000  C
  H202     1.0000 0.18801  0.23502  0.26599  Biso   1.000  H
  C283     1.0000 0.05902  0.22400  0.27802  Biso   1.000  C
  C284     1.0000 0.05903  0.22406  0.27802  Biso   1.000  C
  C285     1.0000 0.05905  0.28801  0.38700  Biso   1.000  C
  C286     1.0000 0.05899  0.28801  0.38700  Biso   1.000  C
  H203     1.0000 0.55404  0.96703  0.33802  Biso   1.000  H
  H204     1.0000 0.44403  0.91200  0.28900  Biso   1.000  H
  C287     1.0000 0.51203  0.98000  0.23701  Biso   1.000  C
  H205     1.0000 0.44404  0.91206  0.28900  Biso   1.000  H
  C288     1.0000 0.18601  0.88804  0.25300  Biso   1.000  C
  H206     1.0000 0.28106  0.99198  0.25300  Biso   1.000  H
  H207     1.0000 0.28100  0.99205  0.25300  Biso   1.000  H
  C289     1.0000 0.22908  0.83700  0.35402  Biso   1.000  C
  C290     1.0000 0.22902  0.83707  0.35402  Biso   1.000  C
  O60      1.0000 0.04108  0.19002  0.79205  Biso   1.000  O
  O61      1.0000 0.04109  0.19009  0.79205  Biso   1.000  O
  C291     1.0000 0.95110  0.06604  0.80403  Biso   1.000  C
  C292     1.0000 0.00413  0.92703  0.79305  Biso   1.000  C
  O62      1.0000 0.14311  0.91706  0.76804  Biso   1.000  O
  C293     1.0000 0.00408  0.92710  0.79305  Biso   1.000  C
  C294     1.0000 0.32004  0.39502  0.20403  Biso   1.000  C
  C295     1.0000 0.43504  0.50400  0.29301  Biso   1.000  C
  C296     1.0000 0.31998  0.39502  0.20403  Biso   1.000  C
  C297     1.0000 0.43498  0.50400  0.29301  Biso   1.000  C
  C298     1.0000 0.01205  0.24502  0.32003  Biso   1.000  C
  C299     1.0000 0.00901  0.17003  0.20598  Biso   1.000  C
  O63      1.0000 0.01008  0.29802  0.43302  Biso   1.000  O
  O64      1.0000 0.01001  0.29802  0.43302  Biso   1.000  O
  C300     1.0000 0.59800  0.01599  0.24102  Biso   1.000  C
  C301     1.0000 0.59801  0.01605  0.24102  Biso   1.000  C
  C302     1.0000 0.44301  0.95204  0.17500  Biso   1.000  C
  C303     1.0000 0.11903  0.88201  0.18403  Biso   1.000  C
  C304     1.0000 0.16803  0.82803  0.29100  Biso   1.000  C
  O65      1.0000 0.21405  0.76904  0.38600  Biso   1.000  O
  C305     1.0000 0.99009  0.21307  0.73305  Biso   1.000  C
  C306     1.0000 0.94210  0.97804  0.80604  Biso   1.000  C
  C307     1.0000 0.88107  0.11804  0.81601  Biso   1.000  C
  C308     1.0000 0.99110  0.83003  0.79406  Biso   1.000  C
  C309     1.0000 0.99110  0.83009  0.79406  Biso   1.000  C
  C310     1.0000 0.12408  0.85906  0.70402  Biso   1.000  C
  C311     1.0000 0.36001  0.41301  0.15801  Biso   1.000  C
  H208     1.0000 0.25899  0.34602  0.18799  Biso   1.000  H
  C312     1.0000 0.47502  0.52099  0.24699  Biso   1.000  C
  H209     1.0000 0.46501  0.53899  0.34499  Biso   1.000  H
  C313     1.0000 0.47497  0.52105  0.24699  Biso   1.000  C
  H210     1.0000 0.46501  0.53906  0.34499  Biso   1.000  H
  O66      1.0000 0.91603  0.22501  0.29702  Biso   1.000  O
  C314     1.0000 0.04799  0.18601  0.14999  Biso   1.000  C
  C315     1.0000 0.99603  0.07302  0.20699  Biso   1.000  C
  H211     1.0000 0.94604  0.19302  0.18899  Biso   1.000  H
  H212     1.0000 0.94598  0.19302  0.18899  Biso   1.000  H
  C316     1.0000 0.96206  0.36104  0.43102  Biso   1.000  C
  C317     1.0000 0.61502  0.02300  0.18302  Biso   1.000  C
  H213     1.0000 0.65203  0.03702  0.28900  Biso   1.000  H
  C318     1.0000 0.46000  0.96000  0.11700  Biso   1.000  C
  H214     1.0000 0.37599  0.92500  0.17200  Biso   1.000  H
  C319     1.0000 0.04900  0.93402  0.19601  Biso   1.000  C
  H215     1.0000 0.08501  0.81698  0.15400  Biso   1.000  H
  C320     1.0000 0.16804  0.90603  0.13700  Biso   1.000  C
  H216     1.0000 0.08502  0.81704  0.15400  Biso   1.000  H
  O67      1.0000 0.09405  0.76505  0.26303  Biso   1.000  O
  C321     1.0000 0.16608  0.78201  0.42801  Biso   1.000  C
  C322     1.0000 0.16602  0.78201  0.42801  Biso   1.000  C
  O68      1.0000 0.90605  0.23500  0.73701  Biso   1.000  O
  O69      1.0000 0.90606  0.23507  0.73701  Biso   1.000  O
  H217     1.0000 0.02912  0.26906  0.72803  Biso   1.000  H
  H218     1.0000 0.02906  0.26906  0.72803  Biso   1.000  H
  H219     1.0000 0.97712  0.15906  0.69004  Biso   1.000  H
  H220     1.0000 0.97705  0.15906  0.69004  Biso   1.000  H
  H221     1.0000 0.88711  0.95003  0.81902  Biso   1.000  H
  C323     1.0000 0.81409  0.11201  0.74703  Biso   1.000  C
  C324     1.0000 0.81410  0.11208  0.74703  Biso   1.000  C
  H222     1.0000 0.91509  0.18308  0.84604  Biso   1.000  H
  C325     1.0000 0.83213  0.09402  0.86303  Biso   1.000  C
  C326     1.0000 0.83207  0.09408  0.86303  Biso   1.000  C
  C327     1.0000 0.94108  0.77606  0.72202  Biso   1.000  C
  C328     1.0000 0.95212  0.81405  0.85005  Biso   1.000  C
  H223     1.0000 0.05413  0.80704  0.81105  Biso   1.000  H
  O70      1.0000 0.08407  0.77505  0.70302  Biso   1.000  O
  H224     1.0000 0.07811  0.88303  0.66703  Biso   1.000  H
  H225     1.0000 0.18608  0.85503  0.69405  Biso   1.000  H
  H226     1.0000 0.18609  0.85509  0.69405  Biso   1.000  H
  H227     1.0000 0.32998  0.37802  0.10602  Biso   1.000  H
  C329     1.0000 0.43700  0.47598  0.18002  Biso   1.000  C
  C330     1.0000 0.43700  0.47604  0.18002  Biso   1.000  C
  H228     1.0000 0.53600  0.57000  0.26403  Biso   1.000  H
  H229     1.0000 0.53601  0.57006  0.26403  Biso   1.000  H
  C331     1.0000 0.87603  0.14100  0.29602  Biso   1.000  C
  C332     1.0000 0.87603  0.14106  0.29602  Biso   1.000  C
  C333     1.0000 0.04602  0.27900  0.14001  Biso   1.000  C
  H230     1.0000 0.01004  0.13901  0.10302  Biso   1.000  H
  H231     1.0000 0.11705  0.17704  0.16503  Biso   1.000  H
  H232     1.0000 0.00998  0.13901  0.10302  Biso   1.000  H
  H233     1.0000 0.11699  0.17704  0.16503  Biso   1.000  H
  C334     1.0000 0.05800  0.02201  0.19400  Biso   1.000  C
  C335     1.0000 0.92206  0.03705  0.22102  Biso   1.000  C
  C336     1.0000 0.92200  0.03705  0.22102  Biso   1.000  C
  C337     1.0000 0.90808  0.36304  0.47603  Biso   1.000  C
  O71      1.0000 0.96102  0.41203  0.39602  Biso   1.000  O
  C338     1.0000 0.90801  0.36304  0.47603  Biso   1.000  C
  H234     1.0000 0.68202  0.05105  0.18603  Biso   1.000  H
  C339     1.0000 0.54599  0.99504  0.12101  Biso   1.000  C
  H235     1.0000 0.40699  0.93801  0.06898  Biso   1.000  H
  C340     1.0000 0.97400  0.89802  0.20999  Biso   1.000  C
  H236     1.0000 0.19904  0.97398  0.15500  Biso   1.000  H
  H237     1.0000 0.21900  0.86701  0.13600  Biso   1.000  H
  C341     1.0000 0.09804  0.88999  0.06702  Biso   1.000  C
  H238     1.0000 0.19898  0.97404  0.15500  Biso   1.000  H
  C342     1.0000 0.09799  0.89005  0.06702  Biso   1.000  C
  C343     1.0000 0.01001  0.78699  0.26699  Biso   1.000  C
  C344     1.0000 0.01002  0.78705  0.26699  Biso   1.000  C
  O72      1.0000 0.14106  0.85002  0.44199  Biso   1.000  O
  C345     1.0000 0.15707  0.70403  0.45403  Biso   1.000  C
  C346     1.0000 0.83207  0.17203  0.70904  Biso   1.000  C
  C347     1.0000 0.73507  0.05006  0.71701  Biso   1.000  C
  H239     1.0000 0.80113  0.02608  0.84504  Biso   1.000  H
  H240     1.0000 0.78110  0.13305  0.86404  Biso   1.000  H
  C348     1.0000 0.90212  0.11007  0.93301  Biso   1.000  C
  C349     1.0000 0.98812  0.75504  0.68001  Biso   1.000  C
  C350     1.0000 0.84907  0.75001  0.69901  Biso   1.000  C
  C351     1.0000 0.98805  0.75504  0.68001  Biso   1.000  C
  C352     1.0000 0.84908  0.75007  0.69901  Biso   1.000  C
  H241     1.0000 0.99012  0.86105  0.89702  Biso   1.000  H
  H242     1.0000 0.88312  0.82302  0.83501  Biso   1.000  H
  C353     1.0000 0.95414  0.72105  0.86003  Biso   1.000  C
  H243     1.0000 0.88312  0.82308  0.83501  Biso   1.000  H
  C354     1.0000 0.95408  0.72105  0.86003  Biso   1.000  C
  H244     1.0000 0.46801  0.49003  0.14402  Biso   1.000  H
  H245     1.0000 0.92206  0.11702  0.33301  Biso   1.000  H
  H246     1.0000 0.81402  0.14503  0.30599  Biso   1.000  H
  O73      1.0000 0.85699  0.08299  0.23200  Biso   1.000  O
  H247     1.0000 0.92200  0.11702  0.33301  Biso   1.000  H
  O74      1.0000 0.85700  0.08306  0.23200  Biso   1.000  O
  C355     1.0000 0.06498  0.29203  0.08001  Biso   1.000  C
  H248     1.0000 0.09605  0.32401  0.18302  Biso   1.000  H
  H249     1.0000 0.09599  0.32401  0.18302  Biso   1.000  H
  H250     1.0000 0.97997  0.29298  0.13600  Biso   1.000  H
  H251     1.0000 0.97998  0.29304  0.13600  Biso   1.000  H
  H252     1.0000 0.11305  0.05003  0.18102  Biso   1.000  H
  H253     1.0000 0.11299  0.05003  0.18102  Biso   1.000  H
  C356     1.0000 0.91402  0.95199  0.22202  Biso   1.000  C
  C357     1.0000 0.91403  0.95206  0.22202  Biso   1.000  C
  C358     1.0000 0.87209  0.43606  0.49704  Biso   1.000  C
  C359     1.0000 0.89306  0.29203  0.50200  Biso   1.000  C
  C360     1.0000 0.87202  0.43606  0.49704  Biso   1.000  C
  H254     1.0000 0.56004  0.00103  0.07600  Biso   1.000  H
  H255     1.0000 0.55997  0.00103  0.07600  Biso   1.000  H
  O75      1.0000 0.95902  0.81003  0.20799  Biso   1.000  O
  H256     1.0000 0.06899  0.82198  0.04903  Biso   1.000  H
  H257     1.0000 0.04500  0.92700  0.06898  Biso   1.000  H
  C361     1.0000 0.14400  0.91700  0.01800  Biso   1.000  C
  H258     1.0000 0.06900  0.82205  0.04903  Biso   1.000  H
  H259     1.0000 0.97105  0.73100  0.27200  Biso   1.000  H
  H260     1.0000 0.02305  0.84099  0.31000  Biso   1.000  H
  H261     1.0000 0.02305  0.84106  0.31000  Biso   1.000  H
  C362     1.0000 0.18707  0.63003  0.43503  Biso   1.000  C
  C363     1.0000 0.10710  0.70803  0.49804  Biso   1.000  C
  C364     1.0000 0.10704  0.70803  0.49804  Biso   1.000  C
  C365     1.0000 0.77109  0.16305  0.64602  Biso   1.000  C
  C366     1.0000 0.67611  0.04005  0.65104  Biso   1.000  C
  C367     1.0000 0.67605  0.04005  0.65104  Biso   1.000  C
  H262     1.0000 0.71911  0.00807  0.74703  Biso   1.000  H
  H263     1.0000 0.93114  0.17809  0.95106  Biso   1.000  H
  H264     1.0000 0.95510  0.07306  0.93106  Biso   1.000  H
  C368     1.0000 0.85610  0.08305  0.98204  Biso   1.000  C
  C369     1.0000 0.94111  0.71204  0.61304  Biso   1.000  C
  C370     1.0000 0.94105  0.71204  0.61304  Biso   1.000  C
  C371     1.0000 0.80210  0.70605  0.63504  Biso   1.000  C
  H265     1.0000 0.81209  0.76503  0.73405  Biso   1.000  H
  H266     1.0000 0.81210  0.76509  0.73405  Biso   1.000  H
  H267     1.0000 0.90411  0.67605  0.81701  Biso   1.000  H
  C372     1.0000 0.93512  0.70803  0.92003  Biso   1.000  C
  C373     1.0000 0.93513  0.70809  0.92003  Biso   1.000  C
  H268     1.0000 0.02013  0.70708  0.86404  Biso   1.000  H
  C374     1.0000 0.01501  0.34298  0.04201  Biso   1.000  C
  C375     1.0000 0.13102  0.25501  0.06001  Biso   1.000  C
  C376     1.0000 0.01501  0.34304  0.04201  Biso   1.000  C
  C377     1.0000 0.13096  0.25501  0.06001  Biso   1.000  C
  O76      1.0000 0.84706  0.91404  0.24403  Biso   1.000  O
  C378     1.0000 0.82504  0.44105  0.54100  Biso   1.000  C
  H269     1.0000 0.88205  0.49103  0.47703  Biso   1.000  H
  C379     1.0000 0.84303  0.29603  0.54601  Biso   1.000  C
  H270     1.0000 0.91907  0.23300  0.48701  Biso   1.000  H
  H271     1.0000 0.91901  0.23306  0.48701  Biso   1.000  H
  C380     1.0000 0.19406  0.86304  0.99103  Biso   1.000  C
  C381     1.0000 0.19412  0.86304  0.99103  Biso   1.000  C
  C382     1.0000 0.13401  0.99600  0.00201  Biso   1.000  C
  H272     1.0000 0.22508  0.62806  0.40104  Biso   1.000  H
  C383     1.0000 0.17507  0.55901  0.45904  Biso   1.000  C
  C384     1.0000 0.17507  0.55907  0.45904  Biso   1.000  C
  C385     1.0000 0.09209  0.63702  0.52401  Biso   1.000  C
  H273     1.0000 0.08110  0.76706  0.51303  Biso   1.000  H
  O77      1.0000 0.78606  0.23102  0.61404  Biso   1.000  O
  O78      1.0000 0.78606  0.23108  0.61404  Biso   1.000  O
  C386     1.0000 0.69910  0.10003  0.61504  Biso   1.000  C
  C387     1.0000 0.59111  0.97205  0.62000  Biso   1.000  C
  C388     1.0000 0.59104  0.97205  0.62000  Biso   1.000  C
  C389     1.0000 0.86615  0.00405  0.99803  Biso   1.000  C
  C390     1.0000 0.86609  0.00405  0.99803  Biso   1.000  C
  C391     1.0000 0.80598  0.13696  0.00901  Biso   1.000  C
  C392     1.0000 0.80605  0.13702  0.00901  Biso   1.000  C
  O79      1.0000 0.99009  0.70204  0.56702  Biso   1.000  O
  C393     1.0000 0.84911  0.68506  0.59103  Biso   1.000  C
  C394     1.0000 0.84905  0.68506  0.59103  Biso   1.000  C
  C395     1.0000 0.70009  0.67902  0.60502  Biso   1.000  C
  C396     1.0000 0.98516  0.65707  0.95803  Biso   1.000  C
  C397     1.0000 0.86914  0.74504  0.94003  Biso   1.000  C
  C398     1.0000 0.98510  0.65707  0.95803  Biso   1.000  C
  H274     1.0000 0.96298  0.37200  0.05700  Biso   1.000  H
  C399     1.0000 0.03117  0.35607  0.98506  Biso   1.000  C
  C400     1.0000 0.03111  0.35607  0.98506  Biso   1.000  C
  C401     1.0000 0.14702  0.26902  0.00301  Biso   1.000  C
  H275     1.0000 0.16901  0.21601  0.08898  Biso   1.000  H
  C402     1.0000 0.14695  0.26902  0.00301  Biso   1.000  C
  H276     1.0000 0.16895  0.21601  0.08898  Biso   1.000  H
  C403     1.0000 0.77502  0.86499  0.19601  Biso   1.000  C
  C404     1.0000 0.77502  0.86506  0.19601  Biso   1.000  C
  C405     1.0000 0.81303  0.37003  0.56501  Biso   1.000  C
  H277     1.0000 0.80008  0.49901  0.55504  Biso   1.000  H
  H278     1.0000 0.80003  0.49907  0.55504  Biso   1.000  H
  C406     1.0000 0.83408  0.21805  0.57203  Biso   1.000  C
  C407     1.0000 0.23208  0.88805  0.94606  Biso   1.000  C
  C408     1.0000 0.23214  0.88805  0.94606  Biso   1.000  C
  H279     1.0000 0.20199  0.80199  0.00401  Biso   1.000  H
  H280     1.0000 0.20200  0.80205  0.00401  Biso   1.000  H
  H281     1.0000 0.09601  0.03800  0.02301  Biso   1.000  H
  C409     1.0000 0.17317  0.02107  0.95704  Biso   1.000  C
  C410     1.0000 0.17311  0.02107  0.95704  Biso   1.000  C
  H282     1.0000 0.20008  0.50105  0.44500  Biso   1.000  H
  C411     1.0000 0.12808  0.56400  0.50300  Biso   1.000  C
  C412     1.0000 0.12809  0.56406  0.50300  Biso   1.000  C
  C413     1.0000 0.03811  0.63902  0.56902  Biso   1.000  C
  C414     1.0000 0.03805  0.63902  0.56902  Biso   1.000  C
  O80      1.0000 0.64308  0.09501  0.55103  Biso   1.000  O
  O81      1.0000 0.64309  0.09507  0.55103  Biso   1.000  O
  C415     1.0000 0.61408  0.89202  0.57900  Biso   1.000  C
  H283     1.0000 0.54008  0.99702  0.58702  Biso   1.000  H
  C416     1.0000 0.54708  0.95204  0.67003  Biso   1.000  C
  H284     1.0000 0.90416  0.96205  0.97703  Biso   1.000  H
  H285     1.0000 0.90410  0.96205  0.97703  Biso   1.000  H
  C417     1.0000 0.82693  0.97898  0.04300  Biso   1.000  C
  H286     1.0000 0.79811  0.19807  0.99603  Biso   1.000  H
  C418     1.0000 0.76796  0.11195  0.05398  Biso   1.000  C
  C419     1.0000 0.76803  0.11201  0.05398  Biso   1.000  C
  O82      1.0000 0.80906  0.63502  0.52501  Biso   1.000  O
  C420     1.0000 0.66308  0.75203  0.57404  Biso   1.000  C
  H287     1.0000 0.68207  0.61804  0.56702  Biso   1.000  H
  C421     1.0000 0.65613  0.65907  0.65505  Biso   1.000  C
  C422     1.0000 0.65607  0.65907  0.65505  Biso   1.000  C
  C423     1.0000 0.96893  0.64399  0.01498  Biso   1.000  C
  H288     1.0000 0.03713  0.62806  0.94304  Biso   1.000  H
  C424     1.0000 0.85315  0.73103  0.99703  Biso   1.000  C
  H289     1.0000 0.83115  0.78405  0.91106  Biso   1.000  H
  C425     1.0000 0.85316  0.73109  0.99703  Biso   1.000  C
  H290     1.0000 0.99215  0.39505  0.95604  Biso   1.000  H
  H291     1.0000 0.99209  0.39512  0.95604  Biso   1.000  H
  C426     1.0000 0.09715  0.31905  0.96506  Biso   1.000  C
  C427     1.0000 0.09716  0.31911  0.96506  Biso   1.000  C
  H292     1.0000 0.19813  0.24009  0.98807  Biso   1.000  H
  C428     1.0000 0.70503  0.83203  0.22403  Biso   1.000  C
  O83      1.0000 0.76205  0.85299  0.13700  Biso   1.000  O
  O84      1.0000 0.76199  0.85299  0.13700  Biso   1.000  O
  H293     1.0000 0.77509  0.37206  0.59900  Biso   1.000  H
  H294     1.0000 0.77503  0.37206  0.59900  Biso   1.000  H
  O85      1.0000 0.85911  0.15004  0.55804  Biso   1.000  O
  O86      1.0000 0.85905  0.15004  0.55804  Biso   1.000  O
  C429     1.0000 0.22210  0.96703  0.92907  Biso   1.000  C
  H295     1.0000 0.27010  0.84603  0.92405  Biso   1.000  H
  H296     1.0000 0.27016  0.84603  0.92405  Biso   1.000  H
  H297     1.0000 0.16517  0.08206  0.94406  Biso   1.000  H
  H298     1.0000 0.16511  0.08212  0.94406  Biso   1.000  H
  H299     1.0000 0.11805  0.50903  0.52300  Biso   1.000  H
  O87      1.0000 0.03909  0.58802  0.60401  Biso   1.000  O
  C430     1.0000 0.65205  0.02706  0.50004  Biso   1.000  C
  C431     1.0000 0.61007  0.88506  0.51503  Biso   1.000  C
  C432     1.0000 0.63911  0.82302  0.60802  Biso   1.000  C
  C433     1.0000 0.63905  0.82302  0.60802  Biso   1.000  C
  H300     1.0000 0.59707  0.93603  0.71004  Biso   1.000  H
  H301     1.0000 0.49312  0.89706  0.64402  Biso   1.000  H
  H302     1.0000 0.49305  0.89706  0.64402  Biso   1.000  H
  C434     1.0000 0.50810  0.02906  0.69901  Biso   1.000  C
  C435     1.0000 0.50804  0.02906  0.69901  Biso   1.000  C
  H303     1.0000 0.83494  0.91799  0.05598  Biso   1.000  H
  C436     1.0000 0.77799  0.03296  0.07097  Biso   1.000  C
  H304     1.0000 0.73000  0.15396  0.07598  Biso   1.000  H
  C437     1.0000 0.76607  0.67602  0.47202  Biso   1.000  C
  C438     1.0000 0.65511  0.74503  0.50801  Biso   1.000  C
  C439     1.0000 0.65504  0.74503  0.50801  Biso   1.000  C
  H305     1.0000 0.58313  0.64705  0.63204  Biso   1.000  H
  H306     1.0000 0.67611  0.71400  0.69801  Biso   1.000  H
  C440     1.0000 0.68307  0.57803  0.67901  Biso   1.000  C
  H307     1.0000 0.58307  0.64705  0.63204  Biso   1.000  H
  H308     1.0000 0.67605  0.71407  0.69801  Biso   1.000  H
  C441     1.0000 0.90295  0.68101  0.03498  Biso   1.000  C
  C442     1.0000 0.90289  0.68101  0.03498  Biso   1.000  C
  H309     1.0000 0.00795  0.60500  0.04400  Biso   1.000  H
  H310     1.0000 0.80191  0.75997  0.01197  Biso   1.000  H
  H311     1.0000 0.11016  0.32908  0.92105  Biso   1.000  H
  H312     1.0000 0.11010  0.32908  0.92105  Biso   1.000  H
  C443     1.0000 0.62302  0.78203  0.17901  Biso   1.000  C
  C444     1.0000 0.72303  0.85104  0.29401  Biso   1.000  C
  H313     1.0000 0.25208  0.98600  0.89503  Biso   1.000  H
  O88      1.0000 0.58405  0.95200  0.48300  Biso   1.000  O
  O89      1.0000 0.58406  0.95207  0.48300  Biso   1.000  O
  H314     1.0000 0.71808  0.01001  0.51904  Biso   1.000  H
  H315     1.0000 0.64806  0.05106  0.45603  Biso   1.000  H
  H316     1.0000 0.71809  0.01008  0.51904  Biso   1.000  H
  C445     1.0000 0.62710  0.81106  0.47703  Biso   1.000  C
  C446     1.0000 0.62704  0.81106  0.47703  Biso   1.000  C
  H317     1.0000 0.64006  0.82502  0.65800  Biso   1.000  H
  H318     1.0000 0.44607  0.03302  0.66201  Biso   1.000  H
  H319     1.0000 0.55607  0.08806  0.71104  Biso   1.000  H
  C447     1.0000 0.48813  0.02005  0.76302  Biso   1.000  C
  C448     1.0000 0.48807  0.02005  0.76302  Biso   1.000  C
  H320     1.0000 0.74802  0.01399  0.10501  Biso   1.000  H
  H321     1.0000 0.74808  0.01399  0.10501  Biso   1.000  H
  O90      1.0000 0.67408  0.67400  0.46701  Biso   1.000  O
  O91      1.0000 0.67409  0.67406  0.46701  Biso   1.000  O
  H322     1.0000 0.79909  0.74199  0.48400  Biso   1.000  H
  H323     1.0000 0.76908  0.64002  0.42500  Biso   1.000  H
  H324     1.0000 0.79904  0.74206  0.48400  Biso   1.000  H
  H325     1.0000 0.76901  0.64002  0.42500  Biso   1.000  H
  H326     1.0000 0.66309  0.52303  0.63605  Biso   1.000  H
  H327     1.0000 0.75613  0.59005  0.70202  Biso   1.000  H
  C449     1.0000 0.64213  0.55907  0.72803  Biso   1.000  C
  H328     1.0000 0.75607  0.59005  0.70202  Biso   1.000  H
  H329     1.0000 0.88994  0.67097  0.07899  Biso   1.000  H
  C450     1.0000 0.56306  0.74800  0.20303  Biso   1.000  C
  H330     1.0000 0.61000  0.77099  0.12603  Biso   1.000  H
  C451     1.0000 0.56306  0.74806  0.20303  Biso   1.000  C
  H331     1.0000 0.61001  0.77106  0.12603  Biso   1.000  H
  C452     1.0000 0.65702  0.81702  0.31401  Biso   1.000  C
  H332     1.0000 0.78406  0.89303  0.32900  Biso   1.000  H
  H333     1.0000 0.78400  0.89303  0.32900  Biso   1.000  H
  O92      1.0000 0.61207  0.80203  0.40600  Biso   1.000  O
  C453     1.0000 0.40210  0.98407  0.75901  Biso   1.000  C
  C454     1.0000 0.55710  0.04808  0.82504  Biso   1.000  C
  C455     1.0000 0.68012  0.60504  0.79601  Biso   1.000  C
  C456     1.0000 0.56512  0.49605  0.70703  Biso   1.000  C
  C457     1.0000 0.57806  0.76499  0.27301  Biso   1.000  C
  H334     1.0000 0.50103  0.70799  0.16698  Biso   1.000  H
  C458     1.0000 0.57801  0.76505  0.27301  Biso   1.000  C
  H335     1.0000 0.50104  0.70805  0.16698  Biso   1.000  H
  C459     1.0000 0.68009  0.83604  0.39001  Biso   1.000  C
  C460     1.0000 0.68002  0.83604  0.39001  Biso   1.000  C
  C461     1.0000 0.38508  0.97705  0.81701  Biso   1.000  C
  H336     1.0000 0.34808  0.96304  0.71104  Biso   1.000  H
  C462     1.0000 0.54010  0.04006  0.88304  Biso   1.000  C
  H337     1.0000 0.62411  0.07505  0.82804  Biso   1.000  H
  C463     1.0000 0.64016  0.58704  0.84203  Biso   1.000  C
  H338     1.0000 0.74112  0.65403  0.81205  Biso   1.000  H
  C464     1.0000 0.64009  0.58704  0.84203  Biso   1.000  C
  H339     1.0000 0.74112  0.65409  0.81205  Biso   1.000  H
  C465     1.0000 0.52514  0.47907  0.75305  Biso   1.000  C
  H340     1.0000 0.53510  0.46106  0.65505  Biso   1.000  H
  H341     1.0000 0.52906  0.73901  0.29201  Biso   1.000  H
  O93      1.0000 0.74705  0.88000  0.43001  Biso   1.000  O
  O94      1.0000 0.74705  0.88006  0.43001  Biso   1.000  O
  H342     1.0000 0.31810  0.94903  0.81406  Biso   1.000  H
  H343     1.0000 0.31811  0.94909  0.81406  Biso   1.000  H
  C466     1.0000 0.45411  0.00502  0.87903  Biso   1.000  C
  C467     1.0000 0.45412  0.00508  0.87903  Biso   1.000  C
  H344     1.0000 0.59311  0.06205  0.93106  Biso   1.000  H
  C468     1.0000 0.56311  0.52407  0.82002  Biso   1.000  C
  H345     1.0000 0.67012  0.62204  0.89401  Biso   1.000  H
  H346     1.0000 0.46410  0.43006  0.73600  Biso   1.000  H
  H347     1.0000 0.44013  0.99903  0.92404  Biso   1.000  H
  H348     1.0000 0.44014  0.99909  0.92404  Biso   1.000  H
  H349     1.0000 0.53209  0.51003  0.85602  Biso   1.000  H
  H350     1.0000 0.53210  0.51009  0.85602  Biso   1.000  H
  O95      1.0000 0.25306  0.12005  0.57003  Biso   1.000  O
  C469     1.0000 0.32008  0.16401  0.61003  Biso   1.000  C
  C470     1.0000 0.32009  0.16408  0.61003  Biso   1.000  C
  O96      1.0000 0.38810  0.19803  0.59404  Biso   1.000  O
  O97      1.0000 0.38804  0.19803  0.59404  Biso   1.000  O
  C471     1.0000 0.34308  0.18304  0.68603  Biso   1.000  C
  C472     1.0000 0.37306  0.18900  0.52300  Biso   1.000  C
  C473     1.0000 0.37307  0.18906  0.52300  Biso   1.000  C
  C474     1.0000 0.42210  0.23507  0.72703  Biso   1.000  C
  C475     1.0000 0.27708  0.14902  0.70603  Biso   1.000  C
  C476     1.0000 0.27708  0.14908  0.70603  Biso   1.000  C
  C477     1.0000 0.34506  0.25503  0.49202  Biso   1.000  C
  C478     1.0000 0.39003  0.11499  0.48501  Biso   1.000  C
  C479     1.0000 0.39004  0.11506  0.48501  Biso   1.000  C
  H351     1.0000 0.47111  0.26105  0.70803  Biso   1.000  H
  C480     1.0000 0.43711  0.25205  0.79701  Biso   1.000  C
  H352     1.0000 0.47105  0.26105  0.70803  Biso   1.000  H
  C481     1.0000 0.43705  0.25205  0.79701  Biso   1.000  C
  C482     1.0000 0.29507  0.16802  0.77601  Biso   1.000  C
  H353     1.0000 0.21610  0.10702  0.67104  Biso   1.000  H
  H354     1.0000 0.21605  0.10708  0.67104  Biso   1.000  H
  C483     1.0000 0.33702  0.24802  0.42600  Biso   1.000  C
  O98      1.0000 0.32609  0.32606  0.53303  Biso   1.000  O
  O99      1.0000 0.32602  0.32606  0.53303  Biso   1.000  O
  C484     1.0000 0.38608  0.10803  0.42104  Biso   1.000  C
  C485     1.0000 0.38602  0.10803  0.42104  Biso   1.000  C
  O100     1.0000 0.41605  0.04805  0.51704  Biso   1.000  O
  C486     1.0000 0.37708  0.21803  0.82102  Biso   1.000  C
  H355     1.0000 0.49913  0.29207  0.83306  Biso   1.000  H
  H356     1.0000 0.49907  0.29207  0.83306  Biso   1.000  H
  C487     1.0000 0.22509  0.13506  0.80403  Biso   1.000  C
  C488     1.0000 0.30002  0.32104  0.39502  Biso   1.000  C
  C489     1.0000 0.36106  0.17703  0.39201  Biso   1.000  C
  C490     1.0000 0.23403  0.32403  0.52802  Biso   1.000  C
  C491     1.0000 0.40906  0.02801  0.38003  Biso   1.000  C
  C492     1.0000 0.40907  0.02807  0.38003  Biso   1.000  C
  C493     1.0000 0.34807  0.97301  0.50004  Biso   1.000  C
  C494     1.0000 0.34808  0.97307  0.50004  Biso   1.000  C
  H357     1.0000 0.39010  0.22906  0.87401  Biso   1.000  H
  O101     1.0000 0.23811  0.14706  0.86303  Biso   1.000  O
  O102     1.0000 0.15311  0.08602  0.75601  Biso   1.000  O
  O103     1.0000 0.15305  0.08608  0.75601  Biso   1.000  O
  C495     1.0000 0.19800  0.29400  0.36499  Biso   1.000  C
  H358     1.0000 0.31803  0.38202  0.43302  Biso   1.000  H
  C496     1.0000 0.34403  0.34098  0.34499  Biso   1.000  C
  C497     1.0000 0.34404  0.34105  0.34499  Biso   1.000  C
  H359     1.0000 0.36005  0.17504  0.34204  Biso   1.000  H
  O104     1.0000 0.19105  0.36503  0.47503  Biso   1.000  O
  H360     1.0000 0.20107  0.25806  0.51604  Biso   1.000  H
  H361     1.0000 0.23109  0.36004  0.57504  Biso   1.000  H
  H362     1.0000 0.23103  0.36004  0.57504  Biso   1.000  H
  C498     1.0000 0.45302  0.04802  0.33000  Biso   1.000  C
  C499     1.0000 0.32405  0.96000  0.34900  Biso   1.000  C
  H363     1.0000 0.46008  0.00303  0.41302  Biso   1.000  H
  H364     1.0000 0.46002  0.00303  0.41302  Biso   1.000  H
  O105     1.0000 0.35708  0.90505  0.44901  Biso   1.000  O
  H365     1.0000 0.28208  0.99004  0.48099  Biso   1.000  H
  H366     1.0000 0.35204  0.94900  0.54401  Biso   1.000  H
  O106     1.0000 0.35702  0.90505  0.44901  Biso   1.000  O
  H367     1.0000 0.28202  0.99004  0.48099  Biso   1.000  H
  H368     1.0000 0.35205  0.94906  0.54401  Biso   1.000  H
  C500     1.0000 0.08608  0.04806  0.77801  Biso   1.000  C
  C501     1.0000 0.15103  0.25005  0.30103  Biso   1.000  C
  C502     1.0000 0.15105  0.31499  0.40901  Biso   1.000  C
  C503     1.0000 0.15100  0.31505  0.40901  Biso   1.000  C
  H369     1.0000 0.41703  0.35300  0.36800  Biso   1.000  H
  C504     1.0000 0.31704  0.42203  0.32103  Biso   1.000  C
  H370     1.0000 0.32406  0.28605  0.30203  Biso   1.000  H
  H371     1.0000 0.32400  0.28605  0.30203  Biso   1.000  H
  H372     1.0000 0.40303  0.06402  0.29000  Biso   1.000  H
  C505     1.0000 0.49206  0.97100  0.30103  Biso   1.000  C
  C506     1.0000 0.49201  0.97106  0.30103  Biso   1.000  C
  H373     1.0000 0.50705  0.10299  0.35602  Biso   1.000  H
  H374     1.0000 0.50706  0.10306  0.35602  Biso   1.000  H
  C507     1.0000 0.26503  0.94999  0.28303  Biso   1.000  C
  C508     1.0000 0.30107  0.90002  0.38500  Biso   1.000  C
  C509     1.0000 0.26504  0.95005  0.28303  Biso   1.000  C
  C510     1.0000 0.30100  0.90002  0.38500  Biso   1.000  C
  C511     1.0000 0.07811  0.96301  0.77902  Biso   1.000  C
  C512     1.0000 0.07811  0.96307  0.77902  Biso   1.000  C
  C513     1.0000 0.02610  0.10203  0.79004  Biso   1.000  C
  C514     1.0000 0.02611  0.10209  0.79004  Biso   1.000  C
  H375     1.0000 0.18801  0.23502  0.26599  Biso   1.000  H
  C515     1.0000 0.05902  0.22400  0.27802  Biso   1.000  C
  C516     1.0000 0.05903  0.22406  0.27802  Biso   1.000  C
  C517     1.0000 0.05905  0.28801  0.38700  Biso   1.000  C
  C518     1.0000 0.05899  0.28801  0.38700  Biso   1.000  C
  H376     1.0000 0.33702  0.47702  0.36399  Biso   1.000  H
  H377     1.0000 0.24404  0.41001  0.29802  Biso   1.000  H
  C519     1.0000 0.35803  0.44098  0.27200  Biso   1.000  C
  C520     1.0000 0.35798  0.44105  0.27200  Biso   1.000  C
  H378     1.0000 0.55404  0.96703  0.33802  Biso   1.000  H
  H379     1.0000 0.44403  0.91200  0.28900  Biso   1.000  H
  C521     1.0000 0.51203  0.98000  0.23701  Biso   1.000  C
  H380     1.0000 0.44404  0.91206  0.28900  Biso   1.000  H
  C522     1.0000 0.18601  0.88804  0.25300  Biso   1.000  C
  H381     1.0000 0.28106  0.99198  0.25300  Biso   1.000  H
  H382     1.0000 0.28100  0.99205  0.25300  Biso   1.000  H
  C523     1.0000 0.22908  0.83700  0.35402  Biso   1.000  C
  C524     1.0000 0.22902  0.83707  0.35402  Biso   1.000  C
  C525     1.0000 0.00413  0.92703  0.79305  Biso   1.000  C
  O107     1.0000 0.14311  0.91706  0.76804  Biso   1.000  O
  C526     1.0000 0.00408  0.92710  0.79305  Biso   1.000  C
  C527     1.0000 0.95110  0.06604  0.80403  Biso   1.000  C
  O108     1.0000 0.04108  0.19002  0.79205  Biso   1.000  O
  O109     1.0000 0.04109  0.19009  0.79205  Biso   1.000  O
  C528     1.0000 0.01205  0.24502  0.32003  Biso   1.000  C
  C529     1.0000 0.00901  0.17003  0.20598  Biso   1.000  C
  O110     1.0000 0.01008  0.29802  0.43302  Biso   1.000  O
  O111     1.0000 0.01001  0.29802  0.43302  Biso   1.000  O
  C530     1.0000 0.32004  0.39502  0.20403  Biso   1.000  C
  C531     1.0000 0.43504  0.50400  0.29301  Biso   1.000  C
  C532     1.0000 0.31998  0.39502  0.20403  Biso   1.000  C
  C533     1.0000 0.43498  0.50400  0.29301  Biso   1.000  C
  C534     1.0000 0.44301  0.95204  0.17500  Biso   1.000  C
  C535     1.0000 0.59800  0.01599  0.24102  Biso   1.000  C
  C536     1.0000 0.59801  0.01605  0.24102  Biso   1.000  C
  C537     1.0000 0.11903  0.88201  0.18403  Biso   1.000  C
  C538     1.0000 0.16803  0.82803  0.29100  Biso   1.000  C
  O112     1.0000 0.21405  0.76904  0.38600  Biso   1.000  O
  C539     1.0000 0.94210  0.97804  0.80604  Biso   1.000  C
  C540     1.0000 0.99110  0.83003  0.79406  Biso   1.000  C
  C541     1.0000 0.99110  0.83009  0.79406  Biso   1.000  C
  C542     1.0000 0.12408  0.85906  0.70402  Biso   1.000  C
  C543     1.0000 0.88107  0.11804  0.81601  Biso   1.000  C
  C544     1.0000 0.99009  0.21307  0.73305  Biso   1.000  C
  O113     1.0000 0.91603  0.22501  0.29702  Biso   1.000  O
  C545     1.0000 0.04799  0.18601  0.14999  Biso   1.000  C
  C546     1.0000 0.99603  0.07302  0.20699  Biso   1.000  C
  H383     1.0000 0.94604  0.19302  0.18899  Biso   1.000  H
  H384     1.0000 0.94598  0.19302  0.18899  Biso   1.000  H
  C547     1.0000 0.96206  0.36104  0.43102  Biso   1.000  C
  C548     1.0000 0.36001  0.41301  0.15801  Biso   1.000  C
  H385     1.0000 0.25899  0.34602  0.18799  Biso   1.000  H
  C549     1.0000 0.47502  0.52099  0.24699  Biso   1.000  C
  H386     1.0000 0.46501  0.53899  0.34499  Biso   1.000  H
  C550     1.0000 0.47497  0.52105  0.24699  Biso   1.000  C
  H387     1.0000 0.46501  0.53906  0.34499  Biso   1.000  H
  C551     1.0000 0.46000  0.96000  0.11700  Biso   1.000  C
  H388     1.0000 0.37599  0.92500  0.17200  Biso   1.000  H
  C552     1.0000 0.61502  0.02300  0.18302  Biso   1.000  C
  H389     1.0000 0.65203  0.03702  0.28900  Biso   1.000  H
  C553     1.0000 0.04900  0.93402  0.19601  Biso   1.000  C
  H390     1.0000 0.08501  0.81698  0.15400  Biso   1.000  H
  C554     1.0000 0.16804  0.90603  0.13700  Biso   1.000  C
  H391     1.0000 0.08502  0.81704  0.15400  Biso   1.000  H
  O114     1.0000 0.09405  0.76505  0.26303  Biso   1.000  O
  C555     1.0000 0.16608  0.78201  0.42801  Biso   1.000  C
  C556     1.0000 0.16602  0.78201  0.42801  Biso   1.000  C
  H392     1.0000 0.88711  0.95003  0.81902  Biso   1.000  H
  C557     1.0000 0.94108  0.77606  0.72202  Biso   1.000  C
  C558     1.0000 0.95212  0.81405  0.85005  Biso   1.000  C
  H393     1.0000 0.05413  0.80704  0.81105  Biso   1.000  H
  O115     1.0000 0.08407  0.77505  0.70302  Biso   1.000  O
  H394     1.0000 0.07811  0.88303  0.66703  Biso   1.000  H
  H395     1.0000 0.18608  0.85503  0.69405  Biso   1.000  H
  H396     1.0000 0.18609  0.85509  0.69405  Biso   1.000  H
  C559     1.0000 0.81409  0.11201  0.74703  Biso   1.000  C
  C560     1.0000 0.81410  0.11208  0.74703  Biso   1.000  C
  H397     1.0000 0.91509  0.18308  0.84604  Biso   1.000  H
  C561     1.0000 0.83213  0.09402  0.86303  Biso   1.000  C
  C562     1.0000 0.83207  0.09408  0.86303  Biso   1.000  C
  O116     1.0000 0.90605  0.23500  0.73701  Biso   1.000  O
  O117     1.0000 0.90606  0.23507  0.73701  Biso   1.000  O
  H398     1.0000 0.97712  0.15906  0.69004  Biso   1.000  H
  H399     1.0000 0.97705  0.15906  0.69004  Biso   1.000  H
  H400     1.0000 0.02912  0.26906  0.72803  Biso   1.000  H
  H401     1.0000 0.02906  0.26906  0.72803  Biso   1.000  H
  C563     1.0000 0.87603  0.14100  0.29602  Biso   1.000  C
  C564     1.0000 0.87603  0.14106  0.29602  Biso   1.000  C
  C565     1.0000 0.04602  0.27900  0.14001  Biso   1.000  C
  H402     1.0000 0.01004  0.13901  0.10302  Biso   1.000  H
  H403     1.0000 0.11705  0.17704  0.16503  Biso   1.000  H
  H404     1.0000 0.00998  0.13901  0.10302  Biso   1.000  H
  H405     1.0000 0.11699  0.17704  0.16503  Biso   1.000  H
  C566     1.0000 0.05800  0.02201  0.19400  Biso   1.000  C
  C567     1.0000 0.92206  0.03705  0.22102  Biso   1.000  C
  C568     1.0000 0.92200  0.03705  0.22102  Biso   1.000  C
  C569     1.0000 0.90808  0.36304  0.47603  Biso   1.000  C
  O118     1.0000 0.96102  0.41203  0.39602  Biso   1.000  O
  C570     1.0000 0.90801  0.36304  0.47603  Biso   1.000  C
  H406     1.0000 0.32998  0.37802  0.10602  Biso   1.000  H
  C571     1.0000 0.43700  0.47598  0.18002  Biso   1.000  C
  C572     1.0000 0.43700  0.47604  0.18002  Biso   1.000  C
  H407     1.0000 0.53600  0.57000  0.26403  Biso   1.000  H
  H408     1.0000 0.53601  0.57006  0.26403  Biso   1.000  H
  C573     1.0000 0.54599  0.99504  0.12101  Biso   1.000  C
  H409     1.0000 0.40699  0.93801  0.06898  Biso   1.000  H
  H410     1.0000 0.68202  0.05105  0.18603  Biso   1.000  H
  C574     1.0000 0.97400  0.89802  0.20999  Biso   1.000  C
  H411     1.0000 0.19904  0.97398  0.15500  Biso   1.000  H
  H412     1.0000 0.21900  0.86701  0.13600  Biso   1.000  H
  C575     1.0000 0.09804  0.88999  0.06702  Biso   1.000  C
  H413     1.0000 0.19898  0.97404  0.15500  Biso   1.000  H
  C576     1.0000 0.09799  0.89005  0.06702  Biso   1.000  C
  C577     1.0000 0.01001  0.78699  0.26699  Biso   1.000  C
  C578     1.0000 0.01002  0.78705  0.26699  Biso   1.000  C
  O119     1.0000 0.14106  0.85002  0.44199  Biso   1.000  O
  C579     1.0000 0.15707  0.70403  0.45403  Biso   1.000  C
  C580     1.0000 0.98812  0.75504  0.68001  Biso   1.000  C
  C581     1.0000 0.84907  0.75001  0.69901  Biso   1.000  C
  C582     1.0000 0.98805  0.75504  0.68001  Biso   1.000  C
  C583     1.0000 0.84908  0.75007  0.69901  Biso   1.000  C
  H414     1.0000 0.99012  0.86105  0.89702  Biso   1.000  H
  H415     1.0000 0.88312  0.82302  0.83501  Biso   1.000  H
  C584     1.0000 0.95414  0.72105  0.86003  Biso   1.000  C
  H416     1.0000 0.88312  0.82308  0.83501  Biso   1.000  H
  C585     1.0000 0.95408  0.72105  0.86003  Biso   1.000  C
  C586     1.0000 0.83207  0.17203  0.70904  Biso   1.000  C
  C587     1.0000 0.73507  0.05006  0.71701  Biso   1.000  C
  H417     1.0000 0.80113  0.02608  0.84504  Biso   1.000  H
  H418     1.0000 0.78110  0.13305  0.86404  Biso   1.000  H
  C588     1.0000 0.90212  0.11007  0.93301  Biso   1.000  C
  H419     1.0000 0.92206  0.11702  0.33301  Biso   1.000  H
  H420     1.0000 0.81402  0.14503  0.30599  Biso   1.000  H
  O120     1.0000 0.85699  0.08299  0.23200  Biso   1.000  O
  H421     1.0000 0.92200  0.11702  0.33301  Biso   1.000  H
  O121     1.0000 0.85700  0.08306  0.23200  Biso   1.000  O
  C589     1.0000 0.06498  0.29203  0.08001  Biso   1.000  C
  H422     1.0000 0.97997  0.29298  0.13600  Biso   1.000  H
  H423     1.0000 0.97998  0.29304  0.13600  Biso   1.000  H
  H424     1.0000 0.09605  0.32401  0.18302  Biso   1.000  H
  H425     1.0000 0.09599  0.32401  0.18302  Biso   1.000  H
  H426     1.0000 0.11305  0.05003  0.18102  Biso   1.000  H
  H427     1.0000 0.11299  0.05003  0.18102  Biso   1.000  H
  C590     1.0000 0.91402  0.95199  0.22202  Biso   1.000  C
  C591     1.0000 0.91403  0.95206  0.22202  Biso   1.000  C
  C592     1.0000 0.87209  0.43606  0.49704  Biso   1.000  C
  C593     1.0000 0.89306  0.29203  0.50200  Biso   1.000  C
  C594     1.0000 0.87202  0.43606  0.49704  Biso   1.000  C
  H428     1.0000 0.46801  0.49003  0.14402  Biso   1.000  H
  H429     1.0000 0.56004  0.00103  0.07600  Biso   1.000  H
  H430     1.0000 0.55997  0.00103  0.07600  Biso   1.000  H
  O122     1.0000 0.95902  0.81003  0.20799  Biso   1.000  O
  H431     1.0000 0.06899  0.82198  0.04903  Biso   1.000  H
  H432     1.0000 0.04500  0.92700  0.06898  Biso   1.000  H
  C595     1.0000 0.14400  0.91700  0.01800  Biso   1.000  C
  H433     1.0000 0.06900  0.82205  0.04903  Biso   1.000  H
  H434     1.0000 0.97105  0.73100  0.27200  Biso   1.000  H
  H435     1.0000 0.02305  0.84099  0.31000  Biso   1.000  H
  H436     1.0000 0.02305  0.84106  0.31000  Biso   1.000  H
  C596     1.0000 0.18707  0.63003  0.43503  Biso   1.000  C
  C597     1.0000 0.10710  0.70803  0.49804  Biso   1.000  C
  C598     1.0000 0.10704  0.70803  0.49804  Biso   1.000  C
  C599     1.0000 0.94111  0.71204  0.61304  Biso   1.000  C
  C600     1.0000 0.94105  0.71204  0.61304  Biso   1.000  C
  C601     1.0000 0.80210  0.70605  0.63504  Biso   1.000  C
  H437     1.0000 0.81209  0.76503  0.73405  Biso   1.000  H
  H438     1.0000 0.81210  0.76509  0.73405  Biso   1.000  H
  H439     1.0000 0.90411  0.67605  0.81701  Biso   1.000  H
  C602     1.0000 0.93512  0.70803  0.92003  Biso   1.000  C
  C603     1.0000 0.93513  0.70809  0.92003  Biso   1.000  C
  H440     1.0000 0.02013  0.70708  0.86404  Biso   1.000  H
  C604     1.0000 0.77109  0.16305  0.64602  Biso   1.000  C
  C605     1.0000 0.67611  0.04005  0.65104  Biso   1.000  C
  C606     1.0000 0.67605  0.04005  0.65104  Biso   1.000  C
  H441     1.0000 0.71911  0.00807  0.74703  Biso   1.000  H
  H442     1.0000 0.93114  0.17809  0.95106  Biso   1.000  H
  H443     1.0000 0.95510  0.07306  0.93106  Biso   1.000  H
  C607     1.0000 0.85610  0.08305  0.98204  Biso   1.000  C
  C608     1.0000 0.01501  0.34298  0.04201  Biso   1.000  C
  C609     1.0000 0.13102  0.25501  0.06001  Biso   1.000  C
  C610     1.0000 0.01501  0.34304  0.04201  Biso   1.000  C
  C611     1.0000 0.13096  0.25501  0.06001  Biso   1.000  C
  O123     1.0000 0.84706  0.91404  0.24403  Biso   1.000  O
  C612     1.0000 0.82504  0.44105  0.54100  Biso   1.000  C
  H444     1.0000 0.88205  0.49103  0.47703  Biso   1.000  H
  C613     1.0000 0.84303  0.29603  0.54601  Biso   1.000  C
  H445     1.0000 0.91907  0.23300  0.48701  Biso   1.000  H
  H446     1.0000 0.91901  0.23306  0.48701  Biso   1.000  H
  C614     1.0000 0.19406  0.86304  0.99103  Biso   1.000  C
  C615     1.0000 0.19412  0.86304  0.99103  Biso   1.000  C
  C616     1.0000 0.13401  0.99600  0.00201  Biso   1.000  C
  H447     1.0000 0.22508  0.62806  0.40104  Biso   1.000  H
  C617     1.0000 0.17507  0.55901  0.45904  Biso   1.000  C
  C618     1.0000 0.17507  0.55907  0.45904  Biso   1.000  C
  C619     1.0000 0.09209  0.63702  0.52401  Biso   1.000  C
  H448     1.0000 0.08110  0.76706  0.51303  Biso   1.000  H
  O124     1.0000 0.99009  0.70204  0.56702  Biso   1.000  O
  C620     1.0000 0.84911  0.68506  0.59103  Biso   1.000  C
  C621     1.0000 0.84905  0.68506  0.59103  Biso   1.000  C
  C622     1.0000 0.70009  0.67902  0.60502  Biso   1.000  C
  C623     1.0000 0.98516  0.65707  0.95803  Biso   1.000  C
  C624     1.0000 0.86914  0.74504  0.94003  Biso   1.000  C
  C625     1.0000 0.98510  0.65707  0.95803  Biso   1.000  C
  O125     1.0000 0.78606  0.23102  0.61404  Biso   1.000  O
  O126     1.0000 0.78606  0.23108  0.61404  Biso   1.000  O
  C626     1.0000 0.69910  0.10003  0.61504  Biso   1.000  C
  C627     1.0000 0.59111  0.97205  0.62000  Biso   1.000  C
  C628     1.0000 0.59104  0.97205  0.62000  Biso   1.000  C
  C629     1.0000 0.86615  0.00405  0.99803  Biso   1.000  C
  C630     1.0000 0.86609  0.00405  0.99803  Biso   1.000  C
  C631     1.0000 0.80598  0.13696  0.00901  Biso   1.000  C
  C632     1.0000 0.80605  0.13702  0.00901  Biso   1.000  C
  H449     1.0000 0.96298  0.37200  0.05700  Biso   1.000  H
  C633     1.0000 0.03117  0.35607  0.98506  Biso   1.000  C
  C634     1.0000 0.03111  0.35607  0.98506  Biso   1.000  C
  C635     1.0000 0.14702  0.26902  0.00301  Biso   1.000  C
  H450     1.0000 0.16901  0.21601  0.08898  Biso   1.000  H
  C636     1.0000 0.14695  0.26902  0.00301  Biso   1.000  C
  H451     1.0000 0.16895  0.21601  0.08898  Biso   1.000  H
  C637     1.0000 0.77502  0.86499  0.19601  Biso   1.000  C
  C638     1.0000 0.77502  0.86506  0.19601  Biso   1.000  C
  C639     1.0000 0.81303  0.37003  0.56501  Biso   1.000  C
  H452     1.0000 0.80008  0.49901  0.55504  Biso   1.000  H
  H453     1.0000 0.80003  0.49907  0.55504  Biso   1.000  H
  C640     1.0000 0.83408  0.21805  0.57203  Biso   1.000  C
  C641     1.0000 0.23208  0.88805  0.94606  Biso   1.000  C
  C642     1.0000 0.23214  0.88805  0.94606  Biso   1.000  C
  H454     1.0000 0.20199  0.80199  0.00401  Biso   1.000  H
  H455     1.0000 0.20200  0.80205  0.00401  Biso   1.000  H
  H456     1.0000 0.09601  0.03800  0.02301  Biso   1.000  H
  C643     1.0000 0.17317  0.02107  0.95704  Biso   1.000  C
  C644     1.0000 0.17311  0.02107  0.95704  Biso   1.000  C
  H457     1.0000 0.20008  0.50105  0.44500  Biso   1.000  H
  C645     1.0000 0.12808  0.56400  0.50300  Biso   1.000  C
  C646     1.0000 0.12809  0.56406  0.50300  Biso   1.000  C
  C647     1.0000 0.03811  0.63902  0.56902  Biso   1.000  C
  C648     1.0000 0.03805  0.63902  0.56902  Biso   1.000  C
  O127     1.0000 0.80906  0.63502  0.52501  Biso   1.000  O
  C649     1.0000 0.66308  0.75203  0.57404  Biso   1.000  C
  H458     1.0000 0.68207  0.61804  0.56702  Biso   1.000  H
  C650     1.0000 0.65613  0.65907  0.65505  Biso   1.000  C
  C651     1.0000 0.65607  0.65907  0.65505  Biso   1.000  C
  C652     1.0000 0.96893  0.64399  0.01498  Biso   1.000  C
  H459     1.0000 0.03713  0.62806  0.94304  Biso   1.000  H
  C653     1.0000 0.85315  0.73103  0.99703  Biso   1.000  C
  H460     1.0000 0.83115  0.78405  0.91106  Biso   1.000  H
  C654     1.0000 0.85316  0.73109  0.99703  Biso   1.000  C
  O128     1.0000 0.64308  0.09501  0.55103  Biso   1.000  O
  O129     1.0000 0.64309  0.09507  0.55103  Biso   1.000  O
  C655     1.0000 0.61408  0.89202  0.57900  Biso   1.000  C
  H461     1.0000 0.54008  0.99702  0.58702  Biso   1.000  H
  C656     1.0000 0.54708  0.95204  0.67003  Biso   1.000  C
  H462     1.0000 0.90416  0.96205  0.97703  Biso   1.000  H
  H463     1.0000 0.90410  0.96205  0.97703  Biso   1.000  H
  C657     1.0000 0.82693  0.97898  0.04300  Biso   1.000  C
  H464     1.0000 0.79811  0.19807  0.99603  Biso   1.000  H
  C658     1.0000 0.76796  0.11195  0.05398  Biso   1.000  C
  C659     1.0000 0.76803  0.11201  0.05398  Biso   1.000  C
  H465     1.0000 0.99215  0.39505  0.95604  Biso   1.000  H
  H466     1.0000 0.99209  0.39512  0.95604  Biso   1.000  H
  C660     1.0000 0.09715  0.31905  0.96506  Biso   1.000  C
  C661     1.0000 0.09716  0.31911  0.96506  Biso   1.000  C
  H467     1.0000 0.19813  0.24009  0.98807  Biso   1.000  H
  C662     1.0000 0.70503  0.83203  0.22403  Biso   1.000  C
  O130     1.0000 0.76205  0.85299  0.13700  Biso   1.000  O
  O131     1.0000 0.76199  0.85299  0.13700  Biso   1.000  O
  H468     1.0000 0.77509  0.37206  0.59900  Biso   1.000  H
  H469     1.0000 0.77503  0.37206  0.59900  Biso   1.000  H
  O132     1.0000 0.85911  0.15004  0.55804  Biso   1.000  O
  O133     1.0000 0.85905  0.15004  0.55804  Biso   1.000  O
  C663     1.0000 0.22210  0.96703  0.92907  Biso   1.000  C
  H470     1.0000 0.27010  0.84603  0.92405  Biso   1.000  H
  H471     1.0000 0.27016  0.84603  0.92405  Biso   1.000  H
  H472     1.0000 0.16517  0.08206  0.94406  Biso   1.000  H
  H473     1.0000 0.16511  0.08212  0.94406  Biso   1.000  H
  H474     1.0000 0.11805  0.50903  0.52300  Biso   1.000  H
  O134     1.0000 0.03909  0.58802  0.60401  Biso   1.000  O
  C664     1.0000 0.76607  0.67602  0.47202  Biso   1.000  C
  C665     1.0000 0.65511  0.74503  0.50801  Biso   1.000  C
  C666     1.0000 0.65504  0.74503  0.50801  Biso   1.000  C
  C667     1.0000 0.63911  0.82302  0.60802  Biso   1.000  C
  C668     1.0000 0.63905  0.82302  0.60802  Biso   1.000  C
  H475     1.0000 0.58313  0.64705  0.63204  Biso   1.000  H
  H476     1.0000 0.67611  0.71400  0.69801  Biso   1.000  H
  C669     1.0000 0.68307  0.57803  0.67901  Biso   1.000  C
  H477     1.0000 0.58307  0.64705  0.63204  Biso   1.000  H
  H478     1.0000 0.67605  0.71407  0.69801  Biso   1.000  H
  C670     1.0000 0.90295  0.68101  0.03498  Biso   1.000  C
  C671     1.0000 0.90289  0.68101  0.03498  Biso   1.000  C
  H479     1.0000 0.00795  0.60500  0.04400  Biso   1.000  H
  H480     1.0000 0.80191  0.75997  0.01197  Biso   1.000  H
  C672     1.0000 0.65205  0.02706  0.50004  Biso   1.000  C
  C673     1.0000 0.61007  0.88506  0.51503  Biso   1.000  C
  H481     1.0000 0.59707  0.93603  0.71004  Biso   1.000  H
  H482     1.0000 0.49312  0.89706  0.64402  Biso   1.000  H
  H483     1.0000 0.49305  0.89706  0.64402  Biso   1.000  H
  C674     1.0000 0.50810  0.02906  0.69901  Biso   1.000  C
  C675     1.0000 0.50804  0.02906  0.69901  Biso   1.000  C
  H484     1.0000 0.83494  0.91799  0.05598  Biso   1.000  H
  C676     1.0000 0.77799  0.03296  0.07097  Biso   1.000  C
  H485     1.0000 0.73000  0.15396  0.07598  Biso   1.000  H
  H486     1.0000 0.11016  0.32908  0.92105  Biso   1.000  H
  H487     1.0000 0.11010  0.32908  0.92105  Biso   1.000  H
  C677     1.0000 0.62302  0.78203  0.17901  Biso   1.000  C
  C678     1.0000 0.72303  0.85104  0.29401  Biso   1.000  C
  H488     1.0000 0.25208  0.98600  0.89503  Biso   1.000  H
  O135     1.0000 0.67408  0.67400  0.46701  Biso   1.000  O
  O136     1.0000 0.67409  0.67406  0.46701  Biso   1.000  O
  H489     1.0000 0.79909  0.74199  0.48400  Biso   1.000  H
  H490     1.0000 0.76908  0.64002  0.42500  Biso   1.000  H
  H491     1.0000 0.79904  0.74206  0.48400  Biso   1.000  H
  H492     1.0000 0.76901  0.64002  0.42500  Biso   1.000  H
  C679     1.0000 0.62710  0.81106  0.47703  Biso   1.000  C
  C680     1.0000 0.62704  0.81106  0.47703  Biso   1.000  C
  H493     1.0000 0.64006  0.82502  0.65800  Biso   1.000  H
  H494     1.0000 0.66309  0.52303  0.63605  Biso   1.000  H
  H495     1.0000 0.75613  0.59005  0.70202  Biso   1.000  H
  C681     1.0000 0.64213  0.55907  0.72803  Biso   1.000  C
  H496     1.0000 0.75607  0.59005  0.70202  Biso   1.000  H
  H497     1.0000 0.88994  0.67097  0.07899  Biso   1.000  H
  O137     1.0000 0.58405  0.95200  0.48300  Biso   1.000  O
  O138     1.0000 0.58406  0.95207  0.48300  Biso   1.000  O
  H498     1.0000 0.71808  0.01001  0.51904  Biso   1.000  H
  H499     1.0000 0.64806  0.05106  0.45603  Biso   1.000  H
  H500     1.0000 0.71809  0.01008  0.51904  Biso   1.000  H
  H501     1.0000 0.44607  0.03302  0.66201  Biso   1.000  H
  H502     1.0000 0.55607  0.08806  0.71104  Biso   1.000  H
  C682     1.0000 0.48813  0.02005  0.76302  Biso   1.000  C
  C683     1.0000 0.48807  0.02005  0.76302  Biso   1.000  C
  H503     1.0000 0.74802  0.01399  0.10501  Biso   1.000  H
  H504     1.0000 0.74808  0.01399  0.10501  Biso   1.000  H
  C684     1.0000 0.56306  0.74800  0.20303  Biso   1.000  C
  H505     1.0000 0.61000  0.77099  0.12603  Biso   1.000  H
  C685     1.0000 0.56306  0.74806  0.20303  Biso   1.000  C
  H506     1.0000 0.61001  0.77106  0.12603  Biso   1.000  H
  C686     1.0000 0.65702  0.81702  0.31401  Biso   1.000  C
  H507     1.0000 0.78406  0.89303  0.32900  Biso   1.000  H
  H508     1.0000 0.78400  0.89303  0.32900  Biso   1.000  H
  O139     1.0000 0.61207  0.80203  0.40600  Biso   1.000  O
  C687     1.0000 0.68012  0.60504  0.79601  Biso   1.000  C
  C688     1.0000 0.56512  0.49605  0.70703  Biso   1.000  C
  C689     1.0000 0.40210  0.98407  0.75901  Biso   1.000  C
  C690     1.0000 0.55710  0.04808  0.82504  Biso   1.000  C
  C691     1.0000 0.57806  0.76499  0.27301  Biso   1.000  C
  H509     1.0000 0.50103  0.70799  0.16698  Biso   1.000  H
  C692     1.0000 0.57801  0.76505  0.27301  Biso   1.000  C
  H510     1.0000 0.50104  0.70805  0.16698  Biso   1.000  H
  C693     1.0000 0.68009  0.83604  0.39001  Biso   1.000  C
  C694     1.0000 0.68002  0.83604  0.39001  Biso   1.000  C
  C695     1.0000 0.64016  0.58704  0.84203  Biso   1.000  C
  H511     1.0000 0.74112  0.65403  0.81205  Biso   1.000  H
  C696     1.0000 0.64009  0.58704  0.84203  Biso   1.000  C
  H512     1.0000 0.74112  0.65409  0.81205  Biso   1.000  H
  C697     1.0000 0.52514  0.47907  0.75305  Biso   1.000  C
  H513     1.0000 0.53510  0.46106  0.65505  Biso   1.000  H
  C698     1.0000 0.38508  0.97705  0.81701  Biso   1.000  C
  H514     1.0000 0.34808  0.96304  0.71104  Biso   1.000  H
  C699     1.0000 0.54010  0.04006  0.88304  Biso   1.000  C
  H515     1.0000 0.62411  0.07505  0.82804  Biso   1.000  H
  H516     1.0000 0.52906  0.73901  0.29201  Biso   1.000  H
  O140     1.0000 0.74705  0.88000  0.43001  Biso   1.000  O
  O141     1.0000 0.74705  0.88006  0.43001  Biso   1.000  O
  C700     1.0000 0.56311  0.52407  0.82002  Biso   1.000  C
  H517     1.0000 0.67012  0.62204  0.89401  Biso   1.000  H
  H518     1.0000 0.46410  0.43006  0.73600  Biso   1.000  H
  H519     1.0000 0.31810  0.94903  0.81406  Biso   1.000  H
  H520     1.0000 0.31811  0.94909  0.81406  Biso   1.000  H
  C701     1.0000 0.45411  0.00502  0.87903  Biso   1.000  C
  C702     1.0000 0.45412  0.00508  0.87903  Biso   1.000  C
  H521     1.0000 0.59311  0.06205  0.93106  Biso   1.000  H
  H522     1.0000 0.53209  0.51003  0.85602  Biso   1.000  H
  H523     1.0000 0.53210  0.51009  0.85602  Biso   1.000  H
  H524     1.0000 0.44013  0.99903  0.92404  Biso   1.000  H
  H525     1.0000 0.44014  0.99909  0.92404  Biso   1.000  H
  O142     1.0000 0.25306  0.12005  0.57003  Biso   1.000  O
  C703     1.0000 0.32008  0.16401  0.61003  Biso   1.000  C
  C704     1.0000 0.32009  0.16408  0.61003  Biso   1.000  C
  O143     1.0000 0.38810  0.19803  0.59404  Biso   1.000  O
  O144     1.0000 0.38804  0.19803  0.59404  Biso   1.000  O
  C705     1.0000 0.34308  0.18304  0.68603  Biso   1.000  C
  C706     1.0000 0.37306  0.18900  0.52300  Biso   1.000  C
  C707     1.0000 0.37307  0.18906  0.52300  Biso   1.000  C
  C708     1.0000 0.42210  0.23507  0.72703  Biso   1.000  C
  C709     1.0000 0.27708  0.14902  0.70603  Biso   1.000  C
  C710     1.0000 0.27708  0.14908  0.70603  Biso   1.000  C
  C711     1.0000 0.34506  0.25503  0.49202  Biso   1.000  C
  C712     1.0000 0.39003  0.11499  0.48501  Biso   1.000  C
  C713     1.0000 0.39004  0.11506  0.48501  Biso   1.000  C
  H526     1.0000 0.47111  0.26105  0.70803  Biso   1.000  H
  C714     1.0000 0.43711  0.25205  0.79701  Biso   1.000  C
  H527     1.0000 0.47105  0.26105  0.70803  Biso   1.000  H
  C715     1.0000 0.43705  0.25205  0.79701  Biso   1.000  C
  C716     1.0000 0.29507  0.16802  0.77601  Biso   1.000  C
  H528     1.0000 0.21610  0.10702  0.67104  Biso   1.000  H
  H529     1.0000 0.21605  0.10708  0.67104  Biso   1.000  H
  C717     1.0000 0.33702  0.24802  0.42600  Biso   1.000  C
  O145     1.0000 0.32609  0.32606  0.53303  Biso   1.000  O
  O146     1.0000 0.32602  0.32606  0.53303  Biso   1.000  O
  C718     1.0000 0.38608  0.10803  0.42104  Biso   1.000  C
  C719     1.0000 0.38602  0.10803  0.42104  Biso   1.000  C
  O147     1.0000 0.41605  0.04805  0.51704  Biso   1.000  O
  C720     1.0000 0.37708  0.21803  0.82102  Biso   1.000  C
  H530     1.0000 0.49913  0.29207  0.83306  Biso   1.000  H
  H531     1.0000 0.49907  0.29207  0.83306  Biso   1.000  H
  C721     1.0000 0.22509  0.13506  0.80403  Biso   1.000  C
  C722     1.0000 0.30002  0.32104  0.39502  Biso   1.000  C
  C723     1.0000 0.36106  0.17703  0.39201  Biso   1.000  C
  C724     1.0000 0.23403  0.32403  0.52802  Biso   1.000  C
  C725     1.0000 0.40906  0.02801  0.38003  Biso   1.000  C
  C726     1.0000 0.40907  0.02807  0.38003  Biso   1.000  C
  C727     1.0000 0.34807  0.97301  0.50004  Biso   1.000  C
  C728     1.0000 0.34808  0.97307  0.50004  Biso   1.000  C
  H532     1.0000 0.39010  0.22906  0.87401  Biso   1.000  H
  O148     1.0000 0.23811  0.14706  0.86303  Biso   1.000  O
  O149     1.0000 0.15311  0.08602  0.75601  Biso   1.000  O
  O150     1.0000 0.15305  0.08608  0.75601  Biso   1.000  O
  C729     1.0000 0.19800  0.29400  0.36499  Biso   1.000  C
  H533     1.0000 0.31803  0.38202  0.43302  Biso   1.000  H
  C730     1.0000 0.34403  0.34098  0.34499  Biso   1.000  C
  C731     1.0000 0.34404  0.34105  0.34499  Biso   1.000  C
  H534     1.0000 0.36005  0.17504  0.34204  Biso   1.000  H
  O151     1.0000 0.19105  0.36503  0.47503  Biso   1.000  O
  H535     1.0000 0.20107  0.25806  0.51604  Biso   1.000  H
  H536     1.0000 0.23109  0.36004  0.57504  Biso   1.000  H
  H537     1.0000 0.23103  0.36004  0.57504  Biso   1.000  H
  C732     1.0000 0.45302  0.04802  0.33000  Biso   1.000  C
  C733     1.0000 0.32405  0.96000  0.34900  Biso   1.000  C
  H538     1.0000 0.46008  0.00303  0.41302  Biso   1.000  H
  H539     1.0000 0.46002  0.00303  0.41302  Biso   1.000  H
  O152     1.0000 0.35708  0.90505  0.44901  Biso   1.000  O
  H540     1.0000 0.28208  0.99004  0.48099  Biso   1.000  H
  H541     1.0000 0.35204  0.94900  0.54401  Biso   1.000  H
  O153     1.0000 0.35702  0.90505  0.44901  Biso   1.000  O
  H542     1.0000 0.28202  0.99004  0.48099  Biso   1.000  H
  H543     1.0000 0.35205  0.94906  0.54401  Biso   1.000  H
  C734     1.0000 0.08608  0.04806  0.77801  Biso   1.000  C
  C735     1.0000 0.15103  0.25005  0.30103  Biso   1.000  C
  C736     1.0000 0.15105  0.31499  0.40901  Biso   1.000  C
  C737     1.0000 0.15100  0.31505  0.40901  Biso   1.000  C
  H544     1.0000 0.41703  0.35300  0.36800  Biso   1.000  H
  C738     1.0000 0.31704  0.42203  0.32103  Biso   1.000  C
  H545     1.0000 0.32406  0.28605  0.30203  Biso   1.000  H
  H546     1.0000 0.32400  0.28605  0.30203  Biso   1.000  H
  H547     1.0000 0.40303  0.06402  0.29000  Biso   1.000  H
  C739     1.0000 0.49206  0.97100  0.30103  Biso   1.000  C
  C740     1.0000 0.49201  0.97106  0.30103  Biso   1.000  C
  H548     1.0000 0.50705  0.10299  0.35602  Biso   1.000  H
  H549     1.0000 0.50706  0.10306  0.35602  Biso   1.000  H
  C741     1.0000 0.26503  0.94999  0.28303  Biso   1.000  C
  C742     1.0000 0.30107  0.90002  0.38500  Biso   1.000  C
  C743     1.0000 0.26504  0.95005  0.28303  Biso   1.000  C
  C744     1.0000 0.30100  0.90002  0.38500  Biso   1.000  C
  C745     1.0000 0.07811  0.96301  0.77902  Biso   1.000  C
  C746     1.0000 0.07811  0.96307  0.77902  Biso   1.000  C
  C747     1.0000 0.02610  0.10203  0.79004  Biso   1.000  C
  C748     1.0000 0.02611  0.10209  0.79004  Biso   1.000  C
  H550     1.0000 0.18801  0.23502  0.26599  Biso   1.000  H
  C749     1.0000 0.05902  0.22400  0.27802  Biso   1.000  C
  C750     1.0000 0.05903  0.22406  0.27802  Biso   1.000  C
  C751     1.0000 0.05905  0.28801  0.38700  Biso   1.000  C
  C752     1.0000 0.05899  0.28801  0.38700  Biso   1.000  C
  H551     1.0000 0.33702  0.47702  0.36399  Biso   1.000  H
  H552     1.0000 0.24404  0.41001  0.29802  Biso   1.000  H
  C753     1.0000 0.35803  0.44098  0.27200  Biso   1.000  C
  C754     1.0000 0.35798  0.44105  0.27200  Biso   1.000  C
  H553     1.0000 0.55404  0.96703  0.33802  Biso   1.000  H
  H554     1.0000 0.44403  0.91200  0.28900  Biso   1.000  H
  C755     1.0000 0.51203  0.98000  0.23701  Biso   1.000  C
  H555     1.0000 0.44404  0.91206  0.28900  Biso   1.000  H
  C756     1.0000 0.18601  0.88804  0.25300  Biso   1.000  C
  H556     1.0000 0.28106  0.99198  0.25300  Biso   1.000  H
  H557     1.0000 0.28100  0.99205  0.25300  Biso   1.000  H
  C757     1.0000 0.22908  0.83700  0.35402  Biso   1.000  C
  C758     1.0000 0.22902  0.83707  0.35402  Biso   1.000  C
  C759     1.0000 0.00413  0.92703  0.79305  Biso   1.000  C
  O154     1.0000 0.14311  0.91706  0.76804  Biso   1.000  O
  C760     1.0000 0.00408  0.92710  0.79305  Biso   1.000  C
  C761     1.0000 0.95110  0.06604  0.80403  Biso   1.000  C
  O155     1.0000 0.04108  0.19002  0.79205  Biso   1.000  O
  O156     1.0000 0.04109  0.19009  0.79205  Biso   1.000  O
  C762     1.0000 0.01205  0.24502  0.32003  Biso   1.000  C
  C763     1.0000 0.00901  0.17003  0.20598  Biso   1.000  C
  O157     1.0000 0.01008  0.29802  0.43302  Biso   1.000  O
  O158     1.0000 0.01001  0.29802  0.43302  Biso   1.000  O
  C764     1.0000 0.32004  0.39502  0.20403  Biso   1.000  C
  C765     1.0000 0.43504  0.50400  0.29301  Biso   1.000  C
  C766     1.0000 0.31998  0.39502  0.20403  Biso   1.000  C
  C767     1.0000 0.43498  0.50400  0.29301  Biso   1.000  C
  C768     1.0000 0.44301  0.95204  0.17500  Biso   1.000  C
  C769     1.0000 0.59800  0.01599  0.24102  Biso   1.000  C
  C770     1.0000 0.59801  0.01605  0.24102  Biso   1.000  C
  C771     1.0000 0.11903  0.88201  0.18403  Biso   1.000  C
  C772     1.0000 0.16803  0.82803  0.29100  Biso   1.000  C
  O159     1.0000 0.21405  0.76904  0.38600  Biso   1.000  O
  C773     1.0000 0.94210  0.97804  0.80604  Biso   1.000  C
  C774     1.0000 0.99110  0.83003  0.79406  Biso   1.000  C
  C775     1.0000 0.99110  0.83009  0.79406  Biso   1.000  C
  C776     1.0000 0.12408  0.85906  0.70402  Biso   1.000  C
  C777     1.0000 0.88107  0.11804  0.81601  Biso   1.000  C
  C778     1.0000 0.99009  0.21307  0.73305  Biso   1.000  C
  O160     1.0000 0.91603  0.22501  0.29702  Biso   1.000  O
  C779     1.0000 0.04799  0.18601  0.14999  Biso   1.000  C
  C780     1.0000 0.99603  0.07302  0.20699  Biso   1.000  C
  H558     1.0000 0.94604  0.19302  0.18899  Biso   1.000  H
  H559     1.0000 0.94598  0.19302  0.18899  Biso   1.000  H
  C781     1.0000 0.96206  0.36104  0.43102  Biso   1.000  C
  C782     1.0000 0.36001  0.41301  0.15801  Biso   1.000  C
  H560     1.0000 0.25899  0.34602  0.18799  Biso   1.000  H
  C783     1.0000 0.47502  0.52099  0.24699  Biso   1.000  C
  H561     1.0000 0.46501  0.53899  0.34499  Biso   1.000  H
  C784     1.0000 0.47497  0.52105  0.24699  Biso   1.000  C
  H562     1.0000 0.46501  0.53906  0.34499  Biso   1.000  H
  C785     1.0000 0.46000  0.96000  0.11700  Biso   1.000  C
  H563     1.0000 0.37599  0.92500  0.17200  Biso   1.000  H
  C786     1.0000 0.61502  0.02300  0.18302  Biso   1.000  C
  H564     1.0000 0.65203  0.03702  0.28900  Biso   1.000  H
  C787     1.0000 0.04900  0.93402  0.19601  Biso   1.000  C
  H565     1.0000 0.08501  0.81698  0.15400  Biso   1.000  H
  C788     1.0000 0.16804  0.90603  0.13700  Biso   1.000  C
  H566     1.0000 0.08502  0.81704  0.15400  Biso   1.000  H
  O161     1.0000 0.09405  0.76505  0.26303  Biso   1.000  O
  C789     1.0000 0.16608  0.78201  0.42801  Biso   1.000  C
  C790     1.0000 0.16602  0.78201  0.42801  Biso   1.000  C
  H567     1.0000 0.88711  0.95003  0.81902  Biso   1.000  H
  C791     1.0000 0.94108  0.77606  0.72202  Biso   1.000  C
  C792     1.0000 0.95212  0.81405  0.85005  Biso   1.000  C
  H568     1.0000 0.05413  0.80704  0.81105  Biso   1.000  H
  O162     1.0000 0.08407  0.77505  0.70302  Biso   1.000  O
  H569     1.0000 0.07811  0.88303  0.66703  Biso   1.000  H
  H570     1.0000 0.18608  0.85503  0.69405  Biso   1.000  H
  H571     1.0000 0.18609  0.85509  0.69405  Biso   1.000  H
  C793     1.0000 0.81409  0.11201  0.74703  Biso   1.000  C
  C794     1.0000 0.81410  0.11208  0.74703  Biso   1.000  C
  H572     1.0000 0.91509  0.18308  0.84604  Biso   1.000  H
  C795     1.0000 0.83213  0.09402  0.86303  Biso   1.000  C
  C796     1.0000 0.83207  0.09408  0.86303  Biso   1.000  C
  O163     1.0000 0.90605  0.23500  0.73701  Biso   1.000  O
  O164     1.0000 0.90606  0.23507  0.73701  Biso   1.000  O
  H573     1.0000 0.97712  0.15906  0.69004  Biso   1.000  H
  H574     1.0000 0.97705  0.15906  0.69004  Biso   1.000  H
  H575     1.0000 0.02912  0.26906  0.72803  Biso   1.000  H
  H576     1.0000 0.02906  0.26906  0.72803  Biso   1.000  H
  C797     1.0000 0.87603  0.14100  0.29602  Biso   1.000  C
  C798     1.0000 0.87603  0.14106  0.29602  Biso   1.000  C
  C799     1.0000 0.04602  0.27900  0.14001  Biso   1.000  C
  H577     1.0000 0.01004  0.13901  0.10302  Biso   1.000  H
  H578     1.0000 0.11705  0.17704  0.16503  Biso   1.000  H
  H579     1.0000 0.00998  0.13901  0.10302  Biso   1.000  H
  H580     1.0000 0.11699  0.17704  0.16503  Biso   1.000  H
  C800     1.0000 0.05800  0.02201  0.19400  Biso   1.000  C
  C801     1.0000 0.92206  0.03705  0.22102  Biso   1.000  C
  C802     1.0000 0.92200  0.03705  0.22102  Biso   1.000  C
  C803     1.0000 0.90808  0.36304  0.47603  Biso   1.000  C
  O165     1.0000 0.96102  0.41203  0.39602  Biso   1.000  O
  C804     1.0000 0.90801  0.36304  0.47603  Biso   1.000  C
  H581     1.0000 0.32998  0.37802  0.10602  Biso   1.000  H
  C805     1.0000 0.43700  0.47598  0.18002  Biso   1.000  C
  C806     1.0000 0.43700  0.47604  0.18002  Biso   1.000  C
  H582     1.0000 0.53600  0.57000  0.26403  Biso   1.000  H
  H583     1.0000 0.53601  0.57006  0.26403  Biso   1.000  H
  C807     1.0000 0.54599  0.99504  0.12101  Biso   1.000  C
  H584     1.0000 0.40699  0.93801  0.06898  Biso   1.000  H
  H585     1.0000 0.68202  0.05105  0.18603  Biso   1.000  H
  C808     1.0000 0.97400  0.89802  0.20999  Biso   1.000  C
  H586     1.0000 0.19904  0.97398  0.15500  Biso   1.000  H
  H587     1.0000 0.21900  0.86701  0.13600  Biso   1.000  H
  C809     1.0000 0.09804  0.88999  0.06702  Biso   1.000  C
  H588     1.0000 0.19898  0.97404  0.15500  Biso   1.000  H
  C810     1.0000 0.09799  0.89005  0.06702  Biso   1.000  C
  C811     1.0000 0.01001  0.78699  0.26699  Biso   1.000  C
  C812     1.0000 0.01002  0.78705  0.26699  Biso   1.000  C
  O166     1.0000 0.14106  0.85002  0.44199  Biso   1.000  O
  C813     1.0000 0.15707  0.70403  0.45403  Biso   1.000  C
  C814     1.0000 0.98812  0.75504  0.68001  Biso   1.000  C
  C815     1.0000 0.84907  0.75001  0.69901  Biso   1.000  C
  C816     1.0000 0.98805  0.75504  0.68001  Biso   1.000  C
  C817     1.0000 0.84908  0.75007  0.69901  Biso   1.000  C
  H589     1.0000 0.99012  0.86105  0.89702  Biso   1.000  H
  H590     1.0000 0.88312  0.82302  0.83501  Biso   1.000  H
  C818     1.0000 0.95414  0.72105  0.86003  Biso   1.000  C
  H591     1.0000 0.88312  0.82308  0.83501  Biso   1.000  H
  C819     1.0000 0.95408  0.72105  0.86003  Biso   1.000  C
  C820     1.0000 0.83207  0.17203  0.70904  Biso   1.000  C
  C821     1.0000 0.73507  0.05006  0.71701  Biso   1.000  C
  H592     1.0000 0.80113  0.02608  0.84504  Biso   1.000  H
  H593     1.0000 0.78110  0.13305  0.86404  Biso   1.000  H
  C822     1.0000 0.90212  0.11007  0.93301  Biso   1.000  C
  H594     1.0000 0.92206  0.11702  0.33301  Biso   1.000  H
  H595     1.0000 0.81402  0.14503  0.30599  Biso   1.000  H
  O167     1.0000 0.85699  0.08299  0.23200  Biso   1.000  O
  H596     1.0000 0.92200  0.11702  0.33301  Biso   1.000  H
  O168     1.0000 0.85700  0.08306  0.23200  Biso   1.000  O
  C823     1.0000 0.06498  0.29203  0.08001  Biso   1.000  C
  H597     1.0000 0.97997  0.29298  0.13600  Biso   1.000  H
  H598     1.0000 0.97998  0.29304  0.13600  Biso   1.000  H
  H599     1.0000 0.09605  0.32401  0.18302  Biso   1.000  H
  H600     1.0000 0.09599  0.32401  0.18302  Biso   1.000  H
  H601     1.0000 0.11305  0.05003  0.18102  Biso   1.000  H
  H602     1.0000 0.11299  0.05003  0.18102  Biso   1.000  H
  C824     1.0000 0.91402  0.95199  0.22202  Biso   1.000  C
  C825     1.0000 0.91403  0.95206  0.22202  Biso   1.000  C
  C826     1.0000 0.87209  0.43606  0.49704  Biso   1.000  C
  C827     1.0000 0.89306  0.29203  0.50200  Biso   1.000  C
  C828     1.0000 0.87202  0.43606  0.49704  Biso   1.000  C
  H603     1.0000 0.46801  0.49003  0.14402  Biso   1.000  H
  H604     1.0000 0.56004  0.00103  0.07600  Biso   1.000  H
  H605     1.0000 0.55997  0.00103  0.07600  Biso   1.000  H
  O169     1.0000 0.95902  0.81003  0.20799  Biso   1.000  O
  H606     1.0000 0.06899  0.82198  0.04903  Biso   1.000  H
  H607     1.0000 0.04500  0.92700  0.06898  Biso   1.000  H
  C829     1.0000 0.14400  0.91700  0.01800  Biso   1.000  C
  H608     1.0000 0.06900  0.82205  0.04903  Biso   1.000  H
  H609     1.0000 0.97105  0.73100  0.27200  Biso   1.000  H
  H610     1.0000 0.02305  0.84099  0.31000  Biso   1.000  H
  H611     1.0000 0.02305  0.84106  0.31000  Biso   1.000  H
  C830     1.0000 0.18707  0.63003  0.43503  Biso   1.000  C
  C831     1.0000 0.10710  0.70803  0.49804  Biso   1.000  C
  C832     1.0000 0.10704  0.70803  0.49804  Biso   1.000  C
  C833     1.0000 0.94111  0.71204  0.61304  Biso   1.000  C
  C834     1.0000 0.94105  0.71204  0.61304  Biso   1.000  C
  C835     1.0000 0.80210  0.70605  0.63504  Biso   1.000  C
  H612     1.0000 0.81209  0.76503  0.73405  Biso   1.000  H
  H613     1.0000 0.81210  0.76509  0.73405  Biso   1.000  H
  H614     1.0000 0.90411  0.67605  0.81701  Biso   1.000  H
  C836     1.0000 0.93512  0.70803  0.92003  Biso   1.000  C
  C837     1.0000 0.93513  0.70809  0.92003  Biso   1.000  C
  H615     1.0000 0.02013  0.70708  0.86404  Biso   1.000  H
  C838     1.0000 0.77109  0.16305  0.64602  Biso   1.000  C
  C839     1.0000 0.67611  0.04005  0.65104  Biso   1.000  C
  C840     1.0000 0.67605  0.04005  0.65104  Biso   1.000  C
  H616     1.0000 0.71911  0.00807  0.74703  Biso   1.000  H
  H617     1.0000 0.93114  0.17809  0.95106  Biso   1.000  H
  H618     1.0000 0.95510  0.07306  0.93106  Biso   1.000  H
  C841     1.0000 0.85610  0.08305  0.98204  Biso   1.000  C
  C842     1.0000 0.01501  0.34298  0.04201  Biso   1.000  C
  C843     1.0000 0.13102  0.25501  0.06001  Biso   1.000  C
  C844     1.0000 0.01501  0.34304  0.04201  Biso   1.000  C
  C845     1.0000 0.13096  0.25501  0.06001  Biso   1.000  C
  O170     1.0000 0.84706  0.91404  0.24403  Biso   1.000  O
  C846     1.0000 0.82504  0.44105  0.54100  Biso   1.000  C
  H619     1.0000 0.88205  0.49103  0.47703  Biso   1.000  H
  C847     1.0000 0.84303  0.29603  0.54601  Biso   1.000  C
  H620     1.0000 0.91907  0.23300  0.48701  Biso   1.000  H
  H621     1.0000 0.91901  0.23306  0.48701  Biso   1.000  H
  C848     1.0000 0.19406  0.86304  0.99103  Biso   1.000  C
  C849     1.0000 0.19412  0.86304  0.99103  Biso   1.000  C
  C850     1.0000 0.13401  0.99600  0.00201  Biso   1.000  C
  H622     1.0000 0.22508  0.62806  0.40104  Biso   1.000  H
  C851     1.0000 0.17507  0.55901  0.45904  Biso   1.000  C
  C852     1.0000 0.17507  0.55907  0.45904  Biso   1.000  C
  C853     1.0000 0.09209  0.63702  0.52401  Biso   1.000  C
  H623     1.0000 0.08110  0.76706  0.51303  Biso   1.000  H
  O171     1.0000 0.99009  0.70204  0.56702  Biso   1.000  O
  C854     1.0000 0.84911  0.68506  0.59103  Biso   1.000  C
  C855     1.0000 0.84905  0.68506  0.59103  Biso   1.000  C
  C856     1.0000 0.70009  0.67902  0.60502  Biso   1.000  C
  C857     1.0000 0.98516  0.65707  0.95803  Biso   1.000  C
  C858     1.0000 0.86914  0.74504  0.94003  Biso   1.000  C
  C859     1.0000 0.98510  0.65707  0.95803  Biso   1.000  C
  O172     1.0000 0.78606  0.23102  0.61404  Biso   1.000  O
  O173     1.0000 0.78606  0.23108  0.61404  Biso   1.000  O
  C860     1.0000 0.69910  0.10003  0.61504  Biso   1.000  C
  C861     1.0000 0.59111  0.97205  0.62000  Biso   1.000  C
  C862     1.0000 0.59104  0.97205  0.62000  Biso   1.000  C
  C863     1.0000 0.86615  0.00405  0.99803  Biso   1.000  C
  C864     1.0000 0.86609  0.00405  0.99803  Biso   1.000  C
  C865     1.0000 0.80598  0.13696  0.00901  Biso   1.000  C
  C866     1.0000 0.80605  0.13702  0.00901  Biso   1.000  C
  H624     1.0000 0.96298  0.37200  0.05700  Biso   1.000  H
  C867     1.0000 0.03117  0.35607  0.98506  Biso   1.000  C
  C868     1.0000 0.03111  0.35607  0.98506  Biso   1.000  C
  C869     1.0000 0.14702  0.26902  0.00301  Biso   1.000  C
  H625     1.0000 0.16901  0.21601  0.08898  Biso   1.000  H
  C870     1.0000 0.14695  0.26902  0.00301  Biso   1.000  C
  H626     1.0000 0.16895  0.21601  0.08898  Biso   1.000  H
  C871     1.0000 0.77502  0.86499  0.19601  Biso   1.000  C
  C872     1.0000 0.77502  0.86506  0.19601  Biso   1.000  C
  C873     1.0000 0.81303  0.37003  0.56501  Biso   1.000  C
  H627     1.0000 0.80008  0.49901  0.55504  Biso   1.000  H
  H628     1.0000 0.80003  0.49907  0.55504  Biso   1.000  H
  C874     1.0000 0.83408  0.21805  0.57203  Biso   1.000  C
  C875     1.0000 0.23208  0.88805  0.94606  Biso   1.000  C
  C876     1.0000 0.23214  0.88805  0.94606  Biso   1.000  C
  H629     1.0000 0.20199  0.80199  0.00401  Biso   1.000  H
  H630     1.0000 0.20200  0.80205  0.00401  Biso   1.000  H
  H631     1.0000 0.09601  0.03800  0.02301  Biso   1.000  H
  C877     1.0000 0.17317  0.02107  0.95704  Biso   1.000  C
  C878     1.0000 0.17311  0.02107  0.95704  Biso   1.000  C
  H632     1.0000 0.20008  0.50105  0.44500  Biso   1.000  H
  C879     1.0000 0.12808  0.56400  0.50300  Biso   1.000  C
  C880     1.0000 0.12809  0.56406  0.50300  Biso   1.000  C
  C881     1.0000 0.03811  0.63902  0.56902  Biso   1.000  C
  C882     1.0000 0.03805  0.63902  0.56902  Biso   1.000  C
  O174     1.0000 0.80906  0.63502  0.52501  Biso   1.000  O
  C883     1.0000 0.66308  0.75203  0.57404  Biso   1.000  C
  H633     1.0000 0.68207  0.61804  0.56702  Biso   1.000  H
  C884     1.0000 0.65613  0.65907  0.65505  Biso   1.000  C
  C885     1.0000 0.65607  0.65907  0.65505  Biso   1.000  C
  C886     1.0000 0.96893  0.64399  0.01498  Biso   1.000  C
  H634     1.0000 0.03713  0.62806  0.94304  Biso   1.000  H
  C887     1.0000 0.85315  0.73103  0.99703  Biso   1.000  C
  H635     1.0000 0.83115  0.78405  0.91106  Biso   1.000  H
  C888     1.0000 0.85316  0.73109  0.99703  Biso   1.000  C
  O175     1.0000 0.64308  0.09501  0.55103  Biso   1.000  O
  O176     1.0000 0.64309  0.09507  0.55103  Biso   1.000  O
  C889     1.0000 0.61408  0.89202  0.57900  Biso   1.000  C
  H636     1.0000 0.54008  0.99702  0.58702  Biso   1.000  H
  C890     1.0000 0.54708  0.95204  0.67003  Biso   1.000  C
  H637     1.0000 0.90416  0.96205  0.97703  Biso   1.000  H
  H638     1.0000 0.90410  0.96205  0.97703  Biso   1.000  H
  C891     1.0000 0.82693  0.97898  0.04300  Biso   1.000  C
  H639     1.0000 0.79811  0.19807  0.99603  Biso   1.000  H
  C892     1.0000 0.76796  0.11195  0.05398  Biso   1.000  C
  C893     1.0000 0.76803  0.11201  0.05398  Biso   1.000  C
  H640     1.0000 0.99215  0.39505  0.95604  Biso   1.000  H
  H641     1.0000 0.99209  0.39512  0.95604  Biso   1.000  H
  C894     1.0000 0.09715  0.31905  0.96506  Biso   1.000  C
  C895     1.0000 0.09716  0.31911  0.96506  Biso   1.000  C
  H642     1.0000 0.19813  0.24009  0.98807  Biso   1.000  H
  C896     1.0000 0.70503  0.83203  0.22403  Biso   1.000  C
  O177     1.0000 0.76205  0.85299  0.13700  Biso   1.000  O
  O178     1.0000 0.76199  0.85299  0.13700  Biso   1.000  O
  H643     1.0000 0.77509  0.37206  0.59900  Biso   1.000  H
  H644     1.0000 0.77503  0.37206  0.59900  Biso   1.000  H
  O179     1.0000 0.85911  0.15004  0.55804  Biso   1.000  O
  O180     1.0000 0.85905  0.15004  0.55804  Biso   1.000  O
  C897     1.0000 0.22210  0.96703  0.92907  Biso   1.000  C
  H645     1.0000 0.27010  0.84603  0.92405  Biso   1.000  H
  H646     1.0000 0.27016  0.84603  0.92405  Biso   1.000  H
  H647     1.0000 0.16517  0.08206  0.94406  Biso   1.000  H
  H648     1.0000 0.16511  0.08212  0.94406  Biso   1.000  H
  H649     1.0000 0.11805  0.50903  0.52300  Biso   1.000  H
  O181     1.0000 0.03909  0.58802  0.60401  Biso   1.000  O
  C898     1.0000 0.76607  0.67602  0.47202  Biso   1.000  C
  C899     1.0000 0.65511  0.74503  0.50801  Biso   1.000  C
  C900     1.0000 0.65504  0.74503  0.50801  Biso   1.000  C
  C901     1.0000 0.63911  0.82302  0.60802  Biso   1.000  C
  C902     1.0000 0.63905  0.82302  0.60802  Biso   1.000  C
  H650     1.0000 0.58313  0.64705  0.63204  Biso   1.000  H
  H651     1.0000 0.67611  0.71400  0.69801  Biso   1.000  H
  C903     1.0000 0.68307  0.57803  0.67901  Biso   1.000  C
  H652     1.0000 0.58307  0.64705  0.63204  Biso   1.000  H
  H653     1.0000 0.67605  0.71407  0.69801  Biso   1.000  H
  C904     1.0000 0.90295  0.68101  0.03498  Biso   1.000  C
  C905     1.0000 0.90289  0.68101  0.03498  Biso   1.000  C
  H654     1.0000 0.00795  0.60500  0.04400  Biso   1.000  H
  H655     1.0000 0.80191  0.75997  0.01197  Biso   1.000  H
  C906     1.0000 0.65205  0.02706  0.50004  Biso   1.000  C
  C907     1.0000 0.61007  0.88506  0.51503  Biso   1.000  C
  H656     1.0000 0.59707  0.93603  0.71004  Biso   1.000  H
  H657     1.0000 0.49312  0.89706  0.64402  Biso   1.000  H
  H658     1.0000 0.49305  0.89706  0.64402  Biso   1.000  H
  C908     1.0000 0.50810  0.02906  0.69901  Biso   1.000  C
  C909     1.0000 0.50804  0.02906  0.69901  Biso   1.000  C
  H659     1.0000 0.83494  0.91799  0.05598  Biso   1.000  H
  C910     1.0000 0.77799  0.03296  0.07097  Biso   1.000  C
  H660     1.0000 0.73000  0.15396  0.07598  Biso   1.000  H
  H661     1.0000 0.11016  0.32908  0.92105  Biso   1.000  H
  H662     1.0000 0.11010  0.32908  0.92105  Biso   1.000  H
  C911     1.0000 0.62302  0.78203  0.17901  Biso   1.000  C
  C912     1.0000 0.72303  0.85104  0.29401  Biso   1.000  C
  H663     1.0000 0.25208  0.98600  0.89503  Biso   1.000  H
  O182     1.0000 0.67408  0.67400  0.46701  Biso   1.000  O
  O183     1.0000 0.67409  0.67406  0.46701  Biso   1.000  O
  H664     1.0000 0.79909  0.74199  0.48400  Biso   1.000  H
  H665     1.0000 0.76908  0.64002  0.42500  Biso   1.000  H
  H666     1.0000 0.79904  0.74206  0.48400  Biso   1.000  H
  H667     1.0000 0.76901  0.64002  0.42500  Biso   1.000  H
  C913     1.0000 0.62710  0.81106  0.47703  Biso   1.000  C
  C914     1.0000 0.62704  0.81106  0.47703  Biso   1.000  C
  H668     1.0000 0.64006  0.82502  0.65800  Biso   1.000  H
  H669     1.0000 0.66309  0.52303  0.63605  Biso   1.000  H
  H670     1.0000 0.75613  0.59005  0.70202  Biso   1.000  H
  C915     1.0000 0.64213  0.55907  0.72803  Biso   1.000  C
  H671     1.0000 0.75607  0.59005  0.70202  Biso   1.000  H
  H672     1.0000 0.88994  0.67097  0.07899  Biso   1.000  H
  O184     1.0000 0.58405  0.95200  0.48300  Biso   1.000  O
  O185     1.0000 0.58406  0.95207  0.48300  Biso   1.000  O
  H673     1.0000 0.71808  0.01001  0.51904  Biso   1.000  H
  H674     1.0000 0.64806  0.05106  0.45603  Biso   1.000  H
  H675     1.0000 0.71809  0.01008  0.51904  Biso   1.000  H
  H676     1.0000 0.44607  0.03302  0.66201  Biso   1.000  H
  H677     1.0000 0.55607  0.08806  0.71104  Biso   1.000  H
  C916     1.0000 0.48813  0.02005  0.76302  Biso   1.000  C
  C917     1.0000 0.48807  0.02005  0.76302  Biso   1.000  C
  H678     1.0000 0.74802  0.01399  0.10501  Biso   1.000  H
  H679     1.0000 0.74808  0.01399  0.10501  Biso   1.000  H
  C918     1.0000 0.56306  0.74800  0.20303  Biso   1.000  C
  H680     1.0000 0.61000  0.77099  0.12603  Biso   1.000  H
  C919     1.0000 0.56306  0.74806  0.20303  Biso   1.000  C
  H681     1.0000 0.61001  0.77106  0.12603  Biso   1.000  H
  C920     1.0000 0.65702  0.81702  0.31401  Biso   1.000  C
  H682     1.0000 0.78406  0.89303  0.32900  Biso   1.000  H
  H683     1.0000 0.78400  0.89303  0.32900  Biso   1.000  H
  O186     1.0000 0.61207  0.80203  0.40600  Biso   1.000  O
  C921     1.0000 0.68012  0.60504  0.79601  Biso   1.000  C
  C922     1.0000 0.56512  0.49605  0.70703  Biso   1.000  C
  C923     1.0000 0.40210  0.98407  0.75901  Biso   1.000  C
  C924     1.0000 0.55710  0.04808  0.82504  Biso   1.000  C
  C925     1.0000 0.57806  0.76499  0.27301  Biso   1.000  C
  H684     1.0000 0.50103  0.70799  0.16698  Biso   1.000  H
  C926     1.0000 0.57801  0.76505  0.27301  Biso   1.000  C
  H685     1.0000 0.50104  0.70805  0.16698  Biso   1.000  H
  C927     1.0000 0.68009  0.83604  0.39001  Biso   1.000  C
  C928     1.0000 0.68002  0.83604  0.39001  Biso   1.000  C
  C929     1.0000 0.64016  0.58704  0.84203  Biso   1.000  C
  H686     1.0000 0.74112  0.65403  0.81205  Biso   1.000  H
  C930     1.0000 0.64009  0.58704  0.84203  Biso   1.000  C
  H687     1.0000 0.74112  0.65409  0.81205  Biso   1.000  H
  C931     1.0000 0.52514  0.47907  0.75305  Biso   1.000  C
  H688     1.0000 0.53510  0.46106  0.65505  Biso   1.000  H
  C932     1.0000 0.38508  0.97705  0.81701  Biso   1.000  C
  H689     1.0000 0.34808  0.96304  0.71104  Biso   1.000  H
  C933     1.0000 0.54010  0.04006  0.88304  Biso   1.000  C
  H690     1.0000 0.62411  0.07505  0.82804  Biso   1.000  H
  H691     1.0000 0.52906  0.73901  0.29201  Biso   1.000  H
  O187     1.0000 0.74705  0.88000  0.43001  Biso   1.000  O
  O188     1.0000 0.74705  0.88006  0.43001  Biso   1.000  O
  C934     1.0000 0.56311  0.52407  0.82002  Biso   1.000  C
  H692     1.0000 0.67012  0.62204  0.89401  Biso   1.000  H
  H693     1.0000 0.46410  0.43006  0.73600  Biso   1.000  H
  H694     1.0000 0.31810  0.94903  0.81406  Biso   1.000  H
  H695     1.0000 0.31811  0.94909  0.81406  Biso   1.000  H
  C935     1.0000 0.45411  0.00502  0.87903  Biso   1.000  C
  C936     1.0000 0.45412  0.00508  0.87903  Biso   1.000  C
  H696     1.0000 0.59311  0.06205  0.93106  Biso   1.000  H
  H697     1.0000 0.53209  0.51003  0.85602  Biso   1.000  H
  H698     1.0000 0.53210  0.51009  0.85602  Biso   1.000  H
  H699     1.0000 0.44013  0.99903  0.92404  Biso   1.000  H
  H700     1.0000 0.44014  0.99909  0.92404  Biso   1.000  H
