data_image0
_cell_length_a       32.096
_cell_length_b       32.096
_cell_length_c       12.491
_cell_angle_alpha    90
_cell_angle_beta     90
_cell_angle_gamma    120

_symmetry_space_group_name_H-M    "P 1"
_symmetry_int_tables_number       1

loop_
  _symmetry_equiv_pos_as_xyz
  'x, y, z'

loop_
  _atom_site_label
  _atom_site_occupancy
  _atom_site_fract_x
  _atom_site_fract_y
  _atom_site_fract_z
  _atom_site_thermal_displace_type
  _atom_site_B_iso_or_equiv
  _atom_site_type_symbol
  O1       1.0000 0.61807  0.63725  0.52910  Biso   1.000  O
  C1       1.0000 0.59080  0.63991  0.59299  Biso   1.000  C
  N1       1.0000 0.55774  0.65362  0.56833  Biso   1.000  N
  N2       1.0000 0.58746  0.63006  0.69898  Biso   1.000  N
  C2       1.0000 0.56285  0.68103  0.47322  Biso   1.000  C
  C3       1.0000 0.53167  0.65488  0.66280  Biso   1.000  C
  C4       1.0000 0.55152  0.63700  0.75214  Biso   1.000  C
  C5       1.0000 0.62178  0.62149  0.75382  Biso   1.000  C
  N3       1.0000 0.52741  0.65409  0.39252  Biso   1.000  N
  H1       1.0000 0.56040  0.70928  0.49267  Biso   1.000  H
  H2       1.0000 0.59490  0.69247  0.44312  Biso   1.000  H
  N4       1.0000 0.48170  0.62013  0.66152  Biso   1.000  N
  H3       1.0000 0.53748  0.68769  0.67737  Biso   1.000  H
  N5       1.0000 0.50997  0.59235  0.78633  Biso   1.000  N
  H4       1.0000 0.56538  0.66049  0.81138  Biso   1.000  H
  N6       1.0000 0.60513  0.57174  0.77568  Biso   1.000  N
  H5       1.0000 0.65099  0.63430  0.71027  Biso   1.000  H
  H6       1.0000 0.63038  0.63919  0.82163  Biso   1.000  H
  C6       1.0000 0.47809  0.64200  0.39813  Biso   1.000  C
  C7       1.0000 0.53665  0.63549  0.30438  Biso   1.000  C
  C8       1.0000 0.44801  0.62290  0.59002  Biso   1.000  C
  C9       1.0000 0.46855  0.58404  0.73453  Biso   1.000  C
  C10      1.0000 0.50969  0.56649  0.88087  Biso   1.000  C
  C11      1.0000 0.62499  0.54821  0.72692  Biso   1.000  C
  C12      1.0000 0.57730  0.54648  0.86911  Biso   1.000  C
  C13      1.0000 0.45570  0.61279  0.29429  Biso   1.000  C
  N7       1.0000 0.44934  0.60811  0.48147  Biso   1.000  N
  H7       1.0000 0.47519  0.67128  0.40037  Biso   1.000  H
  N8       1.0000 0.49578  0.61002  0.24818  Biso   1.000  N
  O2       1.0000 0.57660  0.64218  0.27924  Biso   1.000  O
  H8       1.0000 0.45439  0.65610  0.58890  Biso   1.000  H
  H9       1.0000 0.41540  0.60261  0.61837  Biso   1.000  H
  O3       1.0000 0.42831  0.55116  0.75358  Biso   1.000  O
  N9       1.0000 0.52728  0.53332  0.86510  Biso   1.000  N
  H10      1.0000 0.47661  0.54850  0.90809  Biso   1.000  H
  H11      1.0000 0.52941  0.58991  0.93587  Biso   1.000  H
  N10      1.0000 0.60741  0.50421  0.77552  Biso   1.000  N
  O4       1.0000 0.65495  0.56357  0.65479  Biso   1.000  O
  C14      1.0000 0.57601  0.49860  0.86462  Biso   1.000  C
  H12      1.0000 0.59278  0.56418  0.93571  Biso   1.000  H
  N11      1.0000 0.41677  0.56720  0.33240  Biso   1.000  N
  H13      1.0000 0.44399  0.62919  0.24594  Biso   1.000  H
  C15      1.0000 0.41219  0.56659  0.44160  Biso   1.000  C
  C16      1.0000 0.49417  0.58768  0.14651  Biso   1.000  C
  C17      1.0000 0.49796  0.48507  0.85694  Biso   1.000  C
  C18      1.0000 0.61897  0.46888  0.73757  Biso   1.000  C
  N12      1.0000 0.52541  0.46352  0.84917  Biso   1.000  N
  H14      1.0000 0.58809  0.49241  0.93211  Biso   1.000  H
  C19      1.0000 0.38098  0.53108  0.26243  Biso   1.000  C
  O5       1.0000 0.38053  0.53375  0.49380  Biso   1.000  O
  N13      1.0000 0.47459  0.53648  0.15083  Biso   1.000  N
  H15      1.0000 0.52701  0.60250  0.11776  Biso   1.000  H
  H16      1.0000 0.47498  0.59458  0.09631  Biso   1.000  H
  O6       1.0000 0.45404  0.46341  0.85950  Biso   1.000  O
  N14      1.0000 0.58324  0.43280  0.66760  Biso   1.000  N
  H17      1.0000 0.62328  0.45269  0.79962  Biso   1.000  H
  H18      1.0000 0.64969  0.48550  0.69930  Biso   1.000  H
  C20      1.0000 0.50578  0.41229  0.85349  Biso   1.000  C
  N15      1.0000 0.39259  0.49579  0.22448  Biso   1.000  N
  H19      1.0000 0.37669  0.54731  0.20038  Biso   1.000  H
  H20      1.0000 0.35028  0.51450  0.30070  Biso   1.000  H
  C21      1.0000 0.42399  0.50140  0.13538  Biso   1.000  C
  C22      1.0000 0.50201  0.51493  0.14306  Biso   1.000  C
  C23      1.0000 0.54429  0.38718  0.70571  Biso   1.000  C
  C24      1.0000 0.58781  0.43341  0.55840  Biso   1.000  C
  N16      1.0000 0.50422  0.38998  0.75182  Biso   1.000  N
  H21      1.0000 0.47299  0.39750  0.88224  Biso   1.000  H
  H22      1.0000 0.52497  0.40538  0.90369  Biso   1.000  H
  C25      1.0000 0.37498  0.45179  0.27308  Biso   1.000  C
  C26      1.0000 0.42269  0.45348  0.13089  Biso   1.000  C
  H23      1.0000 0.41188  0.50759  0.06789  Biso   1.000  H
  N17      1.0000 0.47272  0.46669  0.13490  Biso   1.000  N
  O7       1.0000 0.54596  0.53659  0.14050  Biso   1.000  O
  C27      1.0000 0.52191  0.35800  0.60187  Biso   1.000  C
  H24      1.0000 0.55601  0.37081  0.75414  Biso   1.000  H
  N18      1.0000 0.55066  0.39189  0.51853  Biso   1.000  N
  O8       1.0000 0.61944  0.46625  0.50620  Biso   1.000  O
  C28      1.0000 0.46335  0.36451  0.69562  Biso   1.000  C
  N19      1.0000 0.39487  0.42826  0.22432  Biso   1.000  N
  O9       1.0000 0.34505  0.43643  0.34521  Biso   1.000  O
  H25      1.0000 0.40720  0.43578  0.06429  Biso   1.000  H
  C29      1.0000 0.49029  0.43348  0.11913  Biso   1.000  C
  N20      1.0000 0.47259  0.34591  0.60748  Biso   1.000  N
  H26      1.0000 0.52479  0.32868  0.59963  Biso   1.000  H
  C30      1.0000 0.55199  0.37711  0.40998  Biso   1.000  C
  O10      1.0000 0.42340  0.35782  0.72084  Biso   1.000  O
  C31      1.0000 0.37819  0.37851  0.24618  Biso   1.000  C
  N21      1.0000 0.49001  0.40761  0.21367  Biso   1.000  N
  H27      1.0000 0.52339  0.45150  0.09191  Biso   1.000  H
  H28      1.0000 0.47059  0.41010  0.06413  Biso   1.000  H
  C32      1.0000 0.43713  0.31893  0.52678  Biso   1.000  C
  N22      1.0000 0.51827  0.37988  0.33848  Biso   1.000  N
  H29      1.0000 0.54561  0.34390  0.41110  Biso   1.000  H
  H30      1.0000 0.58460  0.39740  0.38163  Biso   1.000  H
  N23      1.0000 0.41252  0.36991  0.30102  Biso   1.000  N
  H31      1.0000 0.34901  0.36570  0.28973  Biso   1.000  H
  H32      1.0000 0.36959  0.36081  0.17837  Biso   1.000  H
  C33      1.0000 0.44846  0.36297  0.24794  Biso   1.000  C
  C34      1.0000 0.53143  0.41592  0.26547  Biso   1.000  C
  N24      1.0000 0.44224  0.34635  0.43167  Biso   1.000  N
  H33      1.0000 0.43959  0.29069  0.50733  Biso   1.000  H
  H34      1.0000 0.40509  0.30749  0.55688  Biso   1.000  H
  C35      1.0000 0.46830  0.34512  0.33720  Biso   1.000  C
  C36      1.0000 0.40920  0.36009  0.40701  Biso   1.000  C
  H35      1.0000 0.43462  0.33951  0.18862  Biso   1.000  H
  O11      1.0000 0.57169  0.44884  0.24642  Biso   1.000  O
  H36      1.0000 0.46249  0.31231  0.32263  Biso   1.000  H
  O12      1.0000 0.38193  0.36275  0.47090  Biso   1.000  O
  C37      1.0000 0.69630  0.58116  0.41878  Biso   1.000  C
  C38      1.0000 0.67845  0.54346  0.32944  Biso   1.000  C
  N25      1.0000 0.70326  0.62405  0.36570  Biso   1.000  N
  N26      1.0000 0.74094  0.58426  0.45297  Biso   1.000  N
  H37      1.0000 0.67284  0.57156  0.47810  Biso   1.000  H
  N27      1.0000 0.67970  0.57077  0.23497  Biso   1.000  N
  N28      1.0000 0.71318  0.52824  0.32816  Biso   1.000  N
  H38      1.0000 0.64564  0.51648  0.34409  Biso   1.000  H
  C39      1.0000 0.69341  0.61757  0.25971  Biso   1.000  C
  C40      1.0000 0.71182  0.66697  0.42046  Biso   1.000  C
  C41      1.0000 0.74925  0.55116  0.40117  Biso   1.000  C
  C42      1.0000 0.76683  0.60987  0.54759  Biso   1.000  C
  C43      1.0000 0.65228  0.54846  0.13986  Biso   1.000  C
  C44      1.0000 0.71043  0.49176  0.25666  Biso   1.000  C
  O13      1.0000 0.69607  0.64750  0.19574  Biso   1.000  O
  N29      1.0000 0.76158  0.70007  0.44240  Biso   1.000  N
  H39      1.0000 0.69902  0.68337  0.37699  Biso   1.000  H
  H40      1.0000 0.69412  0.65787  0.48827  Biso   1.000  H
  O14      1.0000 0.78216  0.54382  0.42030  Biso   1.000  O
  N30      1.0000 0.80000  0.66064  0.53174  Biso   1.000  N
  H41      1.0000 0.78483  0.59476  0.57473  Biso   1.000  H
  H42      1.0000 0.74342  0.60617  0.60259  Biso   1.000  H
  N31      1.0000 0.67923  0.53997  0.05916  Biso   1.000  N
  H43      1.0000 0.62404  0.51777  0.15939  Biso   1.000  H
  H44      1.0000 0.64084  0.56908  0.10976  Biso   1.000  H
  N32      1.0000 0.72521  0.50788  0.14819  Biso   1.000  N
  H45      1.0000 0.67724  0.46496  0.25554  Biso   1.000  H
  H46      1.0000 0.73072  0.47946  0.28509  Biso   1.000  H
  C45      1.0000 0.78511  0.74345  0.39356  Biso   1.000  C
  C46      1.0000 0.78683  0.69748  0.53575  Biso   1.000  C
  C47      1.0000 0.84825  0.67956  0.52358  Biso   1.000  C
  C48      1.0000 0.69132  0.50277  0.06477  Biso   1.000  C
  C49      1.0000 0.69782  0.56782  0.97110  Biso   1.000  C
  C50      1.0000 0.76673  0.51227  0.10824  Biso   1.000  C
  O15      1.0000 0.76975  0.75802  0.32143  Biso   1.000  O
  N33      1.0000 0.82913  0.76986  0.44216  Biso   1.000  N
  H47      1.0000 0.76911  0.69525  0.60235  Biso   1.000  H
  C51      1.0000 0.83474  0.74407  0.53126  Biso   1.000  C
  N34      1.0000 0.86979  0.72856  0.51589  Biso   1.000  N
  O16      1.0000 0.86993  0.65729  0.52614  Biso   1.000  O
  H48      1.0000 0.66204  0.47057  0.06709  Biso   1.000  H
  C52      1.0000 0.72054  0.50957  0.96101  Biso   1.000  C
  O17      1.0000 0.69116  0.60109  0.94588  Biso   1.000  O
  N35      1.0000 0.72331  0.55242  0.91490  Biso   1.000  N
  N36      1.0000 0.76612  0.51623  0.99904  Biso   1.000  N
  O18      1.0000 0.79957  0.51346  0.16044  Biso   1.000  O
  C53      1.0000 0.86442  0.81677  0.40429  Biso   1.000  C
  H49      1.0000 0.84092  0.76234  0.59875  Biso   1.000  H
  C54      1.0000 0.92101  0.76015  0.52013  Biso   1.000  C
  H50      1.0000 0.70413  0.48147  0.91258  Biso   1.000  H
  C55      1.0000 0.74562  0.57318  0.81315  Biso   1.000  C
  C56      1.0000 0.80221  0.51655  0.92907  Biso   1.000  C
  N37      1.0000 0.90051  0.81710  0.33424  Biso   1.000  N
  H51      1.0000 0.88061  0.83724  0.46626  Biso   1.000  H
  H52      1.0000 0.84781  0.83084  0.36594  Biso   1.000  H
  N38      1.0000 0.94333  0.78091  0.41846  Biso   1.000  N
  H53      1.0000 0.93582  0.74216  0.54888  Biso   1.000  H
  H54      1.0000 0.92793  0.78627  0.57041  Biso   1.000  H
  N39      1.0000 0.79684  0.60476  0.81747  Biso   1.000  N
  H55      1.0000 0.73084  0.59117  0.78448  Biso   1.000  H
  H56      1.0000 0.73873  0.54706  0.76295  Biso   1.000  H
  N40      1.0000 0.83753  0.56346  0.89120  Biso   1.000  N
  H57      1.0000 0.78600  0.49604  0.86710  Biso   1.000  H
  H58      1.0000 0.81880  0.50245  0.96734  Biso   1.000  H
  C57      1.0000 0.89993  0.82105  0.22504  Biso   1.000  C
  C58      1.0000 0.94612  0.82375  0.37235  Biso   1.000  C
  C59      1.0000 0.96881  0.76551  0.36226  Biso   1.000  C
  C60      1.0000 0.83192  0.58926  0.80210  Biso   1.000  C
  C61      1.0000 0.81841  0.65376  0.80978  Biso   1.000  C
  C62      1.0000 0.88152  0.58987  0.93980  Biso   1.000  C
  O19      1.0000 0.86706  0.81987  0.17284  Biso   1.000  O
  N41      1.0000 0.94142  0.82544  0.18517  Biso   1.000  N
  H59      1.0000 0.96250  0.85185  0.42078  Biso   1.000  H
  C63      1.0000 0.97531  0.83055  0.26859  Biso   1.000  C
  N42      1.0000 0.98740  0.79335  0.27420  Biso   1.000  N
  O20      1.0000 0.97551  0.73223  0.38748  Biso   1.000  O
  C64      1.0000 0.87983  0.63585  0.79753  Biso   1.000  C
  H60      1.0000 0.82573  0.57095  0.73461  Biso   1.000  H
  O21      1.0000 0.79673  0.67603  0.80714  Biso   1.000  O
  N43      1.0000 0.86663  0.67269  0.80154  Biso   1.000  N
  O22      1.0000 0.89692  0.57530  0.01185  Biso   1.000  O
  N44      1.0000 0.90505  0.63326  0.89096  Biso   1.000  N
  C65      1.0000 0.95624  0.84156  0.07670  Biso   1.000  C
  H61      1.0000 0.00462  0.86275  0.26627  Biso   1.000  H
  C66      1.0000 0.01438  0.78486  0.19350  Biso   1.000  C
  H62      1.0000 0.89750  0.63804  0.73101  Biso   1.000  H
  C67      1.0000 0.89983  0.72345  0.78577  Biso   1.000  C
  C68      1.0000 0.95481  0.66636  0.91290  Biso   1.000  C
  N45      1.0000 0.95345  0.80508  0.00520  Biso   1.000  N
  H63      1.0000 0.98942  0.86836  0.07774  Biso   1.000  H
  H64      1.0000 0.93594  0.85387  0.04827  Biso   1.000  H
  N46      1.0000 0.98696  0.76256  0.09839  Biso   1.000  N
  H65      1.0000 0.04262  0.81555  0.17397  Biso   1.000  H
  H66      1.0000 0.02582  0.76425  0.22360  Biso   1.000  H
  N47      1.0000 0.92569  0.74907  0.88039  Biso   1.000  N
  H67      1.0000 0.88184  0.73856  0.75855  Biso   1.000  H
  H68      1.0000 0.92321  0.72716  0.73077  Biso   1.000  H
  N48      1.0000 0.96339  0.70924  0.96766  Biso   1.000  N
  H69      1.0000 0.96761  0.64995  0.95637  Biso   1.000  H
  H70      1.0000 0.97251  0.67546  0.84509  Biso   1.000  H
  C69      1.0000 0.91738  0.78216  0.93219  Biso   1.000  C
  C70      1.0000 0.98821  0.78986  0.00384  Biso   1.000  C
  C71      1.0000 0.97322  0.71575  0.07365  Biso   1.000  C
  C72      1.0000 0.97033  0.75216  0.91458  Biso   1.000  C
  O23      1.0000 0.88447  0.78950  0.91306  Biso   1.000  O
  H71      1.0000 0.02102  0.81685  0.98927  Biso   1.000  H
  O24      1.0000 0.97056  0.68582  0.13754  Biso   1.000  O
  H72      1.0000 0.99383  0.76177  0.85526  Biso   1.000  H
  O25      1.0000 0.73224  0.75673  0.61252  Biso   1.000  O
  C73      1.0000 0.76553  0.79670  0.63774  Biso   1.000  C
  N49      1.0000 0.78092  0.83757  0.58154  Biso   1.000  N
  N50      1.0000 0.79335  0.80591  0.72580  Biso   1.000  N
  C74      1.0000 0.76016  0.83912  0.47987  Biso   1.000  C
  C75      1.0000 0.82374  0.87761  0.62765  Biso   1.000  C
  C76      1.0000 0.83056  0.85523  0.73141  Biso   1.000  C
  C77      1.0000 0.78485  0.77047  0.80650  Biso   1.000  C
  N51      1.0000 0.72858  0.85876  0.48411  Biso   1.000  N
  H73      1.0000 0.74215  0.80634  0.45112  Biso   1.000  H
  H74      1.0000 0.78625  0.85833  0.42967  Biso   1.000  H
  N52      1.0000 0.81712  0.91657  0.66576  Biso   1.000  N
  H75      1.0000 0.85185  0.88934  0.57922  Biso   1.000  H
  N53      1.0000 0.82543  0.88398  0.81483  Biso   1.000  N
  H76      1.0000 0.86275  0.85811  0.73373  Biso   1.000  H
  N54      1.0000 0.76254  0.77558  0.90161  Biso   1.000  N
  H77      1.0000 0.81555  0.77292  0.82603  Biso   1.000  H
  H78      1.0000 0.76424  0.73842  0.77648  Biso   1.000  H
  C78      1.0000 0.67958  0.83131  0.47642  Biso   1.000  C
  C79      1.0000 0.74403  0.90931  0.46874  Biso   1.000  C
  C80      1.0000 0.81677  0.95233  0.59571  Biso   1.000  C
  C81      1.0000 0.82103  0.92111  0.77496  Biso   1.000  C
  C82      1.0000 0.84155  0.88531  0.92330  Biso   1.000  C
  C83      1.0000 0.71576  0.74252  0.92635  Biso   1.000  C
  C84      1.0000 0.78987  0.80163  0.99616  Biso   1.000  C
  N55      1.0000 0.66062  0.86063  0.46826  Biso   1.000  N
  O26      1.0000 0.65729  0.78734  0.47386  Biso   1.000  O
  C85      1.0000 0.69747  0.91064  0.46425  Biso   1.000  C
  N56      1.0000 0.76986  0.94071  0.55784  Biso   1.000  N
  H79      1.0000 0.76237  0.92143  0.40125  Biso   1.000  H
  H80      1.0000 0.83726  0.95661  0.53374  Biso   1.000  H
  H81      1.0000 0.83087  0.98302  0.63406  Biso   1.000  H
  O27      1.0000 0.81985  0.95276  0.82716  Biso   1.000  O
  N57      1.0000 0.80507  0.85160  0.99488  Biso   1.000  N
  H82      1.0000 0.86835  0.87890  0.92226  Biso   1.000  H
  H83      1.0000 0.85388  0.91794  0.95173  Biso   1.000  H
  N58      1.0000 0.70927  0.74586  0.03234  Biso   1.000  N
  O28      1.0000 0.68583  0.71525  0.86246  Biso   1.000  O
  C86      1.0000 0.75216  0.78180  0.08542  Biso   1.000  C
  H84      1.0000 0.81685  0.79584  0.01073  Biso   1.000  H
  C87      1.0000 0.60986  0.84304  0.45241  Biso   1.000  C
  N59      1.0000 0.70006  0.93845  0.55760  Biso   1.000  N
  H85      1.0000 0.69526  0.92611  0.39765  Biso   1.000  H
  C88      1.0000 0.74345  0.95831  0.60644  Biso   1.000  C
  C89      1.0000 0.78215  0.86477  0.06781  Biso   1.000  C
  C90      1.0000 0.66635  0.71151  0.08710  Biso   1.000  C
  N60      1.0000 0.74907  0.82336  0.11961  Biso   1.000  N
  H86      1.0000 0.76176  0.76792  0.14474  Biso   1.000  H
  N61      1.0000 0.58425  0.84329  0.54703  Biso   1.000  N
  H87      1.0000 0.59477  0.80994  0.42527  Biso   1.000  H
  H88      1.0000 0.60615  0.86272  0.39741  Biso   1.000  H
  C91      1.0000 0.66697  0.95514  0.57954  Biso   1.000  C
  O29      1.0000 0.75803  0.98827  0.67857  Biso   1.000  O
  O30      1.0000 0.78948  0.90499  0.08694  Biso   1.000  O
  N62      1.0000 0.63326  0.72820  0.10904  Biso   1.000  N
  H89      1.0000 0.64996  0.68233  0.04363  Biso   1.000  H
  H90      1.0000 0.67545  0.70291  0.15491  Biso   1.000  H
  C92      1.0000 0.72346  0.82361  0.21423  Biso   1.000  C
  C93      1.0000 0.55115  0.80188  0.59883  Biso   1.000  C
  C94      1.0000 0.58116  0.88484  0.58122  Biso   1.000  C
  N63      1.0000 0.62406  0.92078  0.63438  Biso   1.000  N
  H91      1.0000 0.68337  0.98432  0.62301  Biso   1.000  H
  H92      1.0000 0.65787  0.96374  0.51173  Biso   1.000  H
  C95      1.0000 0.58987  0.70834  0.06020  Biso   1.000  C
  C96      1.0000 0.63586  0.75601  0.20247  Biso   1.000  C
  N64      1.0000 0.67267  0.80602  0.19846  Biso   1.000  N
  H93      1.0000 0.73855  0.85671  0.24145  Biso   1.000  H
  H94      1.0000 0.72715  0.80393  0.26923  Biso   1.000  H
  O31      1.0000 0.54384  0.76166  0.57978  Biso   1.000  O
  N65      1.0000 0.52825  0.81505  0.67184  Biso   1.000  N
  C97      1.0000 0.54346  0.86502  0.67056  Biso   1.000  C
  H95      1.0000 0.57156  0.89873  0.52198  Biso   1.000  H
  C98      1.0000 0.61757  0.92413  0.74037  Biso   1.000  C
  N66      1.0000 0.56346  0.72593  0.10880  Biso   1.000  N
  O32      1.0000 0.57529  0.67837  0.98815  Biso   1.000  O
  C99      1.0000 0.58926  0.75734  0.19790  Biso   1.000  C
  H96      1.0000 0.63806  0.74054  0.26907  Biso   1.000  H
  C100     1.0000 0.65374  0.83534  0.19022  Biso   1.000  C
  C101     1.0000 0.49177  0.78134  0.74334  Biso   1.000  C
  N67      1.0000 0.57075  0.89107  0.76503  Biso   1.000  N
  H97      1.0000 0.51644  0.87081  0.65591  Biso   1.000  H
  O33      1.0000 0.64750  0.95140  0.80426  Biso   1.000  O
  C102     1.0000 0.51655  0.71431  0.07093  Biso   1.000  C
  N68      1.0000 0.60475  0.80789  0.18253  Biso   1.000  N
  H98      1.0000 0.57095  0.74522  0.26547  Biso   1.000  H
  O34      1.0000 0.67603  0.87930  0.19286  Biso   1.000  O
  N69      1.0000 0.50789  0.78267  0.85181  Biso   1.000  N
  H99      1.0000 0.46497  0.78774  0.74446  Biso   1.000  H
  H100     1.0000 0.47944  0.74871  0.71491  Biso   1.000  H
  C103     1.0000 0.54847  0.89617  0.86014  Biso   1.000  C
  N70      1.0000 0.51621  0.75007  0.00096  Biso   1.000  N
  H101     1.0000 0.49606  0.71003  0.13290  Biso   1.000  H
  H102     1.0000 0.50246  0.68362  0.03266  Biso   1.000  H
  C104     1.0000 0.57316  0.82753  0.18685  Biso   1.000  C
  C105     1.0000 0.51226  0.74554  0.89176  Biso   1.000  C
  C106     1.0000 0.50276  0.81141  0.93523  Biso   1.000  C
  N71      1.0000 0.53998  0.86074  0.94084  Biso   1.000  N
  H103     1.0000 0.51778  0.89373  0.84061  Biso   1.000  H
  H104     1.0000 0.56905  0.92823  0.89024  Biso   1.000  H
  C107     1.0000 0.50958  0.78904  0.03907  Biso   1.000  C
  N72      1.0000 0.55241  0.82908  0.08510  Biso   1.000  N
  H105     1.0000 0.59114  0.86031  0.21552  Biso   1.000  H
  H106     1.0000 0.54704  0.80832  0.23705  Biso   1.000  H
  O35      1.0000 0.51347  0.71388  0.83956  Biso   1.000  O
  H107     1.0000 0.47057  0.80854  0.93291  Biso   1.000  H
  C108     1.0000 0.56779  0.86995  0.02890  Biso   1.000  C
  H108     1.0000 0.48144  0.77731  0.08742  Biso   1.000  H
  O36      1.0000 0.60108  0.90992  0.05412  Biso   1.000  O
  C109     1.0000 0.32155  0.45654  0.67056  Biso   1.000  C
  C110     1.0000 0.30370  0.41884  0.58122  Biso   1.000  C
  N73      1.0000 0.32030  0.42924  0.76503  Biso   1.000  N
  N74      1.0000 0.28677  0.47172  0.67184  Biso   1.000  N
  H109     1.0000 0.35436  0.48352  0.65591  Biso   1.000  H
  N75      1.0000 0.29673  0.37592  0.63438  Biso   1.000  N
  N76      1.0000 0.25903  0.41574  0.54703  Biso   1.000  N
  H110     1.0000 0.32716  0.42844  0.52198  Biso   1.000  H
  C111     1.0000 0.30659  0.38243  0.74037  Biso   1.000  C
  C112     1.0000 0.34772  0.45154  0.86014  Biso   1.000  C
  C113     1.0000 0.25072  0.44884  0.59883  Biso   1.000  C
  C114     1.0000 0.28958  0.50824  0.74334  Biso   1.000  C
  C115     1.0000 0.28815  0.33303  0.57954  Biso   1.000  C
  C116     1.0000 0.23317  0.39013  0.45241  Biso   1.000  C
  O37      1.0000 0.30390  0.35250  0.80426  Biso   1.000  O
  N77      1.0000 0.32077  0.46003  0.94084  Biso   1.000  N
  H111     1.0000 0.37596  0.48223  0.84061  Biso   1.000  H
  H112     1.0000 0.35916  0.43093  0.89024  Biso   1.000  H
  O38      1.0000 0.21784  0.45618  0.57978  Biso   1.000  O
  N78      1.0000 0.27477  0.49209  0.85181  Biso   1.000  N
  H113     1.0000 0.32276  0.53504  0.74446  Biso   1.000  H
  H114     1.0000 0.26928  0.52054  0.71491  Biso   1.000  H
  N79      1.0000 0.23842  0.29994  0.55760  Biso   1.000  N
  H115     1.0000 0.30095  0.31663  0.62301  Biso   1.000  H
  H116     1.0000 0.30585  0.34214  0.51173  Biso   1.000  H
  N80      1.0000 0.20000  0.33937  0.46826  Biso   1.000  N
  H117     1.0000 0.21518  0.40524  0.42527  Biso   1.000  H
  H118     1.0000 0.25658  0.39383  0.39741  Biso   1.000  H
  C117     1.0000 0.30865  0.49723  0.93523  Biso   1.000  C
  C118     1.0000 0.30215  0.43219  0.02890  Biso   1.000  C
  C119     1.0000 0.23327  0.48773  0.89176  Biso   1.000  C
  C120     1.0000 0.21317  0.30253  0.46425  Biso   1.000  C
  C121     1.0000 0.21484  0.25651  0.60644  Biso   1.000  C
  C122     1.0000 0.15175  0.32044  0.47642  Biso   1.000  C
  H119     1.0000 0.33796  0.52943  0.93291  Biso   1.000  H
  C123     1.0000 0.27946  0.49043  0.03907  Biso   1.000  C
  O39      1.0000 0.30883  0.39887  0.05412  Biso   1.000  O
  N81      1.0000 0.27670  0.44758  0.08510  Biso   1.000  N
  O40      1.0000 0.20038  0.48651  0.83956  Biso   1.000  O
  N82      1.0000 0.23385  0.48378  0.00096  Biso   1.000  N
  H120     1.0000 0.23087  0.30472  0.39765  Biso   1.000  H
  C124     1.0000 0.16526  0.25594  0.46874  Biso   1.000  C
  N83      1.0000 0.17087  0.23014  0.55784  Biso   1.000  N
  O41      1.0000 0.23025  0.24198  0.67857  Biso   1.000  O
  N84      1.0000 0.13021  0.27144  0.48411  Biso   1.000  N
  O42      1.0000 0.13007  0.34271  0.47386  Biso   1.000  O
  H121     1.0000 0.29587  0.51853  0.08742  Biso   1.000  H
  C125     1.0000 0.25435  0.42682  0.18685  Biso   1.000  C
  C126     1.0000 0.19775  0.48342  0.07093  Biso   1.000  C
  H122     1.0000 0.15907  0.23762  0.40125  Biso   1.000  H
  C127     1.0000 0.13558  0.18323  0.59571  Biso   1.000  C
  C128     1.0000 0.07897  0.23982  0.47987  Biso   1.000  C
  N85      1.0000 0.20313  0.39524  0.18253  Biso   1.000  N
  H123     1.0000 0.26916  0.40884  0.21552  Biso   1.000  H
  H124     1.0000 0.26127  0.45294  0.23705  Biso   1.000  H
  N86      1.0000 0.16247  0.43654  0.10880  Biso   1.000  N
  H125     1.0000 0.21395  0.50392  0.13290  Biso   1.000  H
  H126     1.0000 0.18115  0.49752  0.03266  Biso   1.000  H
  N87      1.0000 0.09947  0.18287  0.66576  Biso   1.000  N
  H127     1.0000 0.11937  0.16272  0.53374  Biso   1.000  H
  H128     1.0000 0.15217  0.16913  0.63406  Biso   1.000  H
  N88      1.0000 0.05664  0.21910  0.58154  Biso   1.000  N
  H129     1.0000 0.06418  0.25784  0.45112  Biso   1.000  H
  H130     1.0000 0.07207  0.21374  0.42967  Biso   1.000  H
  C129     1.0000 0.16808  0.41074  0.19790  Biso   1.000  C
  C130     1.0000 0.18159  0.34624  0.19022  Biso   1.000  C
  C131     1.0000 0.11848  0.41013  0.06020  Biso   1.000  C
  C132     1.0000 0.10007  0.17895  0.77496  Biso   1.000  C
  C133     1.0000 0.05388  0.17625  0.62765  Biso   1.000  C
  C134     1.0000 0.03119  0.23449  0.63774  Biso   1.000  C
  C135     1.0000 0.12015  0.36412  0.20247  Biso   1.000  C
  H131     1.0000 0.17426  0.42902  0.26547  Biso   1.000  H
  N89      1.0000 0.13334  0.32731  0.19846  Biso   1.000  N
  O43      1.0000 0.20325  0.32393  0.19286  Biso   1.000  O
  N90      1.0000 0.09492  0.36674  0.10904  Biso   1.000  N
  O44      1.0000 0.10309  0.42470  0.98815  Biso   1.000  O
  O45      1.0000 0.13294  0.18013  0.82716  Biso   1.000  O
  N91      1.0000 0.05855  0.17456  0.81483  Biso   1.000  N
  H132     1.0000 0.03745  0.14812  0.57922  Biso   1.000  H
  C136     1.0000 0.02469  0.16945  0.73141  Biso   1.000  C
  O46      1.0000 0.02450  0.26777  0.61252  Biso   1.000  O
  N92      1.0000 0.01257  0.20665  0.72580  Biso   1.000  N
  H133     1.0000 0.10245  0.36192  0.26907  Biso   1.000  H
  C137     1.0000 0.10015  0.27652  0.21423  Biso   1.000  C
  C138     1.0000 0.04519  0.33365  0.08710  Biso   1.000  C
  C139     1.0000 0.04376  0.15844  0.92330  Biso   1.000  C
  H134     1.0000 0.99536  0.13721  0.73373  Biso   1.000  H
  C140     1.0000 0.98562  0.21514  0.80650  Biso   1.000  C
  N93      1.0000 0.07431  0.25094  0.11961  Biso   1.000  N
  H135     1.0000 0.11816  0.26144  0.24145  Biso   1.000  H
  H136     1.0000 0.07676  0.27285  0.26923  Biso   1.000  H
  N94      1.0000 0.03660  0.29073  0.03234  Biso   1.000  N
  H137     1.0000 0.03237  0.35002  0.04363  Biso   1.000  H
  H138     1.0000 0.02749  0.32454  0.15491  Biso   1.000  H
  N95      1.0000 0.04655  0.19492  0.99488  Biso   1.000  N
  H139     1.0000 0.01058  0.13164  0.92226  Biso   1.000  H
  H140     1.0000 0.06406  0.14614  0.95173  Biso   1.000  H
  N96      1.0000 0.01304  0.23744  0.90161  Biso   1.000  N
  H141     1.0000 0.95736  0.18442  0.82603  Biso   1.000  H
  H142     1.0000 0.97413  0.23572  0.77648  Biso   1.000  H
  C141     1.0000 0.08262  0.21784  0.06781  Biso   1.000  C
  C142     1.0000 0.02964  0.24784  0.08542  Biso   1.000  C
  C143     1.0000 0.02673  0.28421  0.92635  Biso   1.000  C
  C144     1.0000 0.01179  0.21014  0.99616  Biso   1.000  C
  O47      1.0000 0.11550  0.21050  0.08694  Biso   1.000  O
  H143     1.0000 0.00618  0.23824  0.14474  Biso   1.000  H
  O48      1.0000 0.02942  0.31415  0.86246  Biso   1.000  O
  H144     1.0000 0.97896  0.18312  0.01073  Biso   1.000  H
  O49      1.0000 0.48653  0.28612  0.16044  Biso   1.000  O
  C145     1.0000 0.48771  0.25446  0.10824  Biso   1.000  C
  N97      1.0000 0.48379  0.24993  0.99904  Biso   1.000  N
  N98      1.0000 0.49211  0.21733  0.14819  Biso   1.000  N
  C146     1.0000 0.48343  0.28565  0.92907  Biso   1.000  C
  C147     1.0000 0.49042  0.21097  0.96101  Biso   1.000  C
  C148     1.0000 0.49722  0.18855  0.06477  Biso   1.000  C
  C149     1.0000 0.50823  0.21866  0.25666  Biso   1.000  C
  N99      1.0000 0.43654  0.27407  0.89120  Biso   1.000  N
  H145     1.0000 0.50394  0.28997  0.86710  Biso   1.000  H
  H146     1.0000 0.49755  0.31638  0.96734  Biso   1.000  H
  N100     1.0000 0.44758  0.17089  0.91490  Biso   1.000  N
  H147     1.0000 0.51851  0.22266  0.91258  Biso   1.000  H
  N101     1.0000 0.46002  0.13926  0.05916  Biso   1.000  N
  H148     1.0000 0.52943  0.19147  0.06709  Biso   1.000  H
  N102     1.0000 0.47175  0.18495  0.32816  Biso   1.000  N
  H149     1.0000 0.53503  0.21226  0.25554  Biso   1.000  H
  H150     1.0000 0.52054  0.25126  0.28509  Biso   1.000  H
  C150     1.0000 0.41013  0.29166  0.93980  Biso   1.000  C
  C151     1.0000 0.41071  0.24266  0.80210  Biso   1.000  C
  C152     1.0000 0.42684  0.17247  0.81315  Biso   1.000  C
  C153     1.0000 0.43219  0.13002  0.97110  Biso   1.000  C
  C154     1.0000 0.45153  0.10383  0.13986  Biso   1.000  C
  C155     1.0000 0.44881  0.19809  0.40117  Biso   1.000  C
  C156     1.0000 0.45654  0.13498  0.32944  Biso   1.000  C
  N103     1.0000 0.36674  0.27180  0.89096  Biso   1.000  N
  O50      1.0000 0.42471  0.32163  0.01185  Biso   1.000  O
  C157     1.0000 0.36413  0.24396  0.79753  Biso   1.000  C
  N104     1.0000 0.39524  0.19208  0.81747  Biso   1.000  N
  H151     1.0000 0.42903  0.25475  0.73461  Biso   1.000  H
  H152     1.0000 0.40881  0.13966  0.78448  Biso   1.000  H
  H153     1.0000 0.45291  0.19165  0.76295  Biso   1.000  H
  O51      1.0000 0.39890  0.09005  0.94588  Biso   1.000  O
  N105     1.0000 0.42922  0.10894  0.23497  Biso   1.000  N
  H154     1.0000 0.48222  0.10627  0.15939  Biso   1.000  H
  H155     1.0000 0.43092  0.07177  0.10976  Biso   1.000  H
  N106     1.0000 0.41573  0.15668  0.45297  Biso   1.000  N
  O52      1.0000 0.45616  0.23834  0.42030  Biso   1.000  O
  C158     1.0000 0.41884  0.11516  0.41878  Biso   1.000  C
  H156     1.0000 0.48351  0.12916  0.34409  Biso   1.000  H
  C159     1.0000 0.33363  0.28846  0.91290  Biso   1.000  C
  N107     1.0000 0.32728  0.19395  0.80154  Biso   1.000  N
  H157     1.0000 0.36194  0.25946  0.73101  Biso   1.000  H
  C160     1.0000 0.34624  0.16463  0.80978  Biso   1.000  C
  C161     1.0000 0.38242  0.07584  0.25971  Biso   1.000  C
  C162     1.0000 0.39014  0.15697  0.54759  Biso   1.000  C
  N108     1.0000 0.37593  0.07918  0.36570  Biso   1.000  N
  H158     1.0000 0.42844  0.10127  0.47810  Biso   1.000  H
  N109     1.0000 0.29073  0.25414  0.96766  Biso   1.000  N
  H159     1.0000 0.35004  0.31767  0.95637  Biso   1.000  H
  H160     1.0000 0.32453  0.29706  0.84509  Biso   1.000  H
  C163     1.0000 0.27652  0.17636  0.78577  Biso   1.000  C
  O53      1.0000 0.32397  0.12070  0.80714  Biso   1.000  O
  O54      1.0000 0.35249  0.04857  0.19574  Biso   1.000  O
  N110     1.0000 0.33935  0.13937  0.53174  Biso   1.000  N
  H161     1.0000 0.40523  0.19006  0.57473  Biso   1.000  H
  H162     1.0000 0.39381  0.13725  0.60259  Biso   1.000  H
  C164     1.0000 0.33303  0.04486  0.42046  Biso   1.000  C
  C165     1.0000 0.28424  0.25748  0.07365  Biso   1.000  C
  C166     1.0000 0.24784  0.21820  0.91458  Biso   1.000  C
  N111     1.0000 0.25093  0.17664  0.88039  Biso   1.000  N
  H163     1.0000 0.26143  0.14326  0.75855  Biso   1.000  H
  H164     1.0000 0.27282  0.19607  0.73077  Biso   1.000  H
  C167     1.0000 0.32042  0.16869  0.52358  Biso   1.000  C
  C168     1.0000 0.30253  0.08937  0.53575  Biso   1.000  C
  N112     1.0000 0.29992  0.06152  0.44240  Biso   1.000  N
  H165     1.0000 0.31662  0.01565  0.37699  Biso   1.000  H
  H166     1.0000 0.34213  0.03626  0.48827  Biso   1.000  H
  N113     1.0000 0.23743  0.22442  0.09839  Biso   1.000  N
  O55      1.0000 0.31417  0.28475  0.13754  Biso   1.000  O
  C169     1.0000 0.21012  0.19834  0.00384  Biso   1.000  C
  H167     1.0000 0.23822  0.23205  0.85526  Biso   1.000  H
  C170     1.0000 0.21782  0.13524  0.93219  Biso   1.000  C
  N114     1.0000 0.27143  0.14124  0.51589  Biso   1.000  N
  O56      1.0000 0.34270  0.21262  0.52614  Biso   1.000  O
  C171     1.0000 0.25592  0.09066  0.53126  Biso   1.000  C
  H168     1.0000 0.30472  0.07386  0.60235  Biso   1.000  H
  C172     1.0000 0.25653  0.04166  0.39356  Biso   1.000  C
  C173     1.0000 0.21515  0.22953  0.19350  Biso   1.000  C
  N115     1.0000 0.19492  0.14837  0.00520  Biso   1.000  N
  H169     1.0000 0.18312  0.20417  0.98927  Biso   1.000  H
  O57      1.0000 0.21050  0.09498  0.91306  Biso   1.000  O
  C174     1.0000 0.23982  0.16085  0.52013  Biso   1.000  C
  N116     1.0000 0.23012  0.05925  0.44216  Biso   1.000  N
  H170     1.0000 0.23763  0.07857  0.59875  Biso   1.000  H
  O58      1.0000 0.24197  0.01173  0.32143  Biso   1.000  O
  N117     1.0000 0.20664  0.19406  0.27420  Biso   1.000  N
  H171     1.0000 0.18444  0.22705  0.17397  Biso   1.000  H
  H172     1.0000 0.23571  0.26155  0.22360  Biso   1.000  H
  C175     1.0000 0.15843  0.11466  0.07670  Biso   1.000  C
  N118     1.0000 0.21908  0.16243  0.41846  Biso   1.000  N
  H173     1.0000 0.25782  0.19366  0.54888  Biso   1.000  H
  H174     1.0000 0.21372  0.14168  0.57041  Biso   1.000  H
  C176     1.0000 0.18323  0.04767  0.40429  Biso   1.000  C
  C177     1.0000 0.16944  0.14477  0.26859  Biso   1.000  C
  C178     1.0000 0.23447  0.20330  0.36226  Biso   1.000  C
  N119     1.0000 0.17455  0.11599  0.18517  Biso   1.000  N
  H175     1.0000 0.13163  0.12106  0.07774  Biso   1.000  H
  H176     1.0000 0.14612  0.08206  0.04827  Biso   1.000  H
  C179     1.0000 0.17624  0.12236  0.37235  Biso   1.000  C
  N120     1.0000 0.18288  0.08343  0.33424  Biso   1.000  N
  H177     1.0000 0.16272  0.04335  0.46626  Biso   1.000  H
  H178     1.0000 0.16913  0.01698  0.36594  Biso   1.000  H
  H179     1.0000 0.13723  0.14186  0.26627  Biso   1.000  H
  O59      1.0000 0.26776  0.24327  0.38748  Biso   1.000  O
  C180     1.0000 0.17892  0.07886  0.22504  Biso   1.000  C
  H180     1.0000 0.14812  0.11066  0.42078  Biso   1.000  H
  O60      1.0000 0.18013  0.04720  0.17284  Biso   1.000  O
  C181     1.0000 0.88178  0.56285  0.52678  Biso   1.000  C
  N121     1.0000 0.90409  0.55774  0.43167  Biso   1.000  N
  N122     1.0000 0.87330  0.52738  0.60748  Biso   1.000  N
  H181     1.0000 0.85108  0.56041  0.50733  Biso   1.000  H
  H182     1.0000 0.90239  0.59491  0.55688  Biso   1.000  H
  C182     1.0000 0.87680  0.53170  0.33720  Biso   1.000  C
  C183     1.0000 0.95090  0.59081  0.40701  Biso   1.000  C
  C184     1.0000 0.83610  0.47809  0.60187  Biso   1.000  C
  C185     1.0000 0.90113  0.53662  0.69562  Biso   1.000  C
  N123     1.0000 0.86159  0.48172  0.33848  Biso   1.000  N
  H183     1.0000 0.84978  0.53749  0.32263  Biso   1.000  H
  C186     1.0000 0.91450  0.55152  0.24794  Biso   1.000  C
  N124     1.0000 0.95740  0.58746  0.30102  Biso   1.000  N
  O61      1.0000 0.98083  0.61808  0.47090  Biso   1.000  O
  N125     1.0000 0.84121  0.44931  0.51853  Biso   1.000  N
  C187     1.0000 0.84287  0.45568  0.70571  Biso   1.000  C
  H184     1.0000 0.80389  0.47518  0.59963  Biso   1.000  H
  N126     1.0000 0.88575  0.49576  0.75182  Biso   1.000  N
  O62      1.0000 0.93442  0.57659  0.72084  Biso   1.000  O
  C188     1.0000 0.82509  0.44798  0.40998  Biso   1.000  C
  C189     1.0000 0.88448  0.46856  0.26547  Biso   1.000  C
  N127     1.0000 0.91759  0.50997  0.21367  Biso   1.000  N
  H185     1.0000 0.90490  0.56541  0.18862  Biso   1.000  H
  C190     1.0000 0.00029  0.62178  0.24618  Biso   1.000  C
  C191     1.0000 0.84558  0.41218  0.55840  Biso   1.000  C
  N128     1.0000 0.84955  0.41675  0.66760  Biso   1.000  N
  H186     1.0000 0.81478  0.44399  0.75414  Biso   1.000  H
  C192     1.0000 0.90650  0.49421  0.85349  Biso   1.000  C
  H187     1.0000 0.79829  0.45438  0.41110  Biso   1.000  H
  H188     1.0000 0.81278  0.41538  0.38163  Biso   1.000  H
  O63      1.0000 0.87713  0.42830  0.24642  Biso   1.000  O
  C193     1.0000 0.94318  0.50968  0.11913  Biso   1.000  C
  H189     1.0000 0.99119  0.63038  0.17837  Biso   1.000  H
  N129     1.0000 0.03340  0.60512  0.22432  Biso   1.000  N
  H190     1.0000 0.01670  0.65099  0.28973  Biso   1.000  H
  O64      1.0000 0.84679  0.38052  0.50620  Biso   1.000  O
  C194     1.0000 0.84989  0.38099  0.73757  Biso   1.000  C
  N130     1.0000 0.93809  0.47457  0.84917  Biso   1.000  N
  H191     1.0000 0.92448  0.52698  0.88224  Biso   1.000  H
  H192     1.0000 0.88038  0.47500  0.90369  Biso   1.000  H
  N131     1.0000 0.99394  0.52727  0.13490  Biso   1.000  N
  H193     1.0000 0.92810  0.47658  0.09191  Biso   1.000  H
  H194     1.0000 0.93948  0.52939  0.06413  Biso   1.000  H
  C195     1.0000 0.03079  0.57728  0.13089  Biso   1.000  C
  C196     1.0000 0.07679  0.62498  0.27308  Biso   1.000  C
  N132     1.0000 0.89680  0.39261  0.77552  Biso   1.000  N
  H195     1.0000 0.82940  0.37671  0.79962  Biso   1.000  H
  H196     1.0000 0.83579  0.35030  0.69930  Biso   1.000  H
  C197     1.0000 0.92258  0.42398  0.86462  Biso   1.000  C
  C198     1.0000 0.98708  0.50202  0.85694  Biso   1.000  C
  C199     1.0000 0.01290  0.49795  0.14306  Biso   1.000  C
  H197     1.0000 0.02860  0.59278  0.06429  Biso   1.000  H
  C200     1.0000 0.07740  0.57598  0.13538  Biso   1.000  C
  O65      1.0000 0.09137  0.65495  0.34521  Biso   1.000  O
  N133     1.0000 0.10320  0.60739  0.22448  Biso   1.000  N
  C201     1.0000 0.92319  0.37498  0.72692  Biso   1.000  C
  C202     1.0000 0.96920  0.42269  0.86911  Biso   1.000  C
  H198     1.0000 0.90429  0.41189  0.93211  Biso   1.000  H
  N134     1.0000 0.00604  0.47269  0.86510  Biso   1.000  N
  O66      1.0000 0.00937  0.54598  0.85950  Biso   1.000  O
  O67      1.0000 0.99060  0.45402  0.14050  Biso   1.000  O
  N135     1.0000 0.06190  0.52540  0.15083  Biso   1.000  N
  H199     1.0000 0.09571  0.58811  0.06789  Biso   1.000  H
  C203     1.0000 0.15009  0.61898  0.26243  Biso   1.000  C
  O68      1.0000 0.90863  0.34505  0.65479  Biso   1.000  O
  N136     1.0000 0.96658  0.39484  0.77568  Biso   1.000  N
  H200     1.0000 0.97138  0.40718  0.93571  Biso   1.000  H
  C204     1.0000 0.05680  0.49029  0.88087  Biso   1.000  C
  C205     1.0000 0.09350  0.50579  0.14651  Biso   1.000  C
  N137     1.0000 0.15045  0.58325  0.33240  Biso   1.000  N
  H201     1.0000 0.17060  0.62329  0.20038  Biso   1.000  H
  H202     1.0000 0.16421  0.64970  0.30070  Biso   1.000  H
  C206     1.0000 0.99969  0.37818  0.75382  Biso   1.000  C
  N138     1.0000 0.08241  0.49004  0.78633  Biso   1.000  N
  H203     1.0000 0.07189  0.52339  0.90809  Biso   1.000  H
  H204     1.0000 0.06052  0.47061  0.93587  Biso   1.000  H
  N139     1.0000 0.11424  0.50421  0.24818  Biso   1.000  N
  H205     1.0000 0.07551  0.47298  0.11776  Biso   1.000  H
  H206     1.0000 0.11962  0.52500  0.09631  Biso   1.000  H
  C207     1.0000 0.15708  0.54429  0.29429  Biso   1.000  C
  C208     1.0000 0.15440  0.58778  0.44160  Biso   1.000  C
  H207     1.0000 0.98330  0.34901  0.71027  Biso   1.000  H
  N140     1.0000 0.04261  0.41254  0.69898  Biso   1.000  N
  H208     1.0000 0.00879  0.36959  0.82163  Biso   1.000  H
  C209     1.0000 0.08550  0.44848  0.75214  Biso   1.000  C
  C210     1.0000 0.11552  0.53144  0.73453  Biso   1.000  C
  C211     1.0000 0.09885  0.46334  0.30438  Biso   1.000  C
  H209     1.0000 0.18521  0.55598  0.24594  Biso   1.000  H
  C212     1.0000 0.16390  0.52191  0.39813  Biso   1.000  C
  O69      1.0000 0.15319  0.61944  0.49380  Biso   1.000  O
  N141     1.0000 0.15877  0.55066  0.48147  Biso   1.000  N
  C213     1.0000 0.04910  0.40920  0.59299  Biso   1.000  C
  C214     1.0000 0.12320  0.46831  0.66280  Biso   1.000  C
  H210     1.0000 0.09510  0.43460  0.81138  Biso   1.000  H
  N142     1.0000 0.13841  0.51828  0.66152  Biso   1.000  N
  O70      1.0000 0.12282  0.57167  0.75358  Biso   1.000  O
  O71      1.0000 0.06556  0.42337  0.27924  Biso   1.000  O
  N143     1.0000 0.12668  0.47259  0.39252  Biso   1.000  N
  H211     1.0000 0.19609  0.52479  0.40037  Biso   1.000  H
  C215     1.0000 0.17489  0.55199  0.59002  Biso   1.000  C
  O72      1.0000 0.01917  0.38193  0.52910  Biso   1.000  O
  N144     1.0000 0.09591  0.44226  0.56833  Biso   1.000  N
  H212     1.0000 0.15020  0.46248  0.67737  Biso   1.000  H
  C216     1.0000 0.11819  0.43715  0.47322  Biso   1.000  C
  H213     1.0000 0.20169  0.54558  0.58890  Biso   1.000  H
  H214     1.0000 0.18720  0.58458  0.61837  Biso   1.000  H
  H215     1.0000 0.14889  0.43960  0.49267  Biso   1.000  H
  H216     1.0000 0.09761  0.40509  0.44312  Biso   1.000  H
  O73      1.0000 0.46626  0.84678  0.49380  Biso   1.000  O
  C217     1.0000 0.43339  0.84559  0.44160  Biso   1.000  C
  N145     1.0000 0.43281  0.84955  0.33240  Biso   1.000  N
  N146     1.0000 0.39187  0.84120  0.48147  Biso   1.000  N
  C218     1.0000 0.46890  0.84987  0.26243  Biso   1.000  C
  C219     1.0000 0.38721  0.84289  0.29429  Biso   1.000  C
  C220     1.0000 0.35801  0.83609  0.39813  Biso   1.000  C
  C221     1.0000 0.37709  0.82508  0.59002  Biso   1.000  C
  N147     1.0000 0.50419  0.89679  0.22448  Biso   1.000  N
  H217     1.0000 0.45271  0.82940  0.20038  Biso   1.000  H
  H218     1.0000 0.48551  0.83581  0.30070  Biso   1.000  H
  N148     1.0000 0.38997  0.88574  0.24818  Biso   1.000  N
  H219     1.0000 0.37079  0.81479  0.24594  Biso   1.000  H
  N149     1.0000 0.34589  0.87329  0.39252  Biso   1.000  N
  H220     1.0000 0.32870  0.80389  0.40037  Biso   1.000  H
  N150     1.0000 0.37987  0.86156  0.66152  Biso   1.000  N
  H221     1.0000 0.34390  0.79828  0.58890  Biso   1.000  H
  H222     1.0000 0.39739  0.81278  0.61837  Biso   1.000  H
  C222     1.0000 0.54818  0.92319  0.27308  Biso   1.000  C
  C223     1.0000 0.49858  0.92258  0.13538  Biso   1.000  C
  C224     1.0000 0.41231  0.90650  0.14651  Biso   1.000  C
  C225     1.0000 0.36451  0.90114  0.30438  Biso   1.000  C
  C226     1.0000 0.31894  0.88178  0.47322  Biso   1.000  C
  C227     1.0000 0.34511  0.87678  0.66280  Biso   1.000  C
  C228     1.0000 0.41594  0.88448  0.73453  Biso   1.000  C
  O74      1.0000 0.56358  0.90862  0.34521  Biso   1.000  O
  N151     1.0000 0.57174  0.96658  0.22432  Biso   1.000  N
  N152     1.0000 0.46353  0.93809  0.15083  Biso   1.000  N
  C229     1.0000 0.54651  0.96921  0.13089  Biso   1.000  C
  H223     1.0000 0.49241  0.90430  0.06789  Biso   1.000  H
  H224     1.0000 0.39750  0.92449  0.11776  Biso   1.000  H
  H225     1.0000 0.40539  0.88038  0.09631  Biso   1.000  H
  O75      1.0000 0.35782  0.93442  0.27924  Biso   1.000  O
  N153     1.0000 0.34636  0.90409  0.56833  Biso   1.000  N
  H226     1.0000 0.29070  0.85110  0.49267  Biso   1.000  H
  H227     1.0000 0.30750  0.90240  0.44312  Biso   1.000  H
  H228     1.0000 0.31230  0.84980  0.67737  Biso   1.000  H
  C230     1.0000 0.36296  0.91449  0.75214  Biso   1.000  C
  O76      1.0000 0.44882  0.87714  0.75358  Biso   1.000  O
  N154     1.0000 0.40763  0.91758  0.78633  Biso   1.000  N
  C231     1.0000 0.62147  0.99968  0.24618  Biso   1.000  C
  C232     1.0000 0.48507  0.98709  0.14306  Biso   1.000  C
  H229     1.0000 0.56421  0.97140  0.06429  Biso   1.000  H
  N155     1.0000 0.53331  0.00605  0.13490  Biso   1.000  N
  C233     1.0000 0.36007  0.95089  0.59299  Biso   1.000  C
  N156     1.0000 0.36994  0.95741  0.69898  Biso   1.000  N
  H230     1.0000 0.33950  0.90488  0.81138  Biso   1.000  H
  C234     1.0000 0.43349  0.94319  0.88087  Biso   1.000  C
  H231     1.0000 0.63427  0.98327  0.28973  Biso   1.000  H
  N157     1.0000 0.63007  0.04260  0.30102  Biso   1.000  N
  H232     1.0000 0.63919  0.00882  0.17837  Biso   1.000  H
  O77      1.0000 0.46341  0.00939  0.14050  Biso   1.000  O
  C235     1.0000 0.56651  0.05681  0.11913  Biso   1.000  C
  O78      1.0000 0.36276  0.98083  0.52910  Biso   1.000  O
  C236     1.0000 0.37848  0.00029  0.75382  Biso   1.000  C
  N158     1.0000 0.46666  0.99396  0.86510  Biso   1.000  N
  H233     1.0000 0.45149  0.92808  0.90809  Biso   1.000  H
  H234     1.0000 0.41008  0.93949  0.93587  Biso   1.000  H
  C237     1.0000 0.63990  0.04911  0.40701  Biso   1.000  C
  C238     1.0000 0.63701  0.08552  0.24794  Biso   1.000  C
  N159     1.0000 0.59235  0.08239  0.21367  Biso   1.000  N
  H235     1.0000 0.54852  0.07192  0.09191  Biso   1.000  H
  H236     1.0000 0.58989  0.06051  0.06413  Biso   1.000  H
  H237     1.0000 0.36081  0.99119  0.82163  Biso   1.000  H
  N160     1.0000 0.42824  0.03339  0.77568  Biso   1.000  N
  H238     1.0000 0.36568  0.01669  0.71027  Biso   1.000  H
  C239     1.0000 0.45349  0.03080  0.86911  Biso   1.000  C
  C240     1.0000 0.51493  0.01292  0.85694  Biso   1.000  C
  O79      1.0000 0.63724  0.01918  0.47090  Biso   1.000  O
  N161     1.0000 0.65364  0.09591  0.43167  Biso   1.000  N
  C241     1.0000 0.65488  0.12319  0.33720  Biso   1.000  C
  H239     1.0000 0.66049  0.09509  0.18862  Biso   1.000  H
  C242     1.0000 0.58404  0.11549  0.26547  Biso   1.000  C
  C243     1.0000 0.45179  0.07681  0.72692  Biso   1.000  C
  H240     1.0000 0.43579  0.02860  0.93571  Biso   1.000  H
  C244     1.0000 0.50140  0.07739  0.86462  Biso   1.000  C
  O80      1.0000 0.53659  0.99061  0.85950  Biso   1.000  O
  N162     1.0000 0.53647  0.06192  0.84917  Biso   1.000  N
  C245     1.0000 0.68104  0.11818  0.52678  Biso   1.000  C
  N163     1.0000 0.62011  0.13840  0.33848  Biso   1.000  N
  H241     1.0000 0.68770  0.15020  0.32263  Biso   1.000  H
  O81      1.0000 0.55113  0.12283  0.24642  Biso   1.000  O
  O82      1.0000 0.43643  0.09138  0.65479  Biso   1.000  O
  N164     1.0000 0.49581  0.10322  0.77552  Biso   1.000  N
  H242     1.0000 0.50760  0.09570  0.93211  Biso   1.000  H
  C246     1.0000 0.58769  0.09350  0.85349  Biso   1.000  C
  N165     1.0000 0.65407  0.12667  0.60748  Biso   1.000  N
  H243     1.0000 0.70930  0.14891  0.50733  Biso   1.000  H
  H244     1.0000 0.69250  0.09761  0.55688  Biso   1.000  H
  C247     1.0000 0.62290  0.17488  0.40998  Biso   1.000  C
  C248     1.0000 0.53109  0.15010  0.73757  Biso   1.000  C
  N166     1.0000 0.61000  0.11426  0.75182  Biso   1.000  N
  H245     1.0000 0.60250  0.07552  0.88224  Biso   1.000  H
  H246     1.0000 0.59460  0.11959  0.90369  Biso   1.000  H
  C249     1.0000 0.64199  0.16391  0.60187  Biso   1.000  C
  C250     1.0000 0.63549  0.09887  0.69562  Biso   1.000  C
  N167     1.0000 0.60808  0.15877  0.51853  Biso   1.000  N
  H247     1.0000 0.65608  0.20169  0.41110  Biso   1.000  H
  H248     1.0000 0.60260  0.18719  0.38163  Biso   1.000  H
  N168     1.0000 0.56719  0.15046  0.66760  Biso   1.000  N
  H249     1.0000 0.54729  0.17060  0.79962  Biso   1.000  H
  H250     1.0000 0.51449  0.16420  0.69930  Biso   1.000  H
  C251     1.0000 0.61280  0.15711  0.70571  Biso   1.000  C
  H251     1.0000 0.67130  0.19611  0.59963  Biso   1.000  H
  O83      1.0000 0.64217  0.06555  0.72084  Biso   1.000  O
  C252     1.0000 0.56661  0.15441  0.55840  Biso   1.000  C
  H252     1.0000 0.62918  0.18521  0.75414  Biso   1.000  H
  O84      1.0000 0.53372  0.15319  0.50620  Biso   1.000  O
  C253     1.0000 0.78132  0.28957  0.25666  Biso   1.000  C
  N169     1.0000 0.78266  0.27475  0.14819  Biso   1.000  N
  N170     1.0000 0.81504  0.28680  0.32816  Biso   1.000  N
  H253     1.0000 0.78771  0.32274  0.25554  Biso   1.000  H
  H254     1.0000 0.74872  0.26925  0.28509  Biso   1.000  H
  C254     1.0000 0.74553  0.23327  0.10824  Biso   1.000  C
  C255     1.0000 0.81143  0.30868  0.06477  Biso   1.000  C
  C256     1.0000 0.86501  0.32156  0.32944  Biso   1.000  C
  C257     1.0000 0.80189  0.25072  0.40117  Biso   1.000  C
  O85      1.0000 0.71385  0.20039  0.16044  Biso   1.000  O
  N171     1.0000 0.75006  0.23385  0.99904  Biso   1.000  N
  C258     1.0000 0.78903  0.27947  0.96101  Biso   1.000  C
  N172     1.0000 0.86072  0.32077  0.05916  Biso   1.000  N
  H255     1.0000 0.80853  0.33796  0.06709  Biso   1.000  H
  N173     1.0000 0.89105  0.32030  0.23497  Biso   1.000  N
  H256     1.0000 0.87082  0.35437  0.34409  Biso   1.000  H
  C259     1.0000 0.88483  0.30368  0.41878  Biso   1.000  C
  O86      1.0000 0.76165  0.21784  0.42030  Biso   1.000  O
  N174     1.0000 0.84328  0.25903  0.45297  Biso   1.000  N
  C260     1.0000 0.71432  0.19776  0.92907  Biso   1.000  C
  N175     1.0000 0.82909  0.27669  0.91490  Biso   1.000  N
  H257     1.0000 0.77733  0.29587  0.91258  Biso   1.000  H
  C261     1.0000 0.89616  0.34771  0.13986  Biso   1.000  C
  C262     1.0000 0.86996  0.30217  0.97110  Biso   1.000  C
  C263     1.0000 0.92412  0.30656  0.25971  Biso   1.000  C
  N176     1.0000 0.92080  0.29673  0.36570  Biso   1.000  N
  H258     1.0000 0.89872  0.32717  0.47810  Biso   1.000  H
  C264     1.0000 0.84303  0.23316  0.54759  Biso   1.000  C
  N177     1.0000 0.72593  0.16247  0.89120  Biso   1.000  N
  H259     1.0000 0.71001  0.21395  0.86710  Biso   1.000  H
  H260     1.0000 0.68362  0.18118  0.96734  Biso   1.000  H
  C265     1.0000 0.82751  0.25435  0.81315  Biso   1.000  C
  H261     1.0000 0.89370  0.37595  0.15939  Biso   1.000  H
  H262     1.0000 0.92821  0.35915  0.10976  Biso   1.000  H
  O87      1.0000 0.90993  0.30882  0.94588  Biso   1.000  O
  O88      1.0000 0.95141  0.30393  0.19574  Biso   1.000  O
  C266     1.0000 0.95512  0.28817  0.42046  Biso   1.000  C
  N178     1.0000 0.86062  0.19999  0.53174  Biso   1.000  N
  H263     1.0000 0.80992  0.21518  0.57473  Biso   1.000  H
  H264     1.0000 0.86273  0.25655  0.60259  Biso   1.000  H
  C267     1.0000 0.70832  0.11847  0.93980  Biso   1.000  C
  C268     1.0000 0.75733  0.16808  0.80210  Biso   1.000  C
  N179     1.0000 0.80790  0.20316  0.81747  Biso   1.000  N
  H265     1.0000 0.86032  0.26918  0.78448  Biso   1.000  H
  H266     1.0000 0.80832  0.26126  0.76295  Biso   1.000  H
  N180     1.0000 0.93847  0.23842  0.44240  Biso   1.000  N
  H267     1.0000 0.98433  0.30098  0.37699  Biso   1.000  H
  H268     1.0000 0.96372  0.30587  0.48827  Biso   1.000  H
  C269     1.0000 0.91061  0.21316  0.53575  Biso   1.000  C
  C270     1.0000 0.83130  0.15175  0.52358  Biso   1.000  C
  O89      1.0000 0.67837  0.10307  0.01185  Biso   1.000  O
  N181     1.0000 0.72818  0.09494  0.89096  Biso   1.000  N
  C271     1.0000 0.75602  0.12016  0.79753  Biso   1.000  C
  H269     1.0000 0.74522  0.17427  0.73461  Biso   1.000  H
  C272     1.0000 0.83535  0.18161  0.80978  Biso   1.000  C
  C273     1.0000 0.95831  0.21485  0.39356  Biso   1.000  C
  H270     1.0000 0.92612  0.23086  0.60235  Biso   1.000  H
  C274     1.0000 0.90931  0.16528  0.53126  Biso   1.000  C
  O90      1.0000 0.78735  0.13009  0.52614  Biso   1.000  O
  N182     1.0000 0.85875  0.13020  0.51589  Biso   1.000  N
  C275     1.0000 0.71151  0.04515  0.91290  Biso   1.000  C
  N183     1.0000 0.80604  0.13333  0.80154  Biso   1.000  N
  H271     1.0000 0.74051  0.10246  0.73101  Biso   1.000  H
  O91      1.0000 0.87930  0.20327  0.80714  Biso   1.000  O
  O92      1.0000 0.98829  0.23025  0.32143  Biso   1.000  O
  N184     1.0000 0.94070  0.17085  0.44216  Biso   1.000  N
  H272     1.0000 0.92141  0.15905  0.59875  Biso   1.000  H
  C276     1.0000 0.83912  0.07897  0.52013  Biso   1.000  C
  N185     1.0000 0.74586  0.03659  0.96766  Biso   1.000  N
  H273     1.0000 0.68232  0.03238  0.95637  Biso   1.000  H
  H274     1.0000 0.70291  0.02745  0.84509  Biso   1.000  H
  C277     1.0000 0.82363  0.10016  0.78577  Biso   1.000  C
  C278     1.0000 0.95231  0.13556  0.40429  Biso   1.000  C
  N186     1.0000 0.83756  0.05666  0.41846  Biso   1.000  N
  H275     1.0000 0.80633  0.06418  0.54888  Biso   1.000  H
  H276     1.0000 0.85831  0.07206  0.57041  Biso   1.000  H
  C279     1.0000 0.74251  0.02677  0.07365  Biso   1.000  C
  C280     1.0000 0.78180  0.02964  0.91458  Biso   1.000  C
  N187     1.0000 0.82335  0.07429  0.88039  Biso   1.000  N
  H277     1.0000 0.85673  0.11818  0.75855  Biso   1.000  H
  H278     1.0000 0.80393  0.07677  0.73077  Biso   1.000  H
  N188     1.0000 0.91657  0.09947  0.33424  Biso   1.000  N
  H279     1.0000 0.95662  0.11937  0.46626  Biso   1.000  H
  H280     1.0000 0.98303  0.15218  0.36594  Biso   1.000  H
  C281     1.0000 0.87763  0.05386  0.37235  Biso   1.000  C
  C282     1.0000 0.79669  0.03119  0.36226  Biso   1.000  C
  O93      1.0000 0.71524  0.02943  0.13754  Biso   1.000  O
  N189     1.0000 0.77558  0.01302  0.09839  Biso   1.000  N
  C283     1.0000 0.80162  0.01176  0.00384  Biso   1.000  C
  H281     1.0000 0.76791  0.00615  0.85526  Biso   1.000  H
  C284     1.0000 0.86477  0.08260  0.93219  Biso   1.000  C
  C285     1.0000 0.92110  0.10005  0.22504  Biso   1.000  C
  C286     1.0000 0.85522  0.02468  0.26859  Biso   1.000  C
  H282     1.0000 0.88930  0.03745  0.42078  Biso   1.000  H
  N190     1.0000 0.80593  0.01259  0.27420  Biso   1.000  N
  O94      1.0000 0.75670  0.02450  0.38748  Biso   1.000  O
  C287     1.0000 0.77047  0.98561  0.19350  Biso   1.000  C
  N191     1.0000 0.85160  0.04655  0.00520  Biso   1.000  N
  H283     1.0000 0.79581  0.97895  0.98927  Biso   1.000  H
  O95      1.0000 0.90500  0.11552  0.91306  Biso   1.000  O
  N192     1.0000 0.88400  0.05857  0.18517  Biso   1.000  N
  O96      1.0000 0.95278  0.13293  0.17284  Biso   1.000  O
  H284     1.0000 0.85813  0.99536  0.26627  Biso   1.000  H
  H285     1.0000 0.77293  0.95737  0.17397  Biso   1.000  H
  H286     1.0000 0.73842  0.97417  0.22360  Biso   1.000  H
  C288     1.0000 0.88533  0.04378  0.07670  Biso   1.000  C
  H287     1.0000 0.87892  0.01058  0.07774  Biso   1.000  H
  H288     1.0000 0.91791  0.06407  0.04827  Biso   1.000  H
  C289     1.0000 0.21865  0.71043  0.74334  Biso   1.000  C
  N193     1.0000 0.18496  0.71320  0.67184  Biso   1.000  N
  N194     1.0000 0.21732  0.72521  0.85181  Biso   1.000  N
  H289     1.0000 0.21227  0.67722  0.74446  Biso   1.000  H
  H290     1.0000 0.25126  0.73072  0.71491  Biso   1.000  H
  C290     1.0000 0.13499  0.67844  0.67056  Biso   1.000  C
  C291     1.0000 0.19811  0.74928  0.59883  Biso   1.000  C
  C292     1.0000 0.25447  0.76673  0.89176  Biso   1.000  C
  C293     1.0000 0.18857  0.69132  0.93523  Biso   1.000  C
  N195     1.0000 0.10890  0.67967  0.76503  Biso   1.000  N
  H291     1.0000 0.12918  0.64563  0.65591  Biso   1.000  H
  C294     1.0000 0.11512  0.69629  0.58122  Biso   1.000  C
  O97      1.0000 0.23835  0.78216  0.57978  Biso   1.000  O
  N196     1.0000 0.15669  0.74097  0.54703  Biso   1.000  N
  O98      1.0000 0.28613  0.79958  0.83956  Biso   1.000  O
  N197     1.0000 0.24990  0.76612  0.00096  Biso   1.000  N
  N198     1.0000 0.13925  0.67924  0.94084  Biso   1.000  N
  H292     1.0000 0.19147  0.66204  0.93291  Biso   1.000  H
  C295     1.0000 0.21097  0.72054  0.03907  Biso   1.000  C
  C296     1.0000 0.07586  0.69341  0.74037  Biso   1.000  C
  C297     1.0000 0.10381  0.65229  0.86014  Biso   1.000  C
  N199     1.0000 0.07920  0.70327  0.63438  Biso   1.000  N
  H293     1.0000 0.10128  0.67283  0.52198  Biso   1.000  H
  C298     1.0000 0.15697  0.76684  0.45241  Biso   1.000  C
  C299     1.0000 0.28568  0.80224  0.07093  Biso   1.000  C
  C300     1.0000 0.13001  0.69784  0.02890  Biso   1.000  C
  N200     1.0000 0.17088  0.72331  0.08510  Biso   1.000  N
  H294     1.0000 0.22267  0.70413  0.08742  Biso   1.000  H
  O99      1.0000 0.04859  0.69607  0.80426  Biso   1.000  O
  H295     1.0000 0.10625  0.62401  0.84061  Biso   1.000  H
  H296     1.0000 0.07175  0.64081  0.89024  Biso   1.000  H
  C301     1.0000 0.04488  0.71183  0.57954  Biso   1.000  C
  N201     1.0000 0.13938  0.80001  0.46826  Biso   1.000  N
  H297     1.0000 0.19005  0.78483  0.42527  Biso   1.000  H
  H298     1.0000 0.13726  0.74342  0.39741  Biso   1.000  H
  N202     1.0000 0.27408  0.83753  0.10880  Biso   1.000  N
  H299     1.0000 0.28997  0.78601  0.13290  Biso   1.000  H
  H300     1.0000 0.31638  0.81882  0.03266  Biso   1.000  H
  O100     1.0000 0.09006  0.69114  0.05412  Biso   1.000  O
  C302     1.0000 0.17247  0.74561  0.18685  Biso   1.000  C
  N203     1.0000 0.06153  0.76159  0.55760  Biso   1.000  N
  H301     1.0000 0.01567  0.69902  0.62301  Biso   1.000  H
  H302     1.0000 0.03628  0.69413  0.51173  Biso   1.000  H
  C303     1.0000 0.08936  0.78684  0.46425  Biso   1.000  C
  C304     1.0000 0.16871  0.84825  0.47642  Biso   1.000  C
  C305     1.0000 0.29168  0.88153  0.06020  Biso   1.000  C
  C306     1.0000 0.24267  0.83192  0.19790  Biso   1.000  C
  N204     1.0000 0.19207  0.79684  0.18253  Biso   1.000  N
  H303     1.0000 0.13965  0.73083  0.21552  Biso   1.000  H
  H304     1.0000 0.19168  0.73874  0.23705  Biso   1.000  H
  C307     1.0000 0.04167  0.78511  0.60644  Biso   1.000  C
  H305     1.0000 0.07388  0.76914  0.39765  Biso   1.000  H
  C308     1.0000 0.09066  0.83473  0.46874  Biso   1.000  C
  O101     1.0000 0.21262  0.86991  0.47386  Biso   1.000  O
  N205     1.0000 0.14125  0.86980  0.48411  Biso   1.000  N
  O102     1.0000 0.32161  0.89689  0.98815  Biso   1.000  O
  N206     1.0000 0.27179  0.90506  0.10904  Biso   1.000  N
  C309     1.0000 0.24396  0.87980  0.20247  Biso   1.000  C
  H306     1.0000 0.25478  0.82573  0.26547  Biso   1.000  H
  C310     1.0000 0.16465  0.81839  0.19022  Biso   1.000  C
  O103     1.0000 0.01171  0.76975  0.67857  Biso   1.000  O
  N207     1.0000 0.05925  0.82911  0.55784  Biso   1.000  N
  H307     1.0000 0.07858  0.84091  0.40125  Biso   1.000  H
  C311     1.0000 0.16088  0.92103  0.47987  Biso   1.000  C
  C312     1.0000 0.28847  0.95482  0.08710  Biso   1.000  C
  N208     1.0000 0.19394  0.86664  0.19846  Biso   1.000  N
  H308     1.0000 0.25945  0.89750  0.26907  Biso   1.000  H
  O104     1.0000 0.12070  0.79673  0.19286  Biso   1.000  O
  C313     1.0000 0.04767  0.86441  0.59571  Biso   1.000  C
  N209     1.0000 0.16244  0.94334  0.58154  Biso   1.000  N
  H309     1.0000 0.19367  0.93582  0.45112  Biso   1.000  H
  H310     1.0000 0.14167  0.92790  0.42967  Biso   1.000  H
  N210     1.0000 0.25412  0.96338  0.03234  Biso   1.000  N
  H311     1.0000 0.31765  0.96762  0.04363  Biso   1.000  H
  H312     1.0000 0.29708  0.97252  0.15491  Biso   1.000  H
  C314     1.0000 0.17635  0.89981  0.21423  Biso   1.000  C
  N211     1.0000 0.08343  0.90053  0.66576  Biso   1.000  N
  H313     1.0000 0.04338  0.88063  0.53374  Biso   1.000  H
  H314     1.0000 0.01698  0.84782  0.63406  Biso   1.000  H
  C315     1.0000 0.12236  0.94611  0.62765  Biso   1.000  C
  C316     1.0000 0.20331  0.96881  0.63774  Biso   1.000  C
  C317     1.0000 0.25746  0.97324  0.92635  Biso   1.000  C
  C318     1.0000 0.21820  0.97036  0.08542  Biso   1.000  C
  N212     1.0000 0.17663  0.92567  0.11961  Biso   1.000  N
  H315     1.0000 0.14327  0.88182  0.24145  Biso   1.000  H
  H316     1.0000 0.19607  0.92323  0.26923  Biso   1.000  H
  C319     1.0000 0.07885  0.89992  0.77496  Biso   1.000  C
  H317     1.0000 0.11065  0.96251  0.57922  Biso   1.000  H
  C320     1.0000 0.14475  0.97532  0.73141  Biso   1.000  C
  O105     1.0000 0.24327  0.97550  0.61252  Biso   1.000  O
  N213     1.0000 0.19407  0.98741  0.72580  Biso   1.000  N
  O106     1.0000 0.28473  0.97057  0.86246  Biso   1.000  O
  N214     1.0000 0.22442  0.98698  0.90161  Biso   1.000  N
  C321     1.0000 0.19836  0.98820  0.99616  Biso   1.000  C
  H318     1.0000 0.23205  0.99381  0.14474  Biso   1.000  H
  C322     1.0000 0.13523  0.91740  0.06781  Biso   1.000  C
  O107     1.0000 0.04722  0.86707  0.82716  Biso   1.000  O
  N215     1.0000 0.11600  0.94143  0.81483  Biso   1.000  N
  H319     1.0000 0.14187  0.00464  0.73373  Biso   1.000  H
  C323     1.0000 0.22953  0.01439  0.80650  Biso   1.000  C
  N216     1.0000 0.14840  0.95345  0.99488  Biso   1.000  N
  H320     1.0000 0.20416  0.02105  0.01073  Biso   1.000  H
  O108     1.0000 0.09497  0.88448  0.08694  Biso   1.000  O
  C324     1.0000 0.11467  0.95622  0.92330  Biso   1.000  C
  H321     1.0000 0.22707  0.04263  0.82603  Biso   1.000  H
  H322     1.0000 0.26158  0.02583  0.77648  Biso   1.000  H
  H323     1.0000 0.12105  0.98942  0.92226  Biso   1.000  H
  H324     1.0000 0.08206  0.93593  0.95173  Biso   1.000  H
  Ne1      1.0000 0.33333  0.16666  0.16667  Biso   1.000  Ne
  He1      1.0000 0.38860  0.27648  0.30661  Biso   1.000  He
  He2      1.0000 0.28929  0.08113  0.05001  Biso   1.000  He
  Ar1      1.0000 0.33333  0.16666  0.16667  Biso   1.000  Ar
  Ne2      1.0000 0.16667  0.33333  0.83334  Biso   1.000  Ne
  He3      1.0000 0.21920  0.27323  0.96243  Biso   1.000  He
  He4      1.0000 0.11189  0.38882  0.69299  Biso   1.000  He
  Ar2      1.0000 0.16666  0.33333  0.83334  Biso   1.000  Ar
  Ne3      1.0000 0.49999  0.50000  0.50000  Biso   1.000  Ne
  He5      1.0000 0.39468  0.44787  0.63562  Biso   1.000  He
  He6      1.0000 0.58347  0.54036  0.38537  Biso   1.000  He
  Ar3      1.0000 0.50000  0.50000  0.50001  Biso   1.000  Ar
  Ne4      1.0000 0.83332  0.66666  0.16667  Biso   1.000  Ne
  He7      1.0000 0.88522  0.60521  0.29249  Biso   1.000  He
  He8      1.0000 0.77852  0.72213  0.02622  Biso   1.000  He
  Ar4      1.0000 0.83331  0.66666  0.16667  Biso   1.000  Ar
  Ne5      1.0000 0.66666  0.83332  0.83334  Biso   1.000  Ne
  He9      1.0000 0.72194  0.94316  0.97334  Biso   1.000  He
  He10     1.0000 0.62261  0.74781  0.71676  Biso   1.000  He
  Ar5      1.0000 0.66666  0.83332  0.83334  Biso   1.000  Ar
  Ne6      1.0000 0.83332  0.16667  0.16667  Biso   1.000  Ne
  He11     1.0000 0.75356  0.12833  0.27768  Biso   1.000  He
  He12     1.0000 0.91681  0.20705  0.05201  Biso   1.000  He
  Ar6      1.0000 0.83332  0.16666  0.16667  Biso   1.000  Ar
  Ne7      1.0000 0.99999  0.49999  0.50000  Biso   1.000  Ne
  He13     1.0000 0.05528  0.60984  0.63997  Biso   1.000  He
  He14     1.0000 0.95593  0.41448  0.38342  Biso   1.000  He
  Ar7      1.0000 0.99999  0.49999  0.50000  Biso   1.000  Ar
  Ne8      1.0000 0.16667  0.83332  0.83334  Biso   1.000  Ne
  He15     1.0000 0.06134  0.78119  0.96899  Biso   1.000  He
  He16     1.0000 0.25013  0.87368  0.71874  Biso   1.000  He
  Ar8      1.0000 0.16667  0.83333  0.83334  Biso   1.000  Ar
  Ne9      1.0000 0.49999  0.99999  0.50000  Biso   1.000  Ne
  He17     1.0000 0.55254  0.93988  0.62907  Biso   1.000  He
  He18     1.0000 0.44519  0.05547  0.35959  Biso   1.000  He
  Ar9      1.0000 0.49998  0.99999  0.50001  Biso   1.000  Ar
