data_image0
_cell_length_a       31.812
_cell_length_b       31.812
_cell_length_c       12.334
_cell_angle_alpha    90
_cell_angle_beta     90
_cell_angle_gamma    120

_symmetry_space_group_name_H-M    "P 1"
_symmetry_int_tables_number       1

loop_
  _symmetry_equiv_pos_as_xyz
  'x, y, z'

loop_
  _atom_site_label
  _atom_site_occupancy
  _atom_site_fract_x
  _atom_site_fract_y
  _atom_site_fract_z
  _atom_site_thermal_displace_type
  _atom_site_B_iso_or_equiv
  _atom_site_type_symbol
  O1       1.0000 0.37227  0.36537  0.46757  Biso   1.000  O
  C1       1.0000 0.39844  0.36276  0.39719  Biso   1.000  C
  N1       1.0000 0.40250  0.37855  0.29350  Biso   1.000  N
  N2       1.0000 0.42707  0.34283  0.41219  Biso   1.000  N
  C2       1.0000 0.36911  0.39143  0.24639  Biso   1.000  C
  C3       1.0000 0.43425  0.36813  0.23050  Biso   1.000  C
  C4       1.0000 0.45122  0.34265  0.31263  Biso   1.000  C
  C5       1.0000 0.42184  0.31230  0.50341  Biso   1.000  C
  N3       1.0000 0.38909  0.44258  0.22985  Biso   1.000  N
  H1       1.0000 0.35793  0.37466  0.17569  Biso   1.000  H
  H2       1.0000 0.34033  0.37946  0.29415  Biso   1.000  H
  N4       1.0000 0.47929  0.41074  0.19856  Biso   1.000  N
  H3       1.0000 0.41712  0.34675  0.16710  Biso   1.000  H
  N5       1.0000 0.50372  0.37434  0.31433  Biso   1.000  N
  H4       1.0000 0.44173  0.30897  0.28928  Biso   1.000  H
  N6       1.0000 0.45953  0.33601  0.58416  Biso   1.000  N
  H5       1.0000 0.42211  0.28305  0.47689  Biso   1.000  H
  H6       1.0000 0.38991  0.30145  0.53794  Biso   1.000  H
  C6       1.0000 0.37509  0.47016  0.28807  Biso   1.000  C
  C7       1.0000 0.41860  0.46828  0.13670  Biso   1.000  C
  C8       1.0000 0.51922  0.41176  0.24226  Biso   1.000  C
  C9       1.0000 0.48195  0.44178  0.11140  Biso   1.000  C
  C10      1.0000 0.53534  0.36377  0.37766  Biso   1.000  C
  C11      1.0000 0.45344  0.35677  0.67375  Biso   1.000  C
  C12      1.0000 0.50792  0.34327  0.57524  Biso   1.000  C
  O2       1.0000 0.34667  0.45608  0.36266  Biso   1.000  O
  N7       1.0000 0.39568  0.51517  0.24120  Biso   1.000  N
  N8       1.0000 0.46815  0.47735  0.13937  Biso   1.000  N
  H7       1.0000 0.40203  0.45256  0.06713  Biso   1.000  H
  C13      1.0000 0.42478  0.51906  0.14837  Biso   1.000  C
  O3       1.0000 0.56161  0.44040  0.21858  Biso   1.000  O
  H8       1.0000 0.46063  0.42138  0.05189  Biso   1.000  H
  H9       1.0000 0.51552  0.45906  0.08335  Biso   1.000  H
  N9       1.0000 0.53816  0.37659  0.49084  Biso   1.000  N
  H10      1.0000 0.56832  0.38145  0.34604  Biso   1.000  H
  H11      1.0000 0.52383  0.32857  0.37214  Biso   1.000  H
  O4       1.0000 0.41586  0.35543  0.70415  Biso   1.000  O
  N10      1.0000 0.49568  0.37706  0.73310  Biso   1.000  N
  C14      1.0000 0.53255  0.36958  0.68129  Biso   1.000  C
  H12      1.0000 0.50714  0.31147  0.56948  Biso   1.000  H
  C15      1.0000 0.38777  0.55274  0.28344  Biso   1.000  C
  C16      1.0000 0.50093  0.52555  0.14934  Biso   1.000  C
  N11      1.0000 0.47629  0.55009  0.15899  Biso   1.000  N
  H13      1.0000 0.41263  0.52777  0.08213  Biso   1.000  H
  C17      1.0000 0.57884  0.41557  0.53430  Biso   1.000  C
  C18      1.0000 0.49913  0.39735  0.83898  Biso   1.000  C
  N12      1.0000 0.57496  0.41296  0.64545  Biso   1.000  N
  H14      1.0000 0.54131  0.34926  0.72758  Biso   1.000  H
  N13      1.0000 0.42504  0.58704  0.35455  Biso   1.000  N
  H15      1.0000 0.35657  0.53724  0.32333  Biso   1.000  H
  H16      1.0000 0.38449  0.57074  0.22166  Biso   1.000  H
  O5       1.0000 0.54523  0.54363  0.14553  Biso   1.000  O
  C19      1.0000 0.50087  0.60265  0.16102  Biso   1.000  C
  O6       1.0000 0.61344  0.44599  0.48176  Biso   1.000  O
  N14      1.0000 0.52371  0.44991  0.84101  Biso   1.000  N
  H17      1.0000 0.46593  0.38446  0.86833  Biso   1.000  H
  H18      1.0000 0.51663  0.38646  0.88730  Biso   1.000  H
  C20      1.0000 0.61223  0.44726  0.71656  Biso   1.000  C
  C21      1.0000 0.46745  0.63042  0.31871  Biso   1.000  C
  C22      1.0000 0.42116  0.58443  0.46570  Biso   1.000  C
  N15      1.0000 0.50432  0.62294  0.26690  Biso   1.000  N
  H19      1.0000 0.53407  0.61554  0.13167  Biso   1.000  H
  H20      1.0000 0.48337  0.61354  0.11270  Biso   1.000  H
  C23      1.0000 0.57522  0.48094  0.85163  Biso   1.000  C
  C24      1.0000 0.49907  0.47445  0.85066  Biso   1.000  C
  N16      1.0000 0.60432  0.48483  0.75880  Biso   1.000  N
  H21      1.0000 0.64343  0.46276  0.67667  Biso   1.000  H
  H22      1.0000 0.61551  0.42926  0.77834  Biso   1.000  H
  H23      1.0000 0.45869  0.65074  0.27242  Biso   1.000  H
  C25      1.0000 0.49208  0.65673  0.42476  Biso   1.000  C
  O7       1.0000 0.38656  0.55401  0.51824  Biso   1.000  O
  N17      1.0000 0.46184  0.62341  0.50916  Biso   1.000  N
  C26      1.0000 0.54656  0.64323  0.32625  Biso   1.000  C
  C27      1.0000 0.58140  0.53172  0.86330  Biso   1.000  C
  H24      1.0000 0.58737  0.47223  0.91787  Biso   1.000  H
  O8       1.0000 0.45477  0.45637  0.85447  Biso   1.000  O
  N18      1.0000 0.53185  0.52265  0.86063  Biso   1.000  N
  C28      1.0000 0.62491  0.52984  0.71193  Biso   1.000  C
  N19      1.0000 0.54047  0.66399  0.41584  Biso   1.000  N
  H25      1.0000 0.49286  0.68853  0.43052  Biso   1.000  H
  C29      1.0000 0.46466  0.63623  0.62234  Biso   1.000  C
  O9       1.0000 0.58414  0.64457  0.29585  Biso   1.000  O
  N20      1.0000 0.61091  0.55742  0.77015  Biso   1.000  N
  H26      1.0000 0.59797  0.54744  0.93287  Biso   1.000  H
  C30      1.0000 0.51805  0.55822  0.88860  Biso   1.000  C
  O10      1.0000 0.65333  0.54392  0.63734  Biso   1.000  O
  C31      1.0000 0.57816  0.68770  0.49659  Biso   1.000  C
  N21      1.0000 0.49628  0.62566  0.68567  Biso   1.000  N
  H27      1.0000 0.43168  0.61855  0.65396  Biso   1.000  H
  H28      1.0000 0.47617  0.67143  0.62786  Biso   1.000  H
  C32      1.0000 0.63089  0.60857  0.75361  Biso   1.000  C
  N22      1.0000 0.52071  0.58926  0.80144  Biso   1.000  N
  H29      1.0000 0.53937  0.57862  0.94811  Biso   1.000  H
  H30      1.0000 0.48448  0.54094  0.91665  Biso   1.000  H
  N23      1.0000 0.57293  0.65717  0.58781  Biso   1.000  N
  H31      1.0000 0.57789  0.71695  0.52311  Biso   1.000  H
  H32      1.0000 0.61009  0.69855  0.46206  Biso   1.000  H
  C33      1.0000 0.54878  0.65735  0.68737  Biso   1.000  C
  C34      1.0000 0.48078  0.58824  0.75774  Biso   1.000  C
  N24      1.0000 0.59750  0.62145  0.70650  Biso   1.000  N
  H33      1.0000 0.64207  0.62534  0.82431  Biso   1.000  H
  H34      1.0000 0.65967  0.62054  0.70585  Biso   1.000  H
  C35      1.0000 0.56575  0.63187  0.76950  Biso   1.000  C
  C36      1.0000 0.60156  0.63724  0.60281  Biso   1.000  C
  H35      1.0000 0.55827  0.69103  0.71072  Biso   1.000  H
  O11      1.0000 0.43839  0.55960  0.78142  Biso   1.000  O
  H36      1.0000 0.58288  0.65325  0.83290  Biso   1.000  H
  O12      1.0000 0.62773  0.63463  0.53243  Biso   1.000  O
  C37      1.0000 0.32399  0.44189  0.64602  Biso   1.000  C
  C38      1.0000 0.29856  0.39946  0.56381  Biso   1.000  C
  N25      1.0000 0.32383  0.41757  0.74550  Biso   1.000  N
  N26      1.0000 0.29234  0.46272  0.64772  Biso   1.000  N
  H37      1.0000 0.35769  0.46610  0.62259  Biso   1.000  H
  N27      1.0000 0.28809  0.35728  0.62680  Biso   1.000  N
  N28      1.0000 0.25592  0.40189  0.53186  Biso   1.000  N
  H38      1.0000 0.31989  0.40370  0.50041  Biso   1.000  H
  C39      1.0000 0.30389  0.36900  0.73050  Biso   1.000  C
  C40      1.0000 0.35437  0.44287  0.83671  Biso   1.000  C
  C41      1.0000 0.25491  0.44080  0.57556  Biso   1.000  C
  C42      1.0000 0.30290  0.50490  0.71096  Biso   1.000  C
  C43      1.0000 0.27523  0.31100  0.57970  Biso   1.000  C
  C44      1.0000 0.22491  0.37350  0.44471  Biso   1.000  C
  O13      1.0000 0.30129  0.34022  0.80088  Biso   1.000  O
  N29      1.0000 0.33065  0.45684  0.91746  Biso   1.000  N
  H39      1.0000 0.38360  0.47241  0.81020  Biso   1.000  H
  H40      1.0000 0.36522  0.42181  0.87133  Biso   1.000  H
  O14      1.0000 0.22625  0.45452  0.55189  Biso   1.000  O
  N30      1.0000 0.29007  0.49488  0.82423  Biso   1.000  N
  H41      1.0000 0.28519  0.52022  0.67942  Biso   1.000  H
  H42      1.0000 0.33811  0.52860  0.70553  Biso   1.000  H
  N31      1.0000 0.22408  0.27985  0.56324  Biso   1.000  N
  H43      1.0000 0.29199  0.31659  0.50900  Biso   1.000  H
  H44      1.0000 0.28720  0.29419  0.62753  Biso   1.000  H
  N32      1.0000 0.18932  0.32414  0.47268  Biso   1.000  N
  H45      1.0000 0.24530  0.37260  0.38520  Biso   1.000  H
  H46      1.0000 0.20760  0.38980  0.41673  Biso   1.000  H
  C45      1.0000 0.32341  0.49800  0.90863  Biso   1.000  C
  C46      1.0000 0.30991  0.43002  0.00713  Biso   1.000  C
  C47      1.0000 0.25109  0.49659  0.86760  Biso   1.000  C
  C48      1.0000 0.19842  0.28367  0.47000  Biso   1.000  C
  C49      1.0000 0.19649  0.23826  0.62137  Biso   1.000  C
  C50      1.0000 0.14109  0.30871  0.48273  Biso   1.000  C
  H47      1.0000 0.35519  0.52900  0.90279  Biso   1.000  H
  C51      1.0000 0.29709  0.49630  0.01459  Biso   1.000  C
  O15      1.0000 0.31124  0.39376  0.03754  Biso   1.000  O
  N33      1.0000 0.28959  0.45194  0.06640  Biso   1.000  N
  O16      1.0000 0.22068  0.50076  0.81506  Biso   1.000  O
  N34      1.0000 0.25371  0.49535  0.97884  Biso   1.000  N
  H48      1.0000 0.21411  0.28279  0.40052  Biso   1.000  H
  C52      1.0000 0.14760  0.23906  0.48168  Biso   1.000  C
  N35      1.0000 0.15151  0.21387  0.57451  Biso   1.000  N
  O17      1.0000 0.21059  0.22396  0.69596  Biso   1.000  O
  N36      1.0000 0.11659  0.25953  0.49230  Biso   1.000  N
  O18      1.0000 0.12301  0.33492  0.47892  Biso   1.000  O
  H49      1.0000 0.31740  0.52541  0.06089  Biso   1.000  H
  C53      1.0000 0.26929  0.43510  0.17229  Biso   1.000  C
  C54      1.0000 0.21941  0.49829  0.04986  Biso   1.000  C
  H50      1.0000 0.13889  0.21819  0.41552  Biso   1.000  H
  C55      1.0000 0.11393  0.16838  0.61675  Biso   1.000  C
  C56      1.0000 0.06405  0.23158  0.49441  Biso   1.000  C
  N37      1.0000 0.21675  0.40715  0.17440  Biso   1.000  N
  H51      1.0000 0.28222  0.41481  0.20172  Biso   1.000  H
  H52      1.0000 0.28018  0.46348  0.22061  Biso   1.000  H
  N38      1.0000 0.18183  0.45281  0.09218  Biso   1.000  N
  H53      1.0000 0.20391  0.51401  0.00997  Biso   1.000  H
  H54      1.0000 0.23739  0.51960  0.11172  Biso   1.000  H
  N39      1.0000 0.07963  0.17132  0.68785  Biso   1.000  N
  H55      1.0000 0.12943  0.15267  0.65664  Biso   1.000  H
  H56      1.0000 0.09595  0.14708  0.55497  Biso   1.000  H
  N40      1.0000 0.04373  0.21470  0.60029  Biso   1.000  N
  H57      1.0000 0.05112  0.25187  0.46497  Biso   1.000  H
  H58      1.0000 0.05314  0.20316  0.44608  Biso   1.000  H
  C57      1.0000 0.18574  0.42762  0.18494  Biso   1.000  C
  C58      1.0000 0.19225  0.35797  0.18396  Biso   1.000  C
  C59      1.0000 0.13683  0.42838  0.04524  Biso   1.000  C
  C60      1.0000 0.03625  0.17038  0.65210  Biso   1.000  C
  C61      1.0000 0.08223  0.17005  0.79909  Biso   1.000  C
  C62      1.0000 0.02343  0.23666  0.65956  Biso   1.000  C
  C63      1.0000 0.13492  0.38301  0.19669  Biso   1.000  C
  H59      1.0000 0.19443  0.44846  0.25118  Biso   1.000  H
  N41      1.0000 0.14402  0.34254  0.19394  Biso   1.000  N
  O19      1.0000 0.21031  0.33172  0.18777  Biso   1.000  O
  N42      1.0000 0.10926  0.38682  0.10345  Biso   1.000  N
  O20      1.0000 0.12275  0.44272  0.97065  Biso   1.000  O
  H60      1.0000 0.01594  0.14127  0.60581  Biso   1.000  H
  C64      1.0000 0.00993  0.16868  0.75807  Biso   1.000  C
  O21      1.0000 0.11265  0.16588  0.85155  Biso   1.000  O
  N43      1.0000 0.04325  0.17176  0.84247  Biso   1.000  N
  O22      1.0000 0.02210  0.27292  0.62916  Biso   1.000  O
  N44      1.0000 0.00267  0.20980  0.74915  Biso   1.000  N
  H61      1.0000 0.11923  0.38388  0.26617  Biso   1.000  H
  C65      1.0000 0.10843  0.29318  0.22199  Biso   1.000  C
  C66      1.0000 0.05809  0.35564  0.08700  Biso   1.000  C
  H62      1.0000 0.97815  0.13768  0.76390  Biso   1.000  H
  C67      1.0000 0.03044  0.16178  0.95565  Biso   1.000  C
  C68      1.0000 0.97897  0.22381  0.82998  Biso   1.000  C
  N45      1.0000 0.07742  0.26479  0.13475  Biso   1.000  N
  H63      1.0000 0.08804  0.29408  0.28150  Biso   1.000  H
  H64      1.0000 0.12574  0.27688  0.24996  Biso   1.000  H
  N46      1.0000 0.04523  0.30936  0.03989  Biso   1.000  N
  H65      1.0000 0.04134  0.35005  0.15769  Biso   1.000  H
  H66      1.0000 0.04612  0.37245  0.03916  Biso   1.000  H
  H67      1.0000 0.04815  0.14646  0.98727  Biso   1.000  H
  H68      1.0000 0.99523  0.13808  0.96116  Biso   1.000  H
  N47      1.0000 0.04099  0.20396  0.01897  Biso   1.000  N
  N48      1.0000 0.00950  0.24911  0.92119  Biso   1.000  N
  H69      1.0000 0.94974  0.19426  0.85649  Biso   1.000  H
  H70      1.0000 0.96812  0.24486  0.79536  Biso   1.000  H
  C69      1.0000 0.07842  0.22588  0.09105  Biso   1.000  C
  C70      1.0000 0.03476  0.26719  0.10289  Biso   1.000  C
  C71      1.0000 0.02945  0.29768  0.93619  Biso   1.000  C
  C72      1.0000 0.00933  0.22475  0.02067  Biso   1.000  C
  O23      1.0000 0.10707  0.21212  0.11480  Biso   1.000  O
  H71      1.0000 0.01345  0.26298  0.16629  Biso   1.000  H
  O24      1.0000 0.03205  0.32646  0.86574  Biso   1.000  O
  H72      1.0000 0.97565  0.20058  0.04411  Biso   1.000  H
  O25      1.0000 0.27290  0.25082  0.37084  Biso   1.000  O
  C73      1.0000 0.23667  0.21325  0.34044  Biso   1.000  C
  N49      1.0000 0.20982  0.20715  0.25085  Biso   1.000  N
  N50      1.0000 0.21473  0.17100  0.39971  Biso   1.000  N
  C74      1.0000 0.22379  0.24483  0.17002  Biso   1.000  C
  C75      1.0000 0.16867  0.15873  0.24193  Biso   1.000  C
  C76      1.0000 0.17035  0.13412  0.34790  Biso   1.000  C
  C77      1.0000 0.23158  0.16755  0.50559  Biso   1.000  C
  N51      1.0000 0.24909  0.23960  0.07881  Biso   1.000  N
  H73      1.0000 0.19425  0.24454  0.14351  Biso   1.000  H
  H74      1.0000 0.24487  0.27673  0.20464  Biso   1.000  H
  N52      1.0000 0.17177  0.12853  0.15753  Biso   1.000  N
  H75      1.0000 0.13767  0.15953  0.23610  Biso   1.000  H
  N53      1.0000 0.17132  0.09172  0.31215  Biso   1.000  N
  H76      1.0000 0.14125  0.12534  0.39419  Biso   1.000  H
  N54      1.0000 0.25951  0.14294  0.50770  Biso   1.000  N
  H77      1.0000 0.25188  0.20073  0.53503  Biso   1.000  H
  H78      1.0000 0.20317  0.15002  0.55392  Biso   1.000  H
  C78      1.0000 0.29767  0.26824  0.06381  Biso   1.000  C
  C79      1.0000 0.22478  0.21543  0.97933  Biso   1.000  C
  C80      1.0000 0.17007  0.08784  0.20091  Biso   1.000  C
  C81      1.0000 0.16176  0.13132  0.04435  Biso   1.000  C
  C82      1.0000 0.16836  0.05445  0.38325  Biso   1.000  C
  C83      1.0000 0.23904  0.09143  0.51832  Biso   1.000  C
  C84      1.0000 0.30871  0.16759  0.51727  Biso   1.000  C
  O26      1.0000 0.32645  0.29441  0.13426  Biso   1.000  O
  N55      1.0000 0.30936  0.26414  0.96011  Biso   1.000  N
  N56      1.0000 0.20394  0.16294  0.98103  Biso   1.000  N
  H79      1.0000 0.20058  0.22494  0.95589  Biso   1.000  H
  C85      1.0000 0.26719  0.23241  0.89711  Biso   1.000  C
  O27      1.0000 0.16591  0.05325  0.14845  Biso   1.000  O
  H80      1.0000 0.14646  0.09833  0.01273  Biso   1.000  H
  H81      1.0000 0.13806  0.14283  0.03884  Biso   1.000  H
  N57      1.0000 0.21385  0.06236  0.42549  Biso   1.000  N
  H82      1.0000 0.15266  0.02323  0.34336  Biso   1.000  H
  H83      1.0000 0.14707  0.05114  0.44503  Biso   1.000  H
  C86      1.0000 0.28364  0.08526  0.53000  Biso   1.000  C
  H84      1.0000 0.21820  0.07931  0.58448  Biso   1.000  H
  O28      1.0000 0.33492  0.21191  0.52108  Biso   1.000  O
  N58      1.0000 0.32413  0.13481  0.52732  Biso   1.000  N
  C87      1.0000 0.35566  0.29757  0.91300  Biso   1.000  C
  C88      1.0000 0.22586  0.14744  0.90895  Biso   1.000  C
  N59      1.0000 0.26478  0.18737  0.86525  Biso   1.000  N
  H85      1.0000 0.26296  0.24955  0.83371  Biso   1.000  H
  C89      1.0000 0.23826  0.04178  0.37863  Biso   1.000  C
  N60      1.0000 0.27983  0.05575  0.43676  Biso   1.000  N
  H86      1.0000 0.28282  0.06871  0.59948  Biso   1.000  H
  C90      1.0000 0.37350  0.14860  0.55529  Biso   1.000  C
  N61      1.0000 0.38684  0.27757  0.89655  Biso   1.000  N
  H87      1.0000 0.35009  0.30875  0.84231  Biso   1.000  H
  H88      1.0000 0.37245  0.32632  0.96084  Biso   1.000  H
  O29      1.0000 0.21215  0.10505  0.88520  Biso   1.000  O
  C91      1.0000 0.29316  0.18472  0.77801  Biso   1.000  C
  O30      1.0000 0.22392  0.01336  0.30404  Biso   1.000  O
  C92      1.0000 0.31100  0.03575  0.42030  Biso   1.000  C
  N62      1.0000 0.40188  0.14595  0.46814  Biso   1.000  N
  H89      1.0000 0.37259  0.12730  0.61480  Biso   1.000  H
  H90      1.0000 0.38980  0.18221  0.58327  Biso   1.000  H
  C93      1.0000 0.42842  0.29158  0.95476  Biso   1.000  C
  C94      1.0000 0.38304  0.24809  0.80331  Biso   1.000  C
  N63      1.0000 0.34255  0.19855  0.80606  Biso   1.000  N
  H91      1.0000 0.29407  0.20603  0.71850  Biso   1.000  H
  H92      1.0000 0.27688  0.15114  0.75004  Biso   1.000  H
  N64      1.0000 0.35730  0.06918  0.37320  Biso   1.000  N
  H93      1.0000 0.31659  0.02461  0.49100  Biso   1.000  H
  H94      1.0000 0.29421  0.00701  0.37247  Biso   1.000  H
  C95      1.0000 0.39947  0.10091  0.43619  Biso   1.000  C
  C96      1.0000 0.44081  0.18592  0.42444  Biso   1.000  C
  O31      1.0000 0.44274  0.31996  0.02935  Biso   1.000  O
  N65      1.0000 0.45283  0.27100  0.90782  Biso   1.000  N
  H95      1.0000 0.38386  0.26465  0.73383  Biso   1.000  H
  C97      1.0000 0.42762  0.24189  0.81506  Biso   1.000  C
  C98      1.0000 0.35795  0.16574  0.81604  Biso   1.000  C
  C99      1.0000 0.36900  0.06512  0.26950  Biso   1.000  C
  C100     1.0000 0.44188  0.11789  0.35398  Biso   1.000  C
  H96      1.0000 0.40372  0.08381  0.49959  Biso   1.000  H
  O32      1.0000 0.45451  0.22828  0.44811  Biso   1.000  O
  N66      1.0000 0.46272  0.17038  0.35228  Biso   1.000  N
  C101     1.0000 0.49831  0.27891  0.95014  Biso   1.000  C
  N67      1.0000 0.40715  0.19038  0.82560  Biso   1.000  N
  H97      1.0000 0.44847  0.25405  0.74882  Biso   1.000  H
  O33      1.0000 0.33174  0.12142  0.81223  Biso   1.000  O
  O34      1.0000 0.34023  0.03895  0.19912  Biso   1.000  O
  N68      1.0000 0.41759  0.09376  0.25450  Biso   1.000  N
  H98      1.0000 0.46608  0.10838  0.37741  Biso   1.000  H
  C102     1.0000 0.50490  0.20200  0.28904  Biso   1.000  C
  N69      1.0000 0.49536  0.24163  0.02116  Biso   1.000  N
  H99      1.0000 0.51400  0.31009  0.99003  Biso   1.000  H
  H100     1.0000 0.51961  0.28221  0.88828  Biso   1.000  H
  C103     1.0000 0.43510  0.16581  0.82771  Biso   1.000  C
  C104     1.0000 0.44287  0.08849  0.16329  Biso   1.000  C
  N70      1.0000 0.49491  0.20483  0.17577  Biso   1.000  N
  H101     1.0000 0.52021  0.23499  0.32058  Biso   1.000  H
  H102     1.0000 0.52860  0.19049  0.29447  Biso   1.000  H
  C105     1.0000 0.49661  0.24552  0.13240  Biso   1.000  C
  C106     1.0000 0.49631  0.19920  0.98541  Biso   1.000  C
  N71      1.0000 0.45195  0.16236  0.93360  Biso   1.000  N
  H103     1.0000 0.41478  0.13260  0.79828  Biso   1.000  H
  H104     1.0000 0.46349  0.18330  0.77939  Biso   1.000  H
  N72      1.0000 0.45685  0.12621  0.08254  Biso   1.000  N
  H105     1.0000 0.47241  0.08878  0.18980  Biso   1.000  H
  H106     1.0000 0.42179  0.05659  0.12867  Biso   1.000  H
  C107     1.0000 0.49799  0.17459  0.09137  Biso   1.000  C
  O35      1.0000 0.50077  0.28011  0.18494  Biso   1.000  O
  H107     1.0000 0.52541  0.20799  0.93911  Biso   1.000  H
  C108     1.0000 0.43001  0.12011  0.99287  Biso   1.000  C
  H108     1.0000 0.52899  0.17379  0.09721  Biso   1.000  H
  O36      1.0000 0.39376  0.08250  0.96246  Biso   1.000  O
  C109     1.0000 0.67601  0.55811  0.35398  Biso   1.000  C
  N73      1.0000 0.67617  0.58243  0.25450  Biso   1.000  N
  N74      1.0000 0.70766  0.53728  0.35228  Biso   1.000  N
  H109     1.0000 0.64231  0.53390  0.37741  Biso   1.000  H
  C110     1.0000 0.70144  0.60054  0.43619  Biso   1.000  C
  C111     1.0000 0.64563  0.55713  0.16329  Biso   1.000  C
  C112     1.0000 0.69611  0.63100  0.26950  Biso   1.000  C
  C113     1.0000 0.69710  0.49510  0.28904  Biso   1.000  C
  C114     1.0000 0.74509  0.55920  0.42444  Biso   1.000  C
  N75      1.0000 0.71191  0.64272  0.37320  Biso   1.000  N
  N76      1.0000 0.74408  0.59811  0.46814  Biso   1.000  N
  H110     1.0000 0.68011  0.59630  0.49959  Biso   1.000  H
  N77      1.0000 0.66935  0.54316  0.08254  Biso   1.000  N
  H111     1.0000 0.61640  0.52759  0.18980  Biso   1.000  H
  H112     1.0000 0.63478  0.57819  0.12867  Biso   1.000  H
  O37      1.0000 0.69871  0.65978  0.19912  Biso   1.000  O
  N78      1.0000 0.70993  0.50512  0.17577  Biso   1.000  N
  H113     1.0000 0.71481  0.47978  0.32058  Biso   1.000  H
  H114     1.0000 0.66189  0.47140  0.29447  Biso   1.000  H
  O38      1.0000 0.77375  0.54548  0.44811  Biso   1.000  O
  C115     1.0000 0.72477  0.68900  0.42030  Biso   1.000  C
  C116     1.0000 0.77509  0.62650  0.55529  Biso   1.000  C
  C117     1.0000 0.67659  0.50200  0.09137  Biso   1.000  C
  C118     1.0000 0.69011  0.57002  0.99287  Biso   1.000  C
  C119     1.0000 0.74891  0.50341  0.13240  Biso   1.000  C
  N79      1.0000 0.77592  0.72015  0.43676  Biso   1.000  N
  H115     1.0000 0.70801  0.68341  0.49100  Biso   1.000  H
  H116     1.0000 0.71280  0.70581  0.37247  Biso   1.000  H
  N80      1.0000 0.81068  0.67586  0.52732  Biso   1.000  N
  H117     1.0000 0.75470  0.62740  0.61480  Biso   1.000  H
  H118     1.0000 0.79240  0.61020  0.58327  Biso   1.000  H
  H119     1.0000 0.64481  0.47100  0.09721  Biso   1.000  H
  C120     1.0000 0.70291  0.50370  0.98541  Biso   1.000  C
  O39      1.0000 0.68876  0.60624  0.96246  Biso   1.000  O
  N81      1.0000 0.71041  0.54806  0.93360  Biso   1.000  N
  N82      1.0000 0.74629  0.50465  0.02116  Biso   1.000  N
  O40      1.0000 0.77932  0.49924  0.18494  Biso   1.000  O
  C121     1.0000 0.80351  0.76174  0.37863  Biso   1.000  C
  C122     1.0000 0.80158  0.71633  0.53000  Biso   1.000  C
  C123     1.0000 0.85891  0.69129  0.51727  Biso   1.000  C
  H120     1.0000 0.68260  0.47459  0.93911  Biso   1.000  H
  C124     1.0000 0.73071  0.56490  0.82771  Biso   1.000  C
  C125     1.0000 0.78059  0.50171  0.95014  Biso   1.000  C
  O41      1.0000 0.78941  0.77604  0.30404  Biso   1.000  O
  N83      1.0000 0.84849  0.78613  0.42549  Biso   1.000  N
  H121     1.0000 0.78589  0.71721  0.59948  Biso   1.000  H
  C126     1.0000 0.85240  0.76094  0.51832  Biso   1.000  C
  N84      1.0000 0.88341  0.74047  0.50770  Biso   1.000  N
  O42      1.0000 0.87699  0.66508  0.52108  Biso   1.000  O
  N85      1.0000 0.78325  0.59285  0.82560  Biso   1.000  N
  H122     1.0000 0.71778  0.58519  0.79828  Biso   1.000  H
  H123     1.0000 0.71982  0.53652  0.77939  Biso   1.000  H
  N86      1.0000 0.81817  0.54719  0.90782  Biso   1.000  N
  H124     1.0000 0.79609  0.48599  0.99003  Biso   1.000  H
  H125     1.0000 0.76261  0.48040  0.88828  Biso   1.000  H
  C127     1.0000 0.88607  0.83162  0.38325  Biso   1.000  C
  H126     1.0000 0.86111  0.78181  0.58448  Biso   1.000  H
  C128     1.0000 0.93595  0.76842  0.50559  Biso   1.000  C
  C129     1.0000 0.81426  0.57238  0.81506  Biso   1.000  C
  C130     1.0000 0.80775  0.64203  0.81604  Biso   1.000  C
  C131     1.0000 0.86317  0.57162  0.95476  Biso   1.000  C
  N87      1.0000 0.92037  0.82868  0.31215  Biso   1.000  N
  H127     1.0000 0.87057  0.84733  0.34336  Biso   1.000  H
  H128     1.0000 0.90405  0.85292  0.44503  Biso   1.000  H
  N88      1.0000 0.95627  0.78530  0.39971  Biso   1.000  N
  H129     1.0000 0.94888  0.74813  0.53503  Biso   1.000  H
  H130     1.0000 0.94686  0.79684  0.55392  Biso   1.000  H
  C132     1.0000 0.86508  0.61699  0.80331  Biso   1.000  C
  H131     1.0000 0.80557  0.55154  0.74882  Biso   1.000  H
  O43      1.0000 0.78969  0.66828  0.81223  Biso   1.000  O
  N89      1.0000 0.85598  0.65746  0.80606  Biso   1.000  N
  O44      1.0000 0.87725  0.55728  0.02935  Biso   1.000  O
  N90      1.0000 0.89074  0.61318  0.89655  Biso   1.000  N
  C133     1.0000 0.96375  0.82962  0.34790  Biso   1.000  C
  C134     1.0000 0.91777  0.82995  0.20091  Biso   1.000  C
  C135     1.0000 0.97657  0.76334  0.34044  Biso   1.000  C
  H132     1.0000 0.88077  0.61612  0.73383  Biso   1.000  H
  C136     1.0000 0.89157  0.70682  0.77801  Biso   1.000  C
  C137     1.0000 0.94191  0.64436  0.91300  Biso   1.000  C
  H133     1.0000 0.98406  0.85873  0.39419  Biso   1.000  H
  C138     1.0000 0.99007  0.83132  0.24193  Biso   1.000  C
  O45      1.0000 0.88735  0.83412  0.14845  Biso   1.000  O
  N91      1.0000 0.95675  0.82824  0.15753  Biso   1.000  N
  N92      1.0000 0.99733  0.79020  0.25085  Biso   1.000  N
  O46      1.0000 0.97790  0.72708  0.37084  Biso   1.000  O
  N93      1.0000 0.92258  0.73521  0.86525  Biso   1.000  N
  H134     1.0000 0.91196  0.70592  0.71850  Biso   1.000  H
  H135     1.0000 0.87426  0.72312  0.75004  Biso   1.000  H
  N94      1.0000 0.95477  0.69064  0.96011  Biso   1.000  N
  H136     1.0000 0.95866  0.64995  0.84231  Biso   1.000  H
  H137     1.0000 0.95388  0.62755  0.96084  Biso   1.000  H
  H138     1.0000 0.02185  0.86232  0.23610  Biso   1.000  H
  C139     1.0000 0.96956  0.83822  0.04435  Biso   1.000  C
  C140     1.0000 0.02103  0.77619  0.17002  Biso   1.000  C
  C141     1.0000 0.96524  0.73281  0.89711  Biso   1.000  C
  C142     1.0000 0.92158  0.77412  0.90895  Biso   1.000  C
  C143     1.0000 0.97055  0.70232  0.06381  Biso   1.000  C
  N95      1.0000 0.95901  0.79604  0.98103  Biso   1.000  N
  H139     1.0000 0.95185  0.85354  0.01273  Biso   1.000  H
  H140     1.0000 0.00477  0.86192  0.03884  Biso   1.000  H
  N96      1.0000 0.99050  0.75089  0.07881  Biso   1.000  N
  H141     1.0000 0.05026  0.80574  0.14351  Biso   1.000  H
  H142     1.0000 0.03188  0.75514  0.20464  Biso   1.000  H
  C144     1.0000 0.99067  0.77525  0.97933  Biso   1.000  C
  H143     1.0000 0.98655  0.73702  0.83371  Biso   1.000  H
  O47      1.0000 0.89293  0.78788  0.88520  Biso   1.000  O
  O48      1.0000 0.96795  0.67354  0.13426  Biso   1.000  O
  H144     1.0000 0.02435  0.79942  0.95589  Biso   1.000  H
  O49      1.0000 0.55726  0.68004  0.97065  Biso   1.000  O
  C145     1.0000 0.57158  0.70842  0.04524  Biso   1.000  C
  N97      1.0000 0.54717  0.72900  0.09218  Biso   1.000  N
  N98      1.0000 0.61316  0.72243  0.10345  Biso   1.000  N
  C146     1.0000 0.50169  0.72109  0.04986  Biso   1.000  C
  C147     1.0000 0.57238  0.75811  0.18494  Biso   1.000  C
  C148     1.0000 0.61696  0.75191  0.19669  Biso   1.000  C
  C149     1.0000 0.64434  0.70243  0.08700  Biso   1.000  C
  N99      1.0000 0.50464  0.75837  0.97884  Biso   1.000  N
  H145     1.0000 0.48600  0.68991  0.00997  Biso   1.000  H
  H146     1.0000 0.48039  0.71779  0.11172  Biso   1.000  H
  N100     1.0000 0.59285  0.80962  0.17440  Biso   1.000  N
  H147     1.0000 0.55153  0.74595  0.25118  Biso   1.000  H
  N101     1.0000 0.65745  0.80145  0.19394  Biso   1.000  N
  H148     1.0000 0.61614  0.73535  0.26617  Biso   1.000  H
  N102     1.0000 0.69064  0.73586  0.03989  Biso   1.000  N
  H149     1.0000 0.64991  0.69125  0.15769  Biso   1.000  H
  H150     1.0000 0.62755  0.67368  0.03916  Biso   1.000  H
  C150     1.0000 0.50339  0.75448  0.86760  Biso   1.000  C
  C151     1.0000 0.50369  0.80080  0.01459  Biso   1.000  C
  C152     1.0000 0.56490  0.83419  0.17229  Biso   1.000  C
  C153     1.0000 0.64205  0.83426  0.18396  Biso   1.000  C
  C154     1.0000 0.70684  0.81528  0.22199  Biso   1.000  C
  C155     1.0000 0.70233  0.73176  0.93619  Biso   1.000  C
  C156     1.0000 0.73281  0.76759  0.10289  Biso   1.000  C
  O50      1.0000 0.49923  0.71989  0.81506  Biso   1.000  O
  N103     1.0000 0.50509  0.79517  0.82423  Biso   1.000  N
  C157     1.0000 0.50201  0.82541  0.90863  Biso   1.000  C
  N104     1.0000 0.54805  0.83764  0.06640  Biso   1.000  N
  H151     1.0000 0.47459  0.79201  0.06089  Biso   1.000  H
  H152     1.0000 0.58522  0.86740  0.20172  Biso   1.000  H
  H153     1.0000 0.53651  0.81670  0.22061  Biso   1.000  H
  O51      1.0000 0.66826  0.87858  0.18777  Biso   1.000  O
  N105     1.0000 0.73522  0.81263  0.13475  Biso   1.000  N
  H154     1.0000 0.70593  0.79397  0.28150  Biso   1.000  H
  H155     1.0000 0.72312  0.84886  0.24996  Biso   1.000  H
  O52      1.0000 0.67355  0.70559  0.86574  Biso   1.000  O
  N106     1.0000 0.75091  0.76040  0.92119  Biso   1.000  N
  C158     1.0000 0.77522  0.78457  0.02067  Biso   1.000  C
  H156     1.0000 0.73704  0.75045  0.16629  Biso   1.000  H
  C159     1.0000 0.49510  0.79800  0.71096  Biso   1.000  C
  N107     1.0000 0.54315  0.87379  0.91746  Biso   1.000  N
  H157     1.0000 0.47101  0.82621  0.90279  Biso   1.000  H
  C160     1.0000 0.56999  0.87989  0.00713  Biso   1.000  C
  C161     1.0000 0.77414  0.85256  0.09105  Biso   1.000  C
  C162     1.0000 0.77621  0.75517  0.82998  Biso   1.000  C
  N108     1.0000 0.79606  0.83706  0.01897  Biso   1.000  N
  H158     1.0000 0.79942  0.77506  0.04411  Biso   1.000  H
  N109     1.0000 0.53728  0.82962  0.64772  Biso   1.000  N
  H159     1.0000 0.47979  0.76501  0.67942  Biso   1.000  H
  H160     1.0000 0.47140  0.80951  0.70553  Biso   1.000  H
  C163     1.0000 0.55713  0.91151  0.83671  Biso   1.000  C
  O53      1.0000 0.60624  0.91750  0.03754  Biso   1.000  O
  O54      1.0000 0.78785  0.89495  0.11480  Biso   1.000  O
  N110     1.0000 0.79018  0.79285  0.74915  Biso   1.000  N
  H161     1.0000 0.80575  0.75546  0.85649  Biso   1.000  H
  H162     1.0000 0.75513  0.72327  0.79536  Biso   1.000  H
  C164     1.0000 0.83824  0.86868  0.95565  Biso   1.000  C
  C165     1.0000 0.55812  0.88211  0.64602  Biso   1.000  C
  C166     1.0000 0.55919  0.81408  0.57556  Biso   1.000  C
  N111     1.0000 0.58241  0.90624  0.74550  Biso   1.000  N
  H163     1.0000 0.52759  0.91122  0.81020  Biso   1.000  H
  H164     1.0000 0.57821  0.94341  0.87133  Biso   1.000  H
  C167     1.0000 0.76333  0.78675  0.65956  Biso   1.000  C
  C168     1.0000 0.83133  0.84127  0.75807  Biso   1.000  C
  N112     1.0000 0.82823  0.87147  0.84247  Biso   1.000  N
  H165     1.0000 0.85354  0.90167  0.98727  Biso   1.000  H
  H166     1.0000 0.86194  0.85717  0.96116  Biso   1.000  H
  H167     1.0000 0.53392  0.89162  0.62259  Biso   1.000  H
  C169     1.0000 0.60053  0.89909  0.56381  Biso   1.000  C
  O55      1.0000 0.54549  0.77172  0.55189  Biso   1.000  O
  N113     1.0000 0.59812  0.85405  0.53186  Biso   1.000  N
  C170     1.0000 0.63100  0.93488  0.73050  Biso   1.000  C
  N114     1.0000 0.78527  0.82900  0.60029  Biso   1.000  N
  O56      1.0000 0.72710  0.74918  0.62916  Biso   1.000  O
  C171     1.0000 0.82965  0.86588  0.65210  Biso   1.000  C
  H168     1.0000 0.86233  0.84047  0.76390  Biso   1.000  H
  C172     1.0000 0.82993  0.91216  0.79909  Biso   1.000  C
  N115     1.0000 0.64270  0.93082  0.62680  Biso   1.000  N
  H169     1.0000 0.59628  0.91619  0.50041  Biso   1.000  H
  C173     1.0000 0.62650  0.85140  0.44471  Biso   1.000  C
  O57      1.0000 0.65977  0.96105  0.80088  Biso   1.000  O
  C174     1.0000 0.76842  0.83245  0.49441  Biso   1.000  C
  N116     1.0000 0.82868  0.90828  0.68785  Biso   1.000  N
  H170     1.0000 0.85875  0.87466  0.60581  Biso   1.000  H
  O58      1.0000 0.83409  0.94675  0.85155  Biso   1.000  O
  C175     1.0000 0.68900  0.96425  0.57970  Biso   1.000  C
  N117     1.0000 0.67587  0.86519  0.47268  Biso   1.000  N
  H171     1.0000 0.62741  0.87270  0.38520  Biso   1.000  H
  H172     1.0000 0.61020  0.81779  0.41673  Biso   1.000  H
  N118     1.0000 0.74049  0.85706  0.49230  Biso   1.000  N
  H173     1.0000 0.74812  0.79927  0.46497  Biso   1.000  H
  H174     1.0000 0.79683  0.84998  0.44608  Biso   1.000  H
  C176     1.0000 0.83164  0.94555  0.61675  Biso   1.000  C
  N119     1.0000 0.72017  0.94425  0.56324  Biso   1.000  N
  H175     1.0000 0.68341  0.97539  0.50900  Biso   1.000  H
  H176     1.0000 0.70579  0.99299  0.62753  Biso   1.000  H
  C177     1.0000 0.71636  0.91474  0.47000  Biso   1.000  C
  C178     1.0000 0.69129  0.83241  0.48273  Biso   1.000  C
  C179     1.0000 0.76096  0.90857  0.48168  Biso   1.000  C
  N120     1.0000 0.78615  0.93764  0.57451  Biso   1.000  N
  H177     1.0000 0.84734  0.97677  0.65664  Biso   1.000  H
  H178     1.0000 0.85293  0.94886  0.55497  Biso   1.000  H
  C180     1.0000 0.76174  0.95822  0.62137  Biso   1.000  C
  H179     1.0000 0.71718  0.93129  0.40052  Biso   1.000  H
  O59      1.0000 0.66508  0.78809  0.47892  Biso   1.000  O
  H180     1.0000 0.78180  0.92069  0.41552  Biso   1.000  H
  O60      1.0000 0.77608  0.98664  0.69596  Biso   1.000  O
  C181     1.0000 0.16467  0.50795  0.42476  Biso   1.000  C
  N121     1.0000 0.12351  0.45953  0.41584  Biso   1.000  N
  N122     1.0000 0.16157  0.53815  0.50916  Biso   1.000  N
  C182     1.0000 0.16297  0.53252  0.31871  Biso   1.000  C
  H181     1.0000 0.19567  0.50715  0.43052  Biso   1.000  H
  C183     1.0000 0.10955  0.42185  0.49659  Biso   1.000  C
  C184     1.0000 0.09667  0.45343  0.32625  Biso   1.000  C
  C185     1.0000 0.16327  0.57884  0.46570  Biso   1.000  C
  C186     1.0000 0.17156  0.53532  0.62234  Biso   1.000  C
  N123     1.0000 0.11861  0.49568  0.26690  Biso   1.000  N
  N124     1.0000 0.16202  0.57495  0.35455  Biso   1.000  N
  H182     1.0000 0.19208  0.54134  0.27242  Biso   1.000  H
  N125     1.0000 0.08425  0.42708  0.58781  Biso   1.000  N
  H183     1.0000 0.13909  0.42214  0.52311  Biso   1.000  H
  H184     1.0000 0.08847  0.38995  0.46206  Biso   1.000  H
  O61      1.0000 0.06042  0.41583  0.29585  Biso   1.000  O
  O62      1.0000 0.16743  0.61343  0.51824  Biso   1.000  O
  N126     1.0000 0.12938  0.50370  0.68567  Biso   1.000  N
  H185     1.0000 0.18688  0.56835  0.65396  Biso   1.000  H
  H186     1.0000 0.19528  0.52385  0.62786  Biso   1.000  H
  C187     1.0000 0.10176  0.49913  0.16102  Biso   1.000  C
  C188     1.0000 0.16497  0.61223  0.28344  Biso   1.000  C
  C189     1.0000 0.03566  0.39844  0.60281  Biso   1.000  C
  C190     1.0000 0.10855  0.45122  0.68737  Biso   1.000  C
  C191     1.0000 0.10748  0.51924  0.75774  Biso   1.000  C
  N127     1.0000 0.07381  0.52370  0.15899  Biso   1.000  N
  H187     1.0000 0.08144  0.46592  0.13167  Biso   1.000  H
  H188     1.0000 0.13015  0.51662  0.11270  Biso   1.000  H
  N128     1.0000 0.11949  0.60432  0.24120  Biso   1.000  N
  H189     1.0000 0.18068  0.64345  0.32333  Biso   1.000  H
  H190     1.0000 0.18627  0.61554  0.22166  Biso   1.000  H
  O63      1.0000 0.00689  0.37227  0.53243  Biso   1.000  O
  N129     1.0000 0.02396  0.40250  0.70650  Biso   1.000  N
  H191     1.0000 0.13276  0.44174  0.71072  Biso   1.000  H
  C192     1.0000 0.06615  0.43426  0.76950  Biso   1.000  C
  N130     1.0000 0.06856  0.47931  0.80144  Biso   1.000  N
  O64      1.0000 0.12117  0.56160  0.78142  Biso   1.000  O
  C193     1.0000 0.09428  0.57521  0.14837  Biso   1.000  C
  C194     1.0000 0.02461  0.49906  0.14934  Biso   1.000  C
  C195     1.0000 0.09508  0.62490  0.28807  Biso   1.000  C
  C196     1.0000 0.97768  0.36911  0.75361  Biso   1.000  C
  H192     1.0000 0.07038  0.41713  0.83290  Biso   1.000  H
  C197     1.0000 0.04016  0.48192  0.88860  Biso   1.000  C
  C198     1.0000 0.04970  0.58142  0.13670  Biso   1.000  C
  H193     1.0000 0.11514  0.58737  0.08213  Biso   1.000  H
  N131     1.0000 0.00921  0.53187  0.13937  Biso   1.000  N
  O65      1.0000 0.99842  0.45477  0.14553  Biso   1.000  O
  N132     1.0000 0.05350  0.61089  0.22985  Biso   1.000  N
  O66      1.0000 0.10942  0.65332  0.36266  Biso   1.000  O
  N133     1.0000 0.94650  0.38911  0.77015  Biso   1.000  N
  H194     1.0000 0.98325  0.35793  0.82431  Biso   1.000  H
  H195     1.0000 0.96087  0.34033  0.70585  Biso   1.000  H
  H196     1.0000 0.03925  0.46062  0.94811  Biso   1.000  H
  H197     1.0000 0.05646  0.51554  0.91665  Biso   1.000  H
  N134     1.0000 0.99079  0.46813  0.86063  Biso   1.000  N
  H198     1.0000 0.05052  0.59797  0.06713  Biso   1.000  H
  C199     1.0000 0.95984  0.51808  0.11140  Biso   1.000  C
  C200     1.0000 0.02232  0.63089  0.24639  Biso   1.000  C
  C201     1.0000 0.90492  0.37510  0.71193  Biso   1.000  C
  C202     1.0000 0.95030  0.41858  0.86330  Biso   1.000  C
  C203     1.0000 0.97539  0.50094  0.85066  Biso   1.000  C
  N135     1.0000 0.93144  0.52069  0.19856  Biso   1.000  N
  H199     1.0000 0.96075  0.53938  0.05189  Biso   1.000  H
  H200     1.0000 0.94354  0.48446  0.08335  Biso   1.000  H
  H201     1.0000 0.01675  0.64207  0.17569  Biso   1.000  H
  H202     1.0000 0.03913  0.65967  0.29415  Biso   1.000  H
  N136     1.0000 0.97604  0.59750  0.29350  Biso   1.000  N
  O67      1.0000 0.89058  0.34668  0.63734  Biso   1.000  O
  N137     1.0000 0.88051  0.39568  0.75880  Biso   1.000  N
  H203     1.0000 0.94948  0.40203  0.93287  Biso   1.000  H
  C204     1.0000 0.90572  0.42479  0.85163  Biso   1.000  C
  N138     1.0000 0.92619  0.47630  0.84101  Biso   1.000  N
  O68      1.0000 0.00158  0.54523  0.85447  Biso   1.000  O
  C205     1.0000 0.93385  0.56574  0.23050  Biso   1.000  C
  C206     1.0000 0.89252  0.48076  0.24226  Biso   1.000  C
  C207     1.0000 0.96434  0.60156  0.39719  Biso   1.000  C
  C208     1.0000 0.83503  0.38777  0.71656  Biso   1.000  C
  H204     1.0000 0.88486  0.41263  0.91787  Biso   1.000  H
  C209     1.0000 0.89824  0.50087  0.83898  Biso   1.000  C
  C210     1.0000 0.89145  0.54878  0.31263  Biso   1.000  C
  H205     1.0000 0.92962  0.58287  0.16710  Biso   1.000  H
  O69      1.0000 0.87883  0.43840  0.21858  Biso   1.000  O
  N139     1.0000 0.87062  0.49630  0.31433  Biso   1.000  N
  O70      1.0000 0.99311  0.62773  0.46757  Biso   1.000  O
  N140     1.0000 0.91575  0.57292  0.41219  Biso   1.000  N
  N141     1.0000 0.83798  0.42505  0.64545  Biso   1.000  N
  H206     1.0000 0.81932  0.35655  0.67667  Biso   1.000  H
  H207     1.0000 0.81373  0.38446  0.77834  Biso   1.000  H
  N142     1.0000 0.88139  0.50432  0.73310  Biso   1.000  N
  H208     1.0000 0.91856  0.53408  0.86833  Biso   1.000  H
  H209     1.0000 0.86985  0.48338  0.88730  Biso   1.000  H
  H210     1.0000 0.86724  0.55826  0.28928  Biso   1.000  H
  C211     1.0000 0.82844  0.46468  0.37766  Biso   1.000  C
  C212     1.0000 0.89045  0.57815  0.50341  Biso   1.000  C
  C213     1.0000 0.83703  0.46748  0.68129  Biso   1.000  C
  C214     1.0000 0.83673  0.42116  0.53430  Biso   1.000  C
  C215     1.0000 0.90333  0.54657  0.67375  Biso   1.000  C
  N143     1.0000 0.83843  0.46185  0.49084  Biso   1.000  N
  H211     1.0000 0.81312  0.43165  0.34604  Biso   1.000  H
  H212     1.0000 0.80472  0.47615  0.37214  Biso   1.000  H
  N144     1.0000 0.87649  0.54047  0.58416  Biso   1.000  N
  H213     1.0000 0.86091  0.57786  0.47689  Biso   1.000  H
  H214     1.0000 0.91153  0.61005  0.53794  Biso   1.000  H
  H215     1.0000 0.80792  0.45866  0.72758  Biso   1.000  H
  C216     1.0000 0.83533  0.49205  0.57524  Biso   1.000  C
  O71      1.0000 0.83257  0.38657  0.48176  Biso   1.000  O
  O72      1.0000 0.93958  0.58417  0.70415  Biso   1.000  O
  H216     1.0000 0.80433  0.49285  0.56948  Biso   1.000  H
  O73      1.0000 0.55401  0.16744  0.48176  Biso   1.000  O
  C217     1.0000 0.58443  0.16327  0.53430  Biso   1.000  C
  N145     1.0000 0.58703  0.16200  0.64545  Biso   1.000  N
  N146     1.0000 0.62341  0.16156  0.49084  Biso   1.000  N
  C218     1.0000 0.55275  0.16497  0.71656  Biso   1.000  C
  C219     1.0000 0.63043  0.16298  0.68129  Biso   1.000  C
  C220     1.0000 0.65675  0.16468  0.57524  Biso   1.000  C
  C221     1.0000 0.63624  0.17158  0.37766  Biso   1.000  C
  N147     1.0000 0.51517  0.11949  0.75880  Biso   1.000  N
  H217     1.0000 0.53723  0.18065  0.67667  Biso   1.000  H
  H218     1.0000 0.57073  0.18628  0.77834  Biso   1.000  H
  N148     1.0000 0.62293  0.11862  0.73310  Biso   1.000  N
  H219     1.0000 0.65072  0.19205  0.72758  Biso   1.000  H
  N149     1.0000 0.66399  0.12352  0.58416  Biso   1.000  N
  H220     1.0000 0.68853  0.19568  0.56948  Biso   1.000  H
  N150     1.0000 0.62568  0.12940  0.31433  Biso   1.000  N
  H221     1.0000 0.61852  0.18686  0.34604  Biso   1.000  H
  H222     1.0000 0.67145  0.19528  0.37214  Biso   1.000  H
  C222     1.0000 0.47017  0.09506  0.71193  Biso   1.000  C
  C223     1.0000 0.51908  0.09430  0.85163  Biso   1.000  C
  C224     1.0000 0.60263  0.10178  0.83898  Biso   1.000  C
  C225     1.0000 0.64323  0.09666  0.67375  Biso   1.000  C
  C226     1.0000 0.68771  0.10955  0.50341  Biso   1.000  C
  C227     1.0000 0.65733  0.10857  0.31263  Biso   1.000  C
  C228     1.0000 0.58825  0.10748  0.24226  Biso   1.000  C
  O74      1.0000 0.45609  0.10940  0.63734  Biso   1.000  O
  N151     1.0000 0.44260  0.05350  0.77015  Biso   1.000  N
  C229     1.0000 0.46826  0.04969  0.86330  Biso   1.000  C
  N152     1.0000 0.55007  0.07379  0.84101  Biso   1.000  N
  H223     1.0000 0.52777  0.11514  0.91787  Biso   1.000  H
  H224     1.0000 0.61554  0.08145  0.86833  Biso   1.000  H
  H225     1.0000 0.61352  0.13016  0.88730  Biso   1.000  H
  O75      1.0000 0.64458  0.06044  0.70415  Biso   1.000  O
  N153     1.0000 0.65717  0.08425  0.41219  Biso   1.000  N
  H226     1.0000 0.71693  0.13906  0.47689  Biso   1.000  H
  H227     1.0000 0.69854  0.08846  0.53794  Biso   1.000  H
  H228     1.0000 0.69103  0.13278  0.28928  Biso   1.000  H
  C230     1.0000 0.63190  0.06613  0.23050  Biso   1.000  C
  O76      1.0000 0.55959  0.12120  0.21858  Biso   1.000  O
  N154     1.0000 0.58926  0.06857  0.19856  Biso   1.000  N
  C231     1.0000 0.39143  0.02232  0.75361  Biso   1.000  C
  N155     1.0000 0.47736  0.00922  0.86063  Biso   1.000  N
  H229     1.0000 0.45255  0.05053  0.93287  Biso   1.000  H
  C232     1.0000 0.52559  0.02465  0.85066  Biso   1.000  C
  C233     1.0000 0.63723  0.03568  0.39719  Biso   1.000  C
  N156     1.0000 0.62143  0.02396  0.29350  Biso   1.000  N
  H230     1.0000 0.65323  0.07038  0.16710  Biso   1.000  H
  C234     1.0000 0.55825  0.04018  0.11140  Biso   1.000  C
  H231     1.0000 0.37467  0.01673  0.82431  Biso   1.000  H
  H232     1.0000 0.37946  0.03913  0.70585  Biso   1.000  H
  N157     1.0000 0.37857  0.97604  0.70650  Biso   1.000  N
  C235     1.0000 0.44175  0.95982  0.88860  Biso   1.000  C
  O77      1.0000 0.54365  0.99840  0.85447  Biso   1.000  O
  O78      1.0000 0.63461  0.00686  0.46757  Biso   1.000  O
  C236     1.0000 0.60857  0.97768  0.24639  Biso   1.000  C
  H233     1.0000 0.57864  0.03927  0.05189  Biso   1.000  H
  H234     1.0000 0.54094  0.05648  0.08335  Biso   1.000  H
  N158     1.0000 0.52264  0.99078  0.13937  Biso   1.000  N
  C237     1.0000 0.36277  0.96432  0.60281  Biso   1.000  C
  C238     1.0000 0.36810  0.93387  0.76950  Biso   1.000  C
  N159     1.0000 0.41074  0.93143  0.80144  Biso   1.000  N
  H235     1.0000 0.42136  0.96073  0.94811  Biso   1.000  H
  H236     1.0000 0.45906  0.94352  0.91665  Biso   1.000  H
  N160     1.0000 0.55740  0.94650  0.22985  Biso   1.000  N
  H237     1.0000 0.62533  0.98327  0.17569  Biso   1.000  H
  H238     1.0000 0.62054  0.96087  0.29415  Biso   1.000  H
  C239     1.0000 0.47441  0.97535  0.14934  Biso   1.000  C
  C240     1.0000 0.53174  0.95031  0.13670  Biso   1.000  C
  O79      1.0000 0.36539  0.99314  0.53243  Biso   1.000  O
  N161     1.0000 0.34283  0.91575  0.58781  Biso   1.000  N
  C241     1.0000 0.34267  0.89143  0.68737  Biso   1.000  C
  H239     1.0000 0.34677  0.92962  0.83290  Biso   1.000  H
  C242     1.0000 0.41175  0.89252  0.75774  Biso   1.000  C
  C243     1.0000 0.52983  0.90494  0.28807  Biso   1.000  C
  N162     1.0000 0.44993  0.92621  0.15899  Biso   1.000  N
  O80      1.0000 0.45635  0.00160  0.14553  Biso   1.000  O
  C244     1.0000 0.48092  0.90570  0.14837  Biso   1.000  C
  H240     1.0000 0.54745  0.94947  0.06713  Biso   1.000  H
  C245     1.0000 0.31229  0.89045  0.49659  Biso   1.000  C
  N163     1.0000 0.37432  0.87060  0.68567  Biso   1.000  N
  H241     1.0000 0.30897  0.86722  0.71072  Biso   1.000  H
  O81      1.0000 0.44041  0.87880  0.78142  Biso   1.000  O
  N164     1.0000 0.48483  0.88051  0.24120  Biso   1.000  N
  O82      1.0000 0.54391  0.89060  0.36266  Biso   1.000  O
  C246     1.0000 0.39737  0.89822  0.16102  Biso   1.000  C
  H242     1.0000 0.47223  0.88486  0.08213  Biso   1.000  H
  N165     1.0000 0.33601  0.87648  0.41584  Biso   1.000  N
  H243     1.0000 0.28307  0.86094  0.52311  Biso   1.000  H
  H244     1.0000 0.30146  0.91154  0.46206  Biso   1.000  H
  C247     1.0000 0.36376  0.82842  0.62234  Biso   1.000  C
  C248     1.0000 0.44725  0.83503  0.28344  Biso   1.000  C
  N166     1.0000 0.37707  0.88138  0.26690  Biso   1.000  N
  H245     1.0000 0.38446  0.91855  0.13167  Biso   1.000  H
  H246     1.0000 0.38648  0.86984  0.11270  Biso   1.000  H
  C249     1.0000 0.35677  0.90334  0.32625  Biso   1.000  C
  C250     1.0000 0.34325  0.83532  0.42476  Biso   1.000  C
  N167     1.0000 0.37659  0.83844  0.50916  Biso   1.000  N
  H247     1.0000 0.38148  0.81314  0.65396  Biso   1.000  H
  H248     1.0000 0.32855  0.80472  0.62786  Biso   1.000  H
  N168     1.0000 0.41297  0.83800  0.35455  Biso   1.000  N
  H249     1.0000 0.46277  0.81935  0.32333  Biso   1.000  H
  H250     1.0000 0.42927  0.81372  0.22166  Biso   1.000  H
  C251     1.0000 0.36957  0.83702  0.31871  Biso   1.000  C
  O83      1.0000 0.35542  0.93956  0.29585  Biso   1.000  O
  H251     1.0000 0.31147  0.80432  0.43052  Biso   1.000  H
  C252     1.0000 0.41557  0.83673  0.46570  Biso   1.000  C
  H252     1.0000 0.34928  0.80795  0.27242  Biso   1.000  H
  O84      1.0000 0.44599  0.83256  0.51824  Biso   1.000  O
  C253     1.0000 0.20200  0.69710  0.71096  Biso   1.000  C
  N169     1.0000 0.20484  0.70995  0.82423  Biso   1.000  N
  N170     1.0000 0.17038  0.70766  0.64772  Biso   1.000  N
  H253     1.0000 0.23500  0.71481  0.67942  Biso   1.000  H
  H254     1.0000 0.19049  0.66189  0.70553  Biso   1.000  H
  C254     1.0000 0.17458  0.67659  0.90863  Biso   1.000  C
  C255     1.0000 0.24550  0.74889  0.86760  Biso   1.000  C
  C256     1.0000 0.11790  0.67601  0.64602  Biso   1.000  C
  C257     1.0000 0.18590  0.74512  0.57556  Biso   1.000  C
  N171     1.0000 0.12619  0.66933  0.91746  Biso   1.000  N
  H255     1.0000 0.17380  0.64479  0.90279  Biso   1.000  H
  C258     1.0000 0.19921  0.70290  0.01459  Biso   1.000  C
  O85      1.0000 0.28012  0.77935  0.81506  Biso   1.000  O
  N172     1.0000 0.24162  0.74628  0.97884  Biso   1.000  N
  N173     1.0000 0.09373  0.67615  0.74550  Biso   1.000  N
  H256     1.0000 0.10839  0.64229  0.62259  Biso   1.000  H
  C259     1.0000 0.10091  0.70145  0.56381  Biso   1.000  C
  O86      1.0000 0.22829  0.77376  0.55189  Biso   1.000  O
  N174     1.0000 0.14595  0.74407  0.53186  Biso   1.000  N
  C260     1.0000 0.08850  0.64563  0.83671  Biso   1.000  C
  C261     1.0000 0.12010  0.69009  0.00713  Biso   1.000  C
  N175     1.0000 0.16234  0.71038  0.06640  Biso   1.000  N
  H257     1.0000 0.20799  0.68261  0.06089  Biso   1.000  H
  C262     1.0000 0.27890  0.78062  0.04986  Biso   1.000  C
  C263     1.0000 0.06511  0.69612  0.73050  Biso   1.000  C
  N176     1.0000 0.06917  0.71191  0.62680  Biso   1.000  N
  H258     1.0000 0.08380  0.68011  0.50041  Biso   1.000  H
  C264     1.0000 0.14861  0.77510  0.44471  Biso   1.000  C
  H259     1.0000 0.08879  0.61641  0.81020  Biso   1.000  H
  H260     1.0000 0.05659  0.63481  0.87133  Biso   1.000  H
  O87      1.0000 0.08252  0.68875  0.03754  Biso   1.000  O
  C265     1.0000 0.16581  0.73071  0.17229  Biso   1.000  C
  N177     1.0000 0.27098  0.81815  0.09218  Biso   1.000  N
  H261     1.0000 0.31010  0.79612  0.00997  Biso   1.000  H
  H262     1.0000 0.28219  0.76261  0.11172  Biso   1.000  H
  O88      1.0000 0.03895  0.69873  0.80088  Biso   1.000  O
  C266     1.0000 0.03577  0.72475  0.57970  Biso   1.000  C
  N178     1.0000 0.13481  0.81067  0.47268  Biso   1.000  N
  H263     1.0000 0.12729  0.75470  0.38520  Biso   1.000  H
  H264     1.0000 0.18220  0.79241  0.41673  Biso   1.000  H
  N179     1.0000 0.19037  0.78323  0.17440  Biso   1.000  N
  H265     1.0000 0.13259  0.71779  0.20172  Biso   1.000  H
  H266     1.0000 0.18329  0.71978  0.22061  Biso   1.000  H
  C267     1.0000 0.29157  0.86316  0.04524  Biso   1.000  C
  C268     1.0000 0.24188  0.81426  0.18494  Biso   1.000  C
  N180     1.0000 0.05577  0.77593  0.56324  Biso   1.000  N
  H267     1.0000 0.02459  0.70799  0.50900  Biso   1.000  H
  H268     1.0000 0.00701  0.71281  0.62753  Biso   1.000  H
  C269     1.0000 0.08526  0.80160  0.47000  Biso   1.000  C
  C270     1.0000 0.16760  0.85891  0.48273  Biso   1.000  C
  C271     1.0000 0.16573  0.80777  0.18396  Biso   1.000  C
  O89      1.0000 0.31999  0.87724  0.97065  Biso   1.000  O
  N181     1.0000 0.27757  0.89074  0.10345  Biso   1.000  N
  C272     1.0000 0.24808  0.86508  0.19669  Biso   1.000  C
  H269     1.0000 0.25403  0.80555  0.25118  Biso   1.000  H
  C273     1.0000 0.04175  0.80348  0.62137  Biso   1.000  C
  H270     1.0000 0.06871  0.78592  0.40052  Biso   1.000  H
  C274     1.0000 0.09146  0.85241  0.48168  Biso   1.000  C
  O90      1.0000 0.21191  0.87699  0.47892  Biso   1.000  O
  N182     1.0000 0.14295  0.88341  0.49230  Biso   1.000  N
  O91      1.0000 0.12143  0.78969  0.18777  Biso   1.000  O
  N183     1.0000 0.19851  0.85597  0.19394  Biso   1.000  N
  C275     1.0000 0.29757  0.94192  0.08700  Biso   1.000  C
  H271     1.0000 0.26463  0.88076  0.26617  Biso   1.000  H
  O92      1.0000 0.01335  0.78944  0.69596  Biso   1.000  O
  N184     1.0000 0.06234  0.84849  0.57451  Biso   1.000  N
  H272     1.0000 0.07929  0.86109  0.41552  Biso   1.000  H
  C276     1.0000 0.16753  0.93597  0.49441  Biso   1.000  C
  C277     1.0000 0.18472  0.89158  0.22199  Biso   1.000  C
  N185     1.0000 0.26417  0.95477  0.03989  Biso   1.000  N
  H273     1.0000 0.30873  0.95866  0.15769  Biso   1.000  H
  H274     1.0000 0.32633  0.95387  0.03916  Biso   1.000  H
  C278     1.0000 0.05444  0.88606  0.61675  Biso   1.000  C
  N186     1.0000 0.17098  0.95626  0.60029  Biso   1.000  N
  H275     1.0000 0.20073  0.94886  0.46497  Biso   1.000  H
  H276     1.0000 0.15003  0.94686  0.44608  Biso   1.000  H
  N187     1.0000 0.18737  0.92258  0.13475  Biso   1.000  N
  H277     1.0000 0.20605  0.91198  0.28150  Biso   1.000  H
  H278     1.0000 0.15114  0.87426  0.24996  Biso   1.000  H
  C279     1.0000 0.26822  0.97056  0.93619  Biso   1.000  C
  C280     1.0000 0.23242  0.96523  0.10289  Biso   1.000  C
  N188     1.0000 0.09172  0.92040  0.68785  Biso   1.000  N
  H279     1.0000 0.02324  0.87056  0.65664  Biso   1.000  H
  H280     1.0000 0.05115  0.90407  0.55497  Biso   1.000  H
  C281     1.0000 0.21322  0.97655  0.65956  Biso   1.000  C
  C282     1.0000 0.13413  0.96377  0.65210  Biso   1.000  C
  C283     1.0000 0.14744  0.92156  0.09105  Biso   1.000  C
  O93      1.0000 0.29439  0.96795  0.86574  Biso   1.000  O
  N189     1.0000 0.23959  0.99049  0.92119  Biso   1.000  N
  C284     1.0000 0.21544  0.99067  0.02067  Biso   1.000  C
  H281     1.0000 0.24954  0.98657  0.16629  Biso   1.000  H
  C285     1.0000 0.08782  0.91775  0.79909  Biso   1.000  C
  O94      1.0000 0.25082  0.97793  0.62916  Biso   1.000  O
  N190     1.0000 0.20713  0.99731  0.74915  Biso   1.000  N
  H282     1.0000 0.12535  0.98407  0.60581  Biso   1.000  H
  C286     1.0000 0.15874  0.99005  0.75807  Biso   1.000  C
  O95      1.0000 0.10505  0.89292  0.11480  Biso   1.000  O
  N191     1.0000 0.16296  0.95902  0.01897  Biso   1.000  N
  C287     1.0000 0.24484  0.02105  0.82998  Biso   1.000  C
  H283     1.0000 0.22493  0.02436  0.04411  Biso   1.000  H
  O96      1.0000 0.05322  0.88733  0.85155  Biso   1.000  O
  N192     1.0000 0.12850  0.95673  0.84247  Biso   1.000  N
  H284     1.0000 0.15952  0.02185  0.76390  Biso   1.000  H
  C288     1.0000 0.13134  0.96958  0.95565  Biso   1.000  C
  H285     1.0000 0.24455  0.05027  0.85649  Biso   1.000  H
  H286     1.0000 0.27675  0.03187  0.79536  Biso   1.000  H
  H287     1.0000 0.09834  0.95187  0.98727  Biso   1.000  H
  H288     1.0000 0.14283  0.00475  0.96116  Biso   1.000  H
  C289     1.0000 0.79800  0.30290  0.28904  Biso   1.000  C
  N193     1.0000 0.79516  0.29005  0.17577  Biso   1.000  N
  N194     1.0000 0.82962  0.29234  0.35228  Biso   1.000  N
  H289     1.0000 0.76500  0.28519  0.32058  Biso   1.000  H
  H290     1.0000 0.80951  0.33811  0.29447  Biso   1.000  H
  C290     1.0000 0.75450  0.25111  0.13240  Biso   1.000  C
  C291     1.0000 0.82542  0.32341  0.09137  Biso   1.000  C
  C292     1.0000 0.88210  0.32399  0.35398  Biso   1.000  C
  C293     1.0000 0.81410  0.25488  0.42444  Biso   1.000  C
  O97      1.0000 0.71988  0.22065  0.18494  Biso   1.000  O
  N195     1.0000 0.75838  0.25372  0.02116  Biso   1.000  N
  C294     1.0000 0.80079  0.29710  0.98541  Biso   1.000  C
  N196     1.0000 0.87381  0.33067  0.08254  Biso   1.000  N
  H291     1.0000 0.82620  0.35521  0.09721  Biso   1.000  H
  N197     1.0000 0.90627  0.32385  0.25450  Biso   1.000  N
  H292     1.0000 0.89161  0.35771  0.37741  Biso   1.000  H
  C295     1.0000 0.89909  0.29855  0.43619  Biso   1.000  C
  O98      1.0000 0.77171  0.22624  0.44811  Biso   1.000  O
  N198     1.0000 0.85405  0.25593  0.46814  Biso   1.000  N
  C296     1.0000 0.72110  0.21938  0.95014  Biso   1.000  C
  N199     1.0000 0.83766  0.28962  0.93360  Biso   1.000  N
  H293     1.0000 0.79201  0.31739  0.93911  Biso   1.000  H
  C297     1.0000 0.87990  0.30991  0.99287  Biso   1.000  C
  C298     1.0000 0.91150  0.35437  0.16329  Biso   1.000  C
  C299     1.0000 0.93489  0.30388  0.26950  Biso   1.000  C
  N200     1.0000 0.93083  0.28809  0.37320  Biso   1.000  N
  H294     1.0000 0.91620  0.31989  0.49959  Biso   1.000  H
  C300     1.0000 0.85139  0.22490  0.55529  Biso   1.000  C
  N201     1.0000 0.72902  0.18185  0.90782  Biso   1.000  N
  H295     1.0000 0.68990  0.20388  0.99003  Biso   1.000  H
  H296     1.0000 0.71781  0.23739  0.88828  Biso   1.000  H
  C301     1.0000 0.83419  0.26929  0.82771  Biso   1.000  C
  O99      1.0000 0.91748  0.31125  0.96246  Biso   1.000  O
  H297     1.0000 0.91121  0.38359  0.18980  Biso   1.000  H
  H298     1.0000 0.94341  0.36519  0.12867  Biso   1.000  H
  O100     1.0000 0.96105  0.30127  0.19912  Biso   1.000  O
  C302     1.0000 0.96423  0.27525  0.42030  Biso   1.000  C
  N202     1.0000 0.86519  0.18933  0.52732  Biso   1.000  N
  H299     1.0000 0.87271  0.24530  0.61480  Biso   1.000  H
  H300     1.0000 0.81780  0.20759  0.58327  Biso   1.000  H
  C303     1.0000 0.70843  0.13684  0.95476  Biso   1.000  C
  C304     1.0000 0.75812  0.18574  0.81506  Biso   1.000  C
  N203     1.0000 0.80963  0.21677  0.82560  Biso   1.000  N
  H301     1.0000 0.86741  0.28221  0.79828  Biso   1.000  H
  H302     1.0000 0.81671  0.28022  0.77939  Biso   1.000  H
  N204     1.0000 0.94423  0.22407  0.43676  Biso   1.000  N
  H303     1.0000 0.97541  0.29201  0.49100  Biso   1.000  H
  H304     1.0000 0.99299  0.28719  0.37247  Biso   1.000  H
  C305     1.0000 0.91474  0.19840  0.53000  Biso   1.000  C
  C306     1.0000 0.83240  0.14109  0.51727  Biso   1.000  C
  O101     1.0000 0.68001  0.12276  0.02935  Biso   1.000  O
  N205     1.0000 0.72243  0.10926  0.89655  Biso   1.000  N
  C307     1.0000 0.75192  0.13492  0.80331  Biso   1.000  C
  H305     1.0000 0.74597  0.19445  0.74882  Biso   1.000  H
  C308     1.0000 0.83427  0.19223  0.81604  Biso   1.000  C
  C309     1.0000 0.95825  0.19652  0.37863  Biso   1.000  C
  H306     1.0000 0.93129  0.21408  0.59948  Biso   1.000  H
  C310     1.0000 0.90854  0.14759  0.51832  Biso   1.000  C
  O102     1.0000 0.78809  0.12301  0.52108  Biso   1.000  O
  N206     1.0000 0.85705  0.11659  0.50770  Biso   1.000  N
  C311     1.0000 0.70243  0.05808  0.91300  Biso   1.000  C
  N207     1.0000 0.80149  0.14403  0.80606  Biso   1.000  N
  H307     1.0000 0.73537  0.11924  0.73383  Biso   1.000  H
  O103     1.0000 0.87857  0.21031  0.81223  Biso   1.000  O
  O104     1.0000 0.98665  0.21056  0.30404  Biso   1.000  O
  N208     1.0000 0.93766  0.15151  0.42549  Biso   1.000  N
  H308     1.0000 0.92071  0.13891  0.58448  Biso   1.000  H
  C312     1.0000 0.83247  0.06403  0.50559  Biso   1.000  C
  N209     1.0000 0.73583  0.04523  0.96011  Biso   1.000  N
  H309     1.0000 0.69127  0.04134  0.84231  Biso   1.000  H
  H310     1.0000 0.67367  0.04613  0.96084  Biso   1.000  H
  C313     1.0000 0.81528  0.10842  0.77801  Biso   1.000  C
  C314     1.0000 0.94556  0.11394  0.38325  Biso   1.000  C
  N210     1.0000 0.82902  0.04374  0.39971  Biso   1.000  N
  H311     1.0000 0.79927  0.05114  0.53503  Biso   1.000  H
  H312     1.0000 0.84997  0.05314  0.55392  Biso   1.000  H
  C315     1.0000 0.73178  0.02944  0.06381  Biso   1.000  C
  C316     1.0000 0.76758  0.03477  0.89711  Biso   1.000  C
  N211     1.0000 0.81263  0.07742  0.86525  Biso   1.000  N
  H313     1.0000 0.79395  0.08802  0.71850  Biso   1.000  H
  H314     1.0000 0.84886  0.12574  0.75004  Biso   1.000  H
  N212     1.0000 0.90828  0.07960  0.31215  Biso   1.000  N
  H315     1.0000 0.97676  0.12944  0.34336  Biso   1.000  H
  H316     1.0000 0.94885  0.09593  0.44503  Biso   1.000  H
  C317     1.0000 0.78678  0.02345  0.34044  Biso   1.000  C
  C318     1.0000 0.86587  0.03623  0.34790  Biso   1.000  C
  O105     1.0000 0.70561  0.03205  0.13426  Biso   1.000  O
  N213     1.0000 0.76041  0.00951  0.07881  Biso   1.000  N
  C319     1.0000 0.78456  0.00933  0.97933  Biso   1.000  C
  H317     1.0000 0.75046  0.01343  0.83371  Biso   1.000  H
  C320     1.0000 0.85256  0.07844  0.90895  Biso   1.000  C
  C321     1.0000 0.91218  0.08225  0.20091  Biso   1.000  C
  N214     1.0000 0.79287  0.00269  0.25085  Biso   1.000  N
  O106     1.0000 0.74918  0.02207  0.37084  Biso   1.000  O
  C322     1.0000 0.84126  0.00995  0.24193  Biso   1.000  C
  H318     1.0000 0.87465  0.01593  0.39419  Biso   1.000  H
  C323     1.0000 0.75516  0.97895  0.17002  Biso   1.000  C
  H319     1.0000 0.77507  0.97564  0.95589  Biso   1.000  H
  N215     1.0000 0.83704  0.04098  0.98103  Biso   1.000  N
  O107     1.0000 0.89495  0.10708  0.88520  Biso   1.000  O
  N216     1.0000 0.87150  0.04327  0.15753  Biso   1.000  N
  O108     1.0000 0.94678  0.11267  0.14845  Biso   1.000  O
  H320     1.0000 0.84048  0.97815  0.23610  Biso   1.000  H
  H321     1.0000 0.75545  0.94973  0.14351  Biso   1.000  H
  H322     1.0000 0.72325  0.96813  0.20464  Biso   1.000  H
  C324     1.0000 0.86866  0.03042  0.04435  Biso   1.000  C
  H323     1.0000 0.90166  0.04813  0.01273  Biso   1.000  H
  H324     1.0000 0.85717  0.99525  0.03884  Biso   1.000  H
  Ne1      1.0000 0.33333  0.16667  0.16667  Biso   1.000  Ne
  He1      1.0000 0.40426  0.28096  0.29824  Biso   1.000  He
  He2      1.0000 0.26747  0.06217  0.04484  Biso   1.000  He
  Ar1      1.0000 0.33333  0.16667  0.16666  Biso   1.000  Ar
  Ne2      1.0000 0.16667  0.33333  0.83333  Biso   1.000  Ne
  He3      1.0000 0.19552  0.27793  0.93512  Biso   1.000  He
  He4      1.0000 0.12269  0.40494  0.70047  Biso   1.000  He
  Ar2      1.0000 0.16667  0.33333  0.83333  Biso   1.000  Ar
  Ne3      1.0000 0.50000  0.50000  0.50000  Biso   1.000  Ne
  He5      1.0000 0.41100  0.46885  0.60647  Biso   1.000  He
  He6      1.0000 0.61374  0.54309  0.36900  Biso   1.000  He
  Ar3      1.0000 0.50000  0.50000  0.50000  Biso   1.000  Ar
  Ne4      1.0000 1.00000  0.50000  0.50000  Biso   1.000  Ne
  He7      1.0000 0.07093  0.61428  0.63154  Biso   1.000  He
  He8      1.0000 0.93753  0.39714  0.37110  Biso   1.000  He
  Ar4      1.0000 1.00000  0.50000  0.50000  Biso   1.000  Ar
  Ne5      1.0000 0.50000  0.00000  0.50000  Biso   1.000  Ne
  He9      1.0000 0.52886  0.94459  0.60178  Biso   1.000  He
  He10     1.0000 0.45603  0.07162  0.36717  Biso   1.000  He
  Ar5      1.0000 0.50000  0.00000  0.50000  Biso   1.000  Ar
  Ne6      1.0000 0.83333  0.66667  0.16667  Biso   1.000  Ne
  He11     1.0000 0.86220  0.61127  0.26848  Biso   1.000  He
  He12     1.0000 0.78936  0.73829  0.03381  Biso   1.000  He
  Ar6      1.0000 0.83333  0.66667  0.16667  Biso   1.000  Ar
  Ne7      1.0000 0.66667  0.83333  0.83333  Biso   1.000  Ne
  He13     1.0000 0.73761  0.94765  0.96490  Biso   1.000  He
  He14     1.0000 0.60081  0.72885  0.71150  Biso   1.000  He
  Ar7      1.0000 0.66667  0.83333  0.83334  Biso   1.000  Ar
  Ne8      1.0000 0.83333  0.16667  0.16667  Biso   1.000  Ne
  He15     1.0000 0.74434  0.13552  0.27316  Biso   1.000  He
  He16     1.0000 0.94709  0.20976  0.03563  Biso   1.000  He
  Ar8      1.0000 0.83333  0.16666  0.16666  Biso   1.000  Ar
  Ne9      1.0000 0.16667  0.83333  0.83333  Biso   1.000  Ne
  He17     1.0000 0.07768  0.80220  0.93982  Biso   1.000  He
  He18     1.0000 0.28042  0.87643  0.70230  Biso   1.000  He
  Ar9      1.0000 0.16667  0.83334  0.83334  Biso   1.000  Ar
