data_image0
_cell_length_a       48.414
_cell_length_b       11.896
_cell_length_c       22.553
_cell_angle_alpha    90
_cell_angle_beta     94.64
_cell_angle_gamma    90

_symmetry_space_group_name_H-M    "P 1"
_symmetry_int_tables_number       1

loop_
  _symmetry_equiv_pos_as_xyz
  'x, y, z'

loop_
  _atom_site_label
  _atom_site_occupancy
  _atom_site_fract_x
  _atom_site_fract_y
  _atom_site_fract_z
  _atom_site_thermal_displace_type
  _atom_site_B_iso_or_equiv
  _atom_site_type_symbol
  N1       1.0000 0.54704  0.55809  0.60047  Biso   1.000  N
  C1       1.0000 0.53901  0.66459  0.61644  Biso   1.000  C
  C2       1.0000 0.56926  0.57666  0.57244  Biso   1.000  C
  C3       1.0000 0.51657  0.70335  0.64811  Biso   1.000  C
  C4       1.0000 0.55655  0.74538  0.59722  Biso   1.000  C
  N2       1.0000 0.57607  0.68721  0.56888  Biso   1.000  N
  H1       1.0000 0.57948  0.51950  0.55638  Biso   1.000  H
  N3       1.0000 0.49840  0.63299  0.67062  Biso   1.000  N
  N4       1.0000 0.51428  0.81733  0.65510  Biso   1.000  N
  N5       1.0000 0.55511  0.85709  0.60403  Biso   1.000  N
  C5       1.0000 0.59839  0.73462  0.53792  Biso   1.000  C
  H2       1.0000 0.48509  0.65930  0.68971  Biso   1.000  H
  H3       1.0000 0.49998  0.56162  0.66600  Biso   1.000  H
  C6       1.0000 0.53270  0.87903  0.63370  Biso   1.000  C
  C7       1.0000 0.62119  0.78354  0.57903  Biso   1.000  C
  H4       1.0000 0.60608  0.67636  0.51399  Biso   1.000  H
  H5       1.0000 0.59090  0.79296  0.51119  Biso   1.000  H
  H6       1.0000 0.52998  0.95536  0.64002  Biso   1.000  H
  H7       1.0000 0.61370  0.83810  0.60541  Biso   1.000  H
  H8       1.0000 0.63469  0.82103  0.55629  Biso   1.000  H
  O1       1.0000 0.63396  0.69326  0.61257  Biso   1.000  O
  C8       1.0000 0.65813  0.71705  0.64713  Biso   1.000  C
  C9       1.0000 0.66745  0.82599  0.65821  Biso   1.000  C
  C10      1.0000 0.67280  0.62559  0.67187  Biso   1.000  C
  H9       1.0000 0.65738  0.88584  0.64100  Biso   1.000  H
  C11      1.0000 0.69138  0.84785  0.69411  Biso   1.000  C
  C12      1.0000 0.69747  0.64778  0.70661  Biso   1.000  C
  C13      1.0000 0.66227  0.50622  0.66319  Biso   1.000  C
  C14      1.0000 0.70652  0.75630  0.71822  Biso   1.000  C
  C15      1.0000 0.70078  0.96747  0.70781  Biso   1.000  C
  H10      1.0000 0.70809  0.58784  0.72218  Biso   1.000  H
  H11      1.0000 0.67748  0.45780  0.65430  Biso   1.000  H
  H12      1.0000 0.64848  0.50395  0.62952  Biso   1.000  H
  C16      1.0000 0.64950  0.46192  0.71787  Biso   1.000  C
  O2       1.0000 0.73030  0.78194  0.75310  Biso   1.000  O
  H13      1.0000 0.72079  0.97167  0.70679  Biso   1.000  H
  C17      1.0000 0.69298  0.00715  0.76800  Biso   1.000  C
  H14      1.0000 0.69248  0.01715  0.67730  Biso   1.000  H
  C18      1.0000 0.66576  0.41443  0.76511  Biso   1.000  C
  C19      1.0000 0.62104  0.47117  0.72245  Biso   1.000  C
  C20      1.0000 0.74729  0.69107  0.77472  Biso   1.000  C
  C21      1.0000 0.66677  0.04943  0.77557  Biso   1.000  C
  C22      1.0000 0.71188  0.00000  0.81827  Biso   1.000  C
  C23      1.0000 0.65365  0.37979  0.81605  Biso   1.000  C
  O3       1.0000 0.69342  0.40198  0.75808  Biso   1.000  O
  H15      1.0000 0.60989  0.50101  0.69082  Biso   1.000  H
  C24      1.0000 0.60891  0.43645  0.77370  Biso   1.000  C
  H16      1.0000 0.75048  0.64148  0.74251  Biso   1.000  H
  H17      1.0000 0.76467  0.71974  0.79198  Biso   1.000  H
  H18      1.0000 0.73819  0.65081  0.80439  Biso   1.000  H
  C25      1.0000 0.65965  0.08448  0.83117  Biso   1.000  C
  O4       1.0000 0.64696  0.04976  0.72743  Biso   1.000  O
  H19      1.0000 0.72959  0.97184  0.81418  Biso   1.000  H
  C26      1.0000 0.70487  0.03362  0.87352  Biso   1.000  C
  C27      1.0000 0.62546  0.39173  0.82116  Biso   1.000  C
  H20      1.0000 0.66468  0.34802  0.84732  Biso   1.000  H
  C28      1.0000 0.71011  0.36138  0.80804  Biso   1.000  C
  O5       1.0000 0.58134  0.44351  0.78059  Biso   1.000  O
  C29      1.0000 0.67838  0.07725  0.88135  Biso   1.000  C
  H21      1.0000 0.64199  0.11340  0.83491  Biso   1.000  H
  C30      1.0000 0.64131  0.15778  0.70167  Biso   1.000  C
  O6       1.0000 0.72267  0.02782  0.92441  Biso   1.000  O
  C31      1.0000 0.61287  0.36021  0.87837  Biso   1.000  C
  H22      1.0000 0.70468  0.28589  0.81680  Biso   1.000  H
  H23      1.0000 0.72918  0.36197  0.79950  Biso   1.000  H
  H24      1.0000 0.70779  0.40871  0.84180  Biso   1.000  H
  C32      1.0000 0.56268  0.45990  0.72610  Biso   1.000  C
  C33      1.0000 0.56674  0.53900  0.75110  Biso   1.000  C
  C34      1.0000 0.67025  0.11004  0.94248  Biso   1.000  C
  H25      1.0000 0.65789  0.18712  0.68682  Biso   1.000  H
  H26      1.0000 0.62708  0.15098  0.66960  Biso   1.000  H
  H27      1.0000 0.63509  0.20763  0.73130  Biso   1.000  H
  C35      1.0000 0.74728  0.96503  0.92121  Biso   1.000  C
  H28      1.0000 0.59337  0.34255  0.86961  Biso   1.000  H
  H29      1.0000 0.62208  0.29363  0.89519  Biso   1.000  H
  C36      1.0000 0.61573  0.45520  0.92366  Biso   1.000  C
  H30      1.0000 0.56909  0.41518  0.69438  Biso   1.000  H
  H31      1.0000 0.54418  0.43729  0.73339  Biso   1.000  H
  H32      1.0000 0.56269  0.53774  0.71489  Biso   1.000  H
  H33      1.0000 0.56878  0.53589  0.70910  Biso   1.000  H
  H34      1.0000 0.54748  0.53547  0.75790  Biso   1.000  H
  H35      1.0000 0.57449  0.60802  0.76698  Biso   1.000  H
  C37      1.0000 0.65742  0.01295  0.97406  Biso   1.000  C
  H36      1.0000 0.68658  0.13618  0.96632  Biso   1.000  H
  H37      1.0000 0.65709  0.17174  0.93852  Biso   1.000  H
  H38      1.0000 0.75638  0.95704  0.96040  Biso   1.000  H
  H39      1.0000 0.74278  0.89206  0.90502  Biso   1.000  H
  H40      1.0000 0.75928  0.00345  0.89612  Biso   1.000  H
  C38      1.0000 0.63964  0.46755  0.96218  Biso   1.000  C
  C39      1.0000 0.59420  0.53119  0.92766  Biso   1.000  C
  C40      1.0000 0.62891  0.99277  0.96788  Biso   1.000  C
  C41      1.0000 0.67425  0.93914  0.00925  Biso   1.000  C
  O7       1.0000 0.66010  0.38971  0.95711  Biso   1.000  O
  C42      1.0000 0.64134  0.55397  0.00404  Biso   1.000  C
  H41      1.0000 0.57828  0.52387  0.90208  Biso   1.000  H
  C43      1.0000 0.59599  0.61836  0.96930  Biso   1.000  C
  C44      1.0000 0.61776  0.90140  0.99541  Biso   1.000  C
  O8       1.0000 0.61310  0.06843  0.93336  Biso   1.000  O
  C45      1.0000 0.66306  0.84684  0.03612  Biso   1.000  C
  H42      1.0000 0.69321  0.95225  0.01472  Biso   1.000  H
  C46      1.0000 0.68421  0.39770  0.99715  Biso   1.000  C
  C47      1.0000 0.61974  0.62878  0.00863  Biso   1.000  C
  H43      1.0000 0.65731  0.56145  0.02949  Biso   1.000  H
  O9       1.0000 0.57524  0.69477  0.97593  Biso   1.000  O
  H44      1.0000 0.59868  0.88954  0.99119  Biso   1.000  H
  C48      1.0000 0.63471  0.82675  0.02936  Biso   1.000  C
  C49      1.0000 0.58394  0.04623  0.92526  Biso   1.000  C
  O10      1.0000 0.67870  0.76992  0.07015  Biso   1.000  O
  H45      1.0000 0.69698  0.33953  0.98852  Biso   1.000  H
  H46      1.0000 0.69278  0.46982  0.99279  Biso   1.000  H
  H47      1.0000 0.67921  0.38937  0.03719  Biso   1.000  H
  C50      1.0000 0.62215  0.72234  0.05449  Biso   1.000  C
  C51      1.0000 0.55128  0.68821  0.93549  Biso   1.000  C
  H48      1.0000 0.58098  0.97394  0.90689  Biso   1.000  H
  H49      1.0000 0.57629  0.04665  0.96321  Biso   1.000  H
  H50      1.0000 0.57507  0.10314  0.90030  Biso   1.000  H
  C52      1.0000 0.70761  0.78531  0.07558  Biso   1.000  C
  H51      1.0000 0.63362  0.69738  0.08919  Biso   1.000  H
  H52      1.0000 0.60393  0.74008  0.06690  Biso   1.000  H
  H53      1.0000 0.54187  0.61861  0.94119  Biso   1.000  H
  H54      1.0000 0.53919  0.74992  0.94230  Biso   1.000  H
  H55      1.0000 0.55669  0.69166  0.89541  Biso   1.000  H
  H56      1.0000 0.71192  0.85920  0.09079  Biso   1.000  H
  H57      1.0000 0.71602  0.73008  0.10240  Biso   1.000  H
  H58      1.0000 0.71472  0.77707  0.03732  Biso   1.000  H
  N6       1.0000 0.45292  0.44191  0.39953  Biso   1.000  N
  C53      1.0000 0.43070  0.42325  0.42755  Biso   1.000  C
  C54      1.0000 0.46096  0.33541  0.38356  Biso   1.000  C
  N7       1.0000 0.42392  0.31279  0.43111  Biso   1.000  N
  H59      1.0000 0.42048  0.48050  0.44361  Biso   1.000  H
  C55      1.0000 0.44342  0.25462  0.40277  Biso   1.000  C
  C56      1.0000 0.48339  0.29657  0.35188  Biso   1.000  C
  C57      1.0000 0.40160  0.26538  0.46207  Biso   1.000  C
  N8       1.0000 0.44486  0.14291  0.39597  Biso   1.000  N
  N9       1.0000 0.48569  0.18258  0.34490  Biso   1.000  N
  N10      1.0000 0.50159  0.36701  0.32937  Biso   1.000  N
  C58      1.0000 0.37878  0.21638  0.42097  Biso   1.000  C
  H60      1.0000 0.39389  0.32355  0.48601  Biso   1.000  H
  H61      1.0000 0.40909  0.20696  0.48881  Biso   1.000  H
  C59      1.0000 0.46729  0.12088  0.36630  Biso   1.000  C
  H62      1.0000 0.51489  0.34070  0.31029  Biso   1.000  H
  H63      1.0000 0.49999  0.43838  0.33400  Biso   1.000  H
  O11      1.0000 0.36601  0.30674  0.38743  Biso   1.000  O
  H64      1.0000 0.38629  0.16190  0.39459  Biso   1.000  H
  H65      1.0000 0.36530  0.17888  0.44370  Biso   1.000  H
  H66      1.0000 0.46998  0.04464  0.35998  Biso   1.000  H
  C60      1.0000 0.34184  0.28287  0.35286  Biso   1.000  C
  C61      1.0000 0.33254  0.17401  0.34178  Biso   1.000  C
  C62      1.0000 0.32719  0.37433  0.32813  Biso   1.000  C
  C63      1.0000 0.30861  0.15207  0.30588  Biso   1.000  C
  H67      1.0000 0.34259  0.11407  0.35900  Biso   1.000  H
  C64      1.0000 0.30250  0.35222  0.29338  Biso   1.000  C
  C65      1.0000 0.33772  0.49378  0.33680  Biso   1.000  C
  C66      1.0000 0.29345  0.24370  0.28177  Biso   1.000  C
  C67      1.0000 0.29919  0.03253  0.29218  Biso   1.000  C
  H68      1.0000 0.29190  0.41207  0.27781  Biso   1.000  H
  H69      1.0000 0.32248  0.54220  0.34570  Biso   1.000  H
  H70      1.0000 0.35149  0.49597  0.37052  Biso   1.000  H
  C68      1.0000 0.35047  0.53808  0.28213  Biso   1.000  C
  O12      1.0000 0.26968  0.21797  0.24690  Biso   1.000  O
  H71      1.0000 0.27919  0.02833  0.29321  Biso   1.000  H
  C69      1.0000 0.30700  0.99277  0.23199  Biso   1.000  C
  H72      1.0000 0.30749  0.98277  0.32270  Biso   1.000  H
  C70      1.0000 0.33421  0.58557  0.23488  Biso   1.000  C
  C71      1.0000 0.37893  0.52875  0.27755  Biso   1.000  C
  C72      1.0000 0.25270  0.30893  0.22528  Biso   1.000  C
  C73      1.0000 0.28809  0.00000  0.18172  Biso   1.000  C
  C74      1.0000 0.33322  0.95049  0.22443  Biso   1.000  C
  C75      1.0000 0.34634  0.62021  0.18395  Biso   1.000  C
  O13      1.0000 0.30657  0.59802  0.24191  Biso   1.000  O
  H73      1.0000 0.39010  0.49899  0.30922  Biso   1.000  H
  C76      1.0000 0.39106  0.56347  0.22630  Biso   1.000  C
  H74      1.0000 0.24949  0.35852  0.25748  Biso   1.000  H
  H75      1.0000 0.23529  0.28018  0.20802  Biso   1.000  H
  H76      1.0000 0.26180  0.34919  0.19560  Biso   1.000  H
  H77      1.0000 0.27040  0.02808  0.18582  Biso   1.000  H
  C77      1.0000 0.29512  0.96629  0.12647  Biso   1.000  C
  C78      1.0000 0.34034  0.91552  0.16882  Biso   1.000  C
  O14      1.0000 0.35302  0.95024  0.27256  Biso   1.000  O
  C79      1.0000 0.37450  0.60827  0.17883  Biso   1.000  C
  H78      1.0000 0.33531  0.65198  0.15272  Biso   1.000  H
  C80      1.0000 0.28986  0.63862  0.19196  Biso   1.000  C
  O15      1.0000 0.41865  0.55649  0.21940  Biso   1.000  O
  C81      1.0000 0.32161  0.92266  0.11864  Biso   1.000  C
  O16      1.0000 0.27731  0.97209  0.07558  Biso   1.000  O
  H79      1.0000 0.35800  0.88660  0.16509  Biso   1.000  H
  C82      1.0000 0.35868  0.84222  0.29832  Biso   1.000  C
  C83      1.0000 0.38712  0.63979  0.12162  Biso   1.000  C
  H80      1.0000 0.29529  0.71411  0.18319  Biso   1.000  H
  H81      1.0000 0.27081  0.63795  0.20050  Biso   1.000  H
  H82      1.0000 0.29220  0.59129  0.15819  Biso   1.000  H
  C84      1.0000 0.43731  0.54010  0.27390  Biso   1.000  C
  C85      1.0000 0.43324  0.46100  0.24890  Biso   1.000  C
  C86      1.0000 0.32974  0.88988  0.05752  Biso   1.000  C
  C87      1.0000 0.25269  0.03489  0.07878  Biso   1.000  C
  H83      1.0000 0.34210  0.81279  0.31318  Biso   1.000  H
  H84      1.0000 0.37288  0.84902  0.33040  Biso   1.000  H
  H85      1.0000 0.36490  0.79228  0.26869  Biso   1.000  H
  H86      1.0000 0.40659  0.65736  0.13039  Biso   1.000  H
  H87      1.0000 0.37789  0.70637  0.10481  Biso   1.000  H
  C88      1.0000 0.38425  0.54480  0.07634  Biso   1.000  C
  H88      1.0000 0.43090  0.58482  0.30562  Biso   1.000  H
  H89      1.0000 0.45579  0.56271  0.26660  Biso   1.000  H
  H90      1.0000 0.43729  0.46217  0.28511  Biso   1.000  H
  H91      1.0000 0.43119  0.46411  0.29089  Biso   1.000  H
  H92      1.0000 0.45249  0.46453  0.24209  Biso   1.000  H
  H93      1.0000 0.42550  0.39198  0.23302  Biso   1.000  H
  C89      1.0000 0.34257  0.98697  0.02594  Biso   1.000  C
  H94      1.0000 0.31339  0.86382  0.03372  Biso   1.000  H
  H95      1.0000 0.34290  0.82818  0.06148  Biso   1.000  H
  H96      1.0000 0.24359  0.04287  0.03959  Biso   1.000  H
  H97      1.0000 0.25721  0.10794  0.09502  Biso   1.000  H
  H98      1.0000 0.24071  0.99647  0.10392  Biso   1.000  H
  C90      1.0000 0.36035  0.53245  0.03781  Biso   1.000  C
  C91      1.0000 0.40577  0.46881  0.07233  Biso   1.000  C
  C92      1.0000 0.37106  0.00723  0.03212  Biso   1.000  C
  C93      1.0000 0.32573  0.06078  0.99075  Biso   1.000  C
  O17      1.0000 0.33989  0.61029  0.04288  Biso   1.000  O
  C94      1.0000 0.35865  0.44595  0.99595  Biso   1.000  C
  H99      1.0000 0.42171  0.47604  0.09791  Biso   1.000  H
  C95      1.0000 0.40397  0.38156  0.03070  Biso   1.000  C
  C96      1.0000 0.38223  0.09860  0.00458  Biso   1.000  C
  O18      1.0000 0.38688  0.93157  0.06664  Biso   1.000  O
  C97      1.0000 0.33691  0.15308  0.96388  Biso   1.000  C
  H100     1.0000 0.30675  0.04766  0.98532  Biso   1.000  H
  C98      1.0000 0.31578  0.60230  0.00285  Biso   1.000  C
  C99      1.0000 0.38025  0.37122  0.99137  Biso   1.000  C
  H101     1.0000 0.34265  0.43847  0.97051  Biso   1.000  H
  O19      1.0000 0.42475  0.30523  0.02407  Biso   1.000  O
  H102     1.0000 0.40131  0.11037  0.00881  Biso   1.000  H
  C100     1.0000 0.36525  0.17317  0.97064  Biso   1.000  C
  C101     1.0000 0.41602  0.95368  0.07474  Biso   1.000  C
  O20      1.0000 0.32129  0.22999  0.92985  Biso   1.000  O
  H103     1.0000 0.30301  0.66047  0.01152  Biso   1.000  H
  H104     1.0000 0.30721  0.53018  0.00721  Biso   1.000  H
  H105     1.0000 0.32076  0.61054  0.96281  Biso   1.000  H
  C102     1.0000 0.37782  0.27757  0.94550  Biso   1.000  C
  C103     1.0000 0.44869  0.31179  0.06450  Biso   1.000  C
  H106     1.0000 0.41901  0.02598  0.09311  Biso   1.000  H
  H107     1.0000 0.42370  0.95326  0.03679  Biso   1.000  H
  H108     1.0000 0.42490  0.89677  0.09969  Biso   1.000  H
  C104     1.0000 0.29238  0.21469  0.92442  Biso   1.000  C
  H109     1.0000 0.36637  0.30262  0.91081  Biso   1.000  H
  H110     1.0000 0.39606  0.25992  0.93309  Biso   1.000  H
  H111     1.0000 0.45810  0.38139  0.05881  Biso   1.000  H
  H112     1.0000 0.46080  0.25008  0.05770  Biso   1.000  H
  H113     1.0000 0.44330  0.30825  0.10459  Biso   1.000  H
  H114     1.0000 0.28806  0.14080  0.90920  Biso   1.000  H
  H115     1.0000 0.28397  0.26992  0.89759  Biso   1.000  H
  H116     1.0000 0.28527  0.22293  0.96272  Biso   1.000  H
  C105     1.0000 0.55130  0.31179  0.43552  Biso   1.000  C
  O21      1.0000 0.57523  0.30523  0.47591  Biso   1.000  O
  H117     1.0000 0.54189  0.38139  0.44121  Biso   1.000  H
  H118     1.0000 0.53918  0.25008  0.44232  Biso   1.000  H
  H119     1.0000 0.55669  0.30825  0.39539  Biso   1.000  H
  C106     1.0000 0.59601  0.38156  0.46928  Biso   1.000  C
  C107     1.0000 0.59421  0.46881  0.42769  Biso   1.000  C
  C108     1.0000 0.61972  0.37122  0.50865  Biso   1.000  C
  C109     1.0000 0.61575  0.54480  0.42368  Biso   1.000  C
  H120     1.0000 0.57830  0.47604  0.40211  Biso   1.000  H
  C110     1.0000 0.64132  0.44595  0.50407  Biso   1.000  C
  C111     1.0000 0.62213  0.27757  0.55447  Biso   1.000  C
  C112     1.0000 0.61289  0.63979  0.37835  Biso   1.000  C
  C113     1.0000 0.63963  0.53245  0.46221  Biso   1.000  C
  H121     1.0000 0.65729  0.43847  0.52951  Biso   1.000  H
  C114     1.0000 0.63469  0.17317  0.52934  Biso   1.000  C
  H122     1.0000 0.63360  0.30262  0.58921  Biso   1.000  H
  H123     1.0000 0.60388  0.25992  0.56688  Biso   1.000  H
  C115     1.0000 0.62548  0.60827  0.32119  Biso   1.000  C
  H124     1.0000 0.59339  0.65736  0.36959  Biso   1.000  H
  H125     1.0000 0.62209  0.70637  0.39521  Biso   1.000  H
  O22      1.0000 0.66012  0.61029  0.45709  Biso   1.000  O
  C116     1.0000 0.61777  0.09860  0.49544  Biso   1.000  C
  C117     1.0000 0.66303  0.15308  0.53610  Biso   1.000  C
  C118     1.0000 0.65364  0.62021  0.31603  Biso   1.000  C
  C119     1.0000 0.60892  0.56347  0.27368  Biso   1.000  C
  C120     1.0000 0.68422  0.60230  0.49717  Biso   1.000  C
  C121     1.0000 0.62892  0.00723  0.46790  Biso   1.000  C
  H126     1.0000 0.59869  0.11037  0.49121  Biso   1.000  H
  C122     1.0000 0.67423  0.06078  0.50923  Biso   1.000  C
  O23      1.0000 0.67867  0.22999  0.57017  Biso   1.000  O
  C123     1.0000 0.66577  0.58557  0.26514  Biso   1.000  C
  H127     1.0000 0.66470  0.65198  0.34730  Biso   1.000  H
  C124     1.0000 0.62106  0.52875  0.22243  Biso   1.000  C
  O24      1.0000 0.58136  0.55649  0.28062  Biso   1.000  O
  H128     1.0000 0.67919  0.61054  0.53721  Biso   1.000  H
  H129     1.0000 0.69699  0.66047  0.48850  Biso   1.000  H
  H130     1.0000 0.69280  0.53018  0.49281  Biso   1.000  H
  C125     1.0000 0.65741  0.98697  0.47409  Biso   1.000  C
  O25      1.0000 0.61312  0.93157  0.43334  Biso   1.000  O
  H131     1.0000 0.69319  0.04766  0.51470  Biso   1.000  H
  C126     1.0000 0.70759  0.21469  0.57560  Biso   1.000  C
  C127     1.0000 0.64951  0.53808  0.21785  Biso   1.000  C
  O26      1.0000 0.69343  0.59802  0.25811  Biso   1.000  O
  H132     1.0000 0.60989  0.49899  0.19080  Biso   1.000  H
  C128     1.0000 0.56268  0.54010  0.22612  Biso   1.000  C
  C129     1.0000 0.56676  0.46100  0.25108  Biso   1.000  C
  C130     1.0000 0.67027  0.88988  0.44246  Biso   1.000  C
  C131     1.0000 0.58396  0.95368  0.42528  Biso   1.000  C
  H133     1.0000 0.71190  0.14080  0.59082  Biso   1.000  H
  H134     1.0000 0.71599  0.26992  0.60238  Biso   1.000  H
  H135     1.0000 0.71470  0.22293  0.53730  Biso   1.000  H
  C132     1.0000 0.66226  0.49378  0.16317  Biso   1.000  C
  C133     1.0000 0.71013  0.63862  0.30806  Biso   1.000  C
  H136     1.0000 0.56911  0.58482  0.19440  Biso   1.000  H
  H137     1.0000 0.54420  0.56271  0.23342  Biso   1.000  H
  H138     1.0000 0.56269  0.46217  0.21491  Biso   1.000  H
  H139     1.0000 0.56879  0.46411  0.20908  Biso   1.000  H
  H140     1.0000 0.54750  0.46453  0.25788  Biso   1.000  H
  H141     1.0000 0.57451  0.39198  0.26700  Biso   1.000  H
  C134     1.0000 0.67837  0.92266  0.38138  Biso   1.000  C
  H142     1.0000 0.68659  0.86382  0.46630  Biso   1.000  H
  H143     1.0000 0.65708  0.82818  0.43850  Biso   1.000  H
  H144     1.0000 0.58100  0.02598  0.40691  Biso   1.000  H
  H145     1.0000 0.57628  0.95326  0.46319  Biso   1.000  H
  H146     1.0000 0.57509  0.89677  0.40028  Biso   1.000  H
  C135     1.0000 0.67281  0.37433  0.17185  Biso   1.000  C
  H147     1.0000 0.67750  0.54220  0.15432  Biso   1.000  H
  H148     1.0000 0.64850  0.49597  0.12950  Biso   1.000  H
  H149     1.0000 0.70469  0.71411  0.31678  Biso   1.000  H
  H150     1.0000 0.72920  0.63795  0.29948  Biso   1.000  H
  H151     1.0000 0.70780  0.59129  0.34178  Biso   1.000  H
  C136     1.0000 0.70489  0.96629  0.37355  Biso   1.000  C
  C137     1.0000 0.65967  0.91552  0.33115  Biso   1.000  C
  C138     1.0000 0.65815  0.28287  0.14716  Biso   1.000  C
  C139     1.0000 0.69748  0.35222  0.20659  Biso   1.000  C
  C140     1.0000 0.71189  0.00000  0.31825  Biso   1.000  C
  O27      1.0000 0.72269  0.97209  0.42444  Biso   1.000  O
  C141     1.0000 0.66679  0.95049  0.27559  Biso   1.000  C
  H152     1.0000 0.64200  0.88660  0.33489  Biso   1.000  H
  O28      1.0000 0.63398  0.30674  0.11255  Biso   1.000  O
  C142     1.0000 0.66746  0.17401  0.15819  Biso   1.000  C
  C143     1.0000 0.70653  0.24370  0.21825  Biso   1.000  C
  H153     1.0000 0.70809  0.41207  0.22221  Biso   1.000  H
  C144     1.0000 0.69300  0.99277  0.26803  Biso   1.000  C
  H154     1.0000 0.72959  0.02808  0.31420  Biso   1.000  H
  C145     1.0000 0.74729  0.03489  0.42119  Biso   1.000  C
  O29      1.0000 0.64696  0.95024  0.22746  Biso   1.000  O
  C146     1.0000 0.62121  0.21638  0.07901  Biso   1.000  C
  H155     1.0000 0.65740  0.11407  0.14102  Biso   1.000  H
  C147     1.0000 0.69139  0.15207  0.19414  Biso   1.000  C
  O30      1.0000 0.73032  0.21797  0.25308  Biso   1.000  O
  C148     1.0000 0.70079  0.03253  0.20784  Biso   1.000  C
  H156     1.0000 0.75639  0.04287  0.46038  Biso   1.000  H
  H157     1.0000 0.74280  0.10794  0.40500  Biso   1.000  H
  H158     1.0000 0.75930  0.99647  0.39610  Biso   1.000  H
  C149     1.0000 0.64130  0.84222  0.20170  Biso   1.000  C
  C150     1.0000 0.59839  0.26538  0.03795  Biso   1.000  C
  H159     1.0000 0.61369  0.16190  0.10539  Biso   1.000  H
  H160     1.0000 0.63471  0.17888  0.05632  Biso   1.000  H
  C151     1.0000 0.74731  0.30893  0.27470  Biso   1.000  C
  H161     1.0000 0.72079  0.02833  0.20681  Biso   1.000  H
  H162     1.0000 0.69250  0.98277  0.17732  Biso   1.000  H
  H163     1.0000 0.65790  0.81279  0.18680  Biso   1.000  H
  H164     1.0000 0.62710  0.84902  0.16958  Biso   1.000  H
  H165     1.0000 0.63510  0.79228  0.23128  Biso   1.000  H
  N11      1.0000 0.57609  0.31279  0.06891  Biso   1.000  N
  H166     1.0000 0.60610  0.32355  0.01401  Biso   1.000  H
  H167     1.0000 0.59091  0.20696  0.01121  Biso   1.000  H
  H168     1.0000 0.75049  0.35852  0.24249  Biso   1.000  H
  H169     1.0000 0.76469  0.28018  0.29200  Biso   1.000  H
  H170     1.0000 0.73820  0.34919  0.30442  Biso   1.000  H
  C152     1.0000 0.55656  0.25462  0.09720  Biso   1.000  C
  C153     1.0000 0.56928  0.42325  0.07242  Biso   1.000  C
  C154     1.0000 0.53903  0.33541  0.11642  Biso   1.000  C
  N12      1.0000 0.55512  0.14291  0.10401  Biso   1.000  N
  N13      1.0000 0.54706  0.44191  0.10049  Biso   1.000  N
  H171     1.0000 0.57950  0.48050  0.05641  Biso   1.000  H
  C155     1.0000 0.51659  0.29657  0.14809  Biso   1.000  C
  C156     1.0000 0.53272  0.12088  0.13368  Biso   1.000  C
  N14      1.0000 0.49842  0.36701  0.17065  Biso   1.000  N
  N15      1.0000 0.51429  0.18258  0.15508  Biso   1.000  N
  H172     1.0000 0.53000  0.04464  0.14000  Biso   1.000  H
  H173     1.0000 0.48509  0.34070  0.18969  Biso   1.000  H
  H174     1.0000 0.50000  0.43838  0.16602  Biso   1.000  H
  C157     1.0000 0.44867  0.68821  0.56448  Biso   1.000  C
  O31      1.0000 0.42474  0.69477  0.52409  Biso   1.000  O
  H175     1.0000 0.45808  0.61861  0.55879  Biso   1.000  H
  H176     1.0000 0.46079  0.74992  0.55772  Biso   1.000  H
  H177     1.0000 0.44328  0.69166  0.60461  Biso   1.000  H
  C158     1.0000 0.40398  0.61836  0.53072  Biso   1.000  C
  C159     1.0000 0.40577  0.53119  0.57231  Biso   1.000  C
  C160     1.0000 0.38027  0.62878  0.49135  Biso   1.000  C
  C161     1.0000 0.38424  0.45520  0.57631  Biso   1.000  C
  H178     1.0000 0.42169  0.52387  0.59789  Biso   1.000  H
  C162     1.0000 0.35867  0.55397  0.49593  Biso   1.000  C
  C163     1.0000 0.37784  0.72234  0.44553  Biso   1.000  C
  C164     1.0000 0.36033  0.46755  0.53779  Biso   1.000  C
  C165     1.0000 0.38710  0.36021  0.62164  Biso   1.000  C
  H179     1.0000 0.34270  0.56145  0.47048  Biso   1.000  H
  H180     1.0000 0.36639  0.69738  0.41078  Biso   1.000  H
  H181     1.0000 0.39609  0.74008  0.43311  Biso   1.000  H
  C166     1.0000 0.36528  0.82675  0.47066  Biso   1.000  C
  O32      1.0000 0.33987  0.38971  0.54290  Biso   1.000  O
  C167     1.0000 0.37449  0.39173  0.67881  Biso   1.000  C
  H182     1.0000 0.40658  0.34255  0.63041  Biso   1.000  H
  H183     1.0000 0.37789  0.29363  0.60478  Biso   1.000  H
  C168     1.0000 0.33693  0.84684  0.46390  Biso   1.000  C
  C169     1.0000 0.38221  0.90140  0.50456  Biso   1.000  C
  C170     1.0000 0.31576  0.39770  0.50282  Biso   1.000  C
  C171     1.0000 0.39105  0.43645  0.72632  Biso   1.000  C
  C172     1.0000 0.34632  0.37979  0.68397  Biso   1.000  C
  C173     1.0000 0.32576  0.93914  0.49077  Biso   1.000  C
  O33      1.0000 0.32132  0.76992  0.42982  Biso   1.000  O
  H184     1.0000 0.40129  0.88954  0.50878  Biso   1.000  H
  C174     1.0000 0.37107  0.99277  0.53214  Biso   1.000  C
  H185     1.0000 0.32078  0.38937  0.46279  Biso   1.000  H
  H186     1.0000 0.30299  0.33953  0.51150  Biso   1.000  H
  H187     1.0000 0.30719  0.46982  0.50718  Biso   1.000  H
  C175     1.0000 0.37893  0.47117  0.77757  Biso   1.000  C
  O34      1.0000 0.41863  0.44351  0.71938  Biso   1.000  O
  C176     1.0000 0.33419  0.41443  0.73486  Biso   1.000  C
  H188     1.0000 0.33529  0.34802  0.65270  Biso   1.000  H
  H189     1.0000 0.30680  0.95225  0.48530  Biso   1.000  H
  C177     1.0000 0.34256  0.01295  0.52591  Biso   1.000  C
  C178     1.0000 0.29240  0.78531  0.42439  Biso   1.000  C
  O35      1.0000 0.38687  0.06843  0.56666  Biso   1.000  O
  C179     1.0000 0.35046  0.46192  0.78215  Biso   1.000  C
  H190     1.0000 0.39008  0.50101  0.80920  Biso   1.000  H
  C180     1.0000 0.43729  0.45990  0.77392  Biso   1.000  C
  C181     1.0000 0.43323  0.53900  0.74892  Biso   1.000  C
  O36      1.0000 0.30655  0.40198  0.74189  Biso   1.000  O
  C182     1.0000 0.32972  0.11004  0.55754  Biso   1.000  C
  H191     1.0000 0.28809  0.85920  0.40918  Biso   1.000  H
  H192     1.0000 0.28400  0.73008  0.39761  Biso   1.000  H
  H193     1.0000 0.28529  0.77707  0.46270  Biso   1.000  H
  C183     1.0000 0.41603  0.04623  0.57471  Biso   1.000  C
  C184     1.0000 0.33771  0.50622  0.83682  Biso   1.000  C
  H194     1.0000 0.43088  0.41518  0.80559  Biso   1.000  H
  H195     1.0000 0.45579  0.43729  0.76658  Biso   1.000  H
  H196     1.0000 0.43728  0.53774  0.78509  Biso   1.000  H
  H197     1.0000 0.43118  0.53589  0.79091  Biso   1.000  H
  H198     1.0000 0.45249  0.53547  0.74211  Biso   1.000  H
  H199     1.0000 0.42548  0.60802  0.73299  Biso   1.000  H
  C185     1.0000 0.28986  0.36138  0.69193  Biso   1.000  C
  H200     1.0000 0.31339  0.13618  0.53370  Biso   1.000  H
  H201     1.0000 0.34288  0.17174  0.56150  Biso   1.000  H
  C186     1.0000 0.32159  0.07725  0.61862  Biso   1.000  C
  H202     1.0000 0.41899  0.97394  0.59308  Biso   1.000  H
  H203     1.0000 0.42369  0.04665  0.53681  Biso   1.000  H
  H204     1.0000 0.42488  0.10314  0.59971  Biso   1.000  H
  C187     1.0000 0.32718  0.62559  0.82815  Biso   1.000  C
  H205     1.0000 0.32249  0.45780  0.84572  Biso   1.000  H
  H206     1.0000 0.35147  0.50395  0.87050  Biso   1.000  H
  H207     1.0000 0.29528  0.28589  0.68321  Biso   1.000  H
  H208     1.0000 0.27079  0.36197  0.70052  Biso   1.000  H
  H209     1.0000 0.29219  0.40871  0.65821  Biso   1.000  H
  C188     1.0000 0.29510  0.03362  0.62645  Biso   1.000  C
  C189     1.0000 0.34032  0.08448  0.66884  Biso   1.000  C
  C190     1.0000 0.34182  0.71705  0.85284  Biso   1.000  C
  C191     1.0000 0.30248  0.64778  0.79340  Biso   1.000  C
  C192     1.0000 0.28809  0.00000  0.68174  Biso   1.000  C
  O37      1.0000 0.27730  0.02782  0.57560  Biso   1.000  O
  H210     1.0000 0.35798  0.11340  0.66511  Biso   1.000  H
  C193     1.0000 0.33320  0.04943  0.72441  Biso   1.000  C
  C194     1.0000 0.33252  0.82599  0.84180  Biso   1.000  C
  O38      1.0000 0.36599  0.69326  0.88745  Biso   1.000  O
  C195     1.0000 0.29343  0.75630  0.78175  Biso   1.000  C
  H211     1.0000 0.29188  0.58784  0.77779  Biso   1.000  H
  H212     1.0000 0.27038  0.97184  0.68579  Biso   1.000  H
  C196     1.0000 0.30699  0.00715  0.73197  Biso   1.000  C
  C197     1.0000 0.25270  0.96503  0.57880  Biso   1.000  C
  O39      1.0000 0.35301  0.04976  0.77254  Biso   1.000  O
  H213     1.0000 0.34259  0.88584  0.85902  Biso   1.000  H
  C198     1.0000 0.30859  0.84785  0.80586  Biso   1.000  C
  C199     1.0000 0.37876  0.78354  0.92099  Biso   1.000  C
  O40      1.0000 0.26967  0.78194  0.74692  Biso   1.000  O
  C200     1.0000 0.29917  0.96747  0.79216  Biso   1.000  C
  H214     1.0000 0.24360  0.95704  0.53961  Biso   1.000  H
  H215     1.0000 0.25719  0.89206  0.59500  Biso   1.000  H
  H216     1.0000 0.24069  0.00345  0.60389  Biso   1.000  H
  C201     1.0000 0.35867  0.15778  0.79834  Biso   1.000  C
  H217     1.0000 0.38628  0.83810  0.89461  Biso   1.000  H
  H218     1.0000 0.36528  0.82103  0.94372  Biso   1.000  H
  C202     1.0000 0.40158  0.73462  0.96205  Biso   1.000  C
  C203     1.0000 0.25268  0.69107  0.72530  Biso   1.000  C
  H219     1.0000 0.27918  0.97167  0.79318  Biso   1.000  H
  H220     1.0000 0.30747  0.01715  0.82272  Biso   1.000  H
  H221     1.0000 0.34208  0.18712  0.81320  Biso   1.000  H
  H222     1.0000 0.37289  0.15098  0.83042  Biso   1.000  H
  H223     1.0000 0.36488  0.20763  0.76871  Biso   1.000  H
  H224     1.0000 0.39387  0.67636  0.98598  Biso   1.000  H
  H225     1.0000 0.40908  0.79296  0.98879  Biso   1.000  H
  N16      1.0000 0.42390  0.68721  0.93109  Biso   1.000  N
  H226     1.0000 0.24947  0.64148  0.75750  Biso   1.000  H
  H227     1.0000 0.23528  0.71974  0.70799  Biso   1.000  H
  H228     1.0000 0.26178  0.65081  0.69558  Biso   1.000  H
  C204     1.0000 0.43071  0.57666  0.92757  Biso   1.000  C
  C205     1.0000 0.44343  0.74538  0.90279  Biso   1.000  C
  H229     1.0000 0.42049  0.51950  0.94359  Biso   1.000  H
  N17      1.0000 0.45293  0.55809  0.89950  Biso   1.000  N
  C206     1.0000 0.46094  0.66459  0.88358  Biso   1.000  C
  N18      1.0000 0.44484  0.85709  0.89599  Biso   1.000  N
  C207     1.0000 0.48340  0.70335  0.85190  Biso   1.000  C
  C208     1.0000 0.46727  0.87903  0.86632  Biso   1.000  C
  N19      1.0000 0.48568  0.81733  0.84492  Biso   1.000  N
  N20      1.0000 0.50157  0.63299  0.82935  Biso   1.000  N
  H230     1.0000 0.46999  0.95536  0.86000  Biso   1.000  H
  H231     1.0000 0.51488  0.65930  0.81031  Biso   1.000  H
  H232     1.0000 0.49999  0.56162  0.83402  Biso   1.000  H
  C209     1.0000 0.75270  0.46511  0.57880  Biso   1.000  C
  H233     1.0000 0.74069  0.50345  0.60389  Biso   1.000  H
  H234     1.0000 0.74360  0.45704  0.53961  Biso   1.000  H
  H235     1.0000 0.75719  0.39206  0.59500  Biso   1.000  H
  O41      1.0000 0.77730  0.52791  0.57560  Biso   1.000  O
  C210     1.0000 0.79510  0.53371  0.62645  Biso   1.000  C
  C211     1.0000 0.82159  0.57725  0.61862  Biso   1.000  C
  C212     1.0000 0.78809  0.50000  0.68174  Biso   1.000  C
  C213     1.0000 0.82972  0.61012  0.55754  Biso   1.000  C
  C214     1.0000 0.84032  0.58448  0.66884  Biso   1.000  C
  C215     1.0000 0.80699  0.50715  0.73197  Biso   1.000  C
  H236     1.0000 0.77038  0.47192  0.68579  Biso   1.000  H
  C216     1.0000 0.84256  0.51303  0.52591  Biso   1.000  C
  H237     1.0000 0.81339  0.63618  0.53370  Biso   1.000  H
  H238     1.0000 0.84288  0.67174  0.56150  Biso   1.000  H
  H239     1.0000 0.85798  0.61340  0.66511  Biso   1.000  H
  C217     1.0000 0.83320  0.54943  0.72441  Biso   1.000  C
  C218     1.0000 0.79917  0.46747  0.79216  Biso   1.000  C
  C219     1.0000 0.87107  0.49277  0.53214  Biso   1.000  C
  C220     1.0000 0.82576  0.43922  0.49077  Biso   1.000  C
  O42      1.0000 0.85301  0.54976  0.77254  Biso   1.000  O
  C221     1.0000 0.80859  0.34785  0.80586  Biso   1.000  C
  H240     1.0000 0.80749  0.51715  0.82272  Biso   1.000  H
  H241     1.0000 0.77918  0.47167  0.79318  Biso   1.000  H
  C222     1.0000 0.88221  0.40140  0.50456  Biso   1.000  C
  O43      1.0000 0.88687  0.56843  0.56666  Biso   1.000  O
  C223     1.0000 0.83693  0.34692  0.46390  Biso   1.000  C
  H242     1.0000 0.80680  0.45225  0.48530  Biso   1.000  H
  C224     1.0000 0.85867  0.65778  0.79834  Biso   1.000  C
  C225     1.0000 0.83252  0.32599  0.84180  Biso   1.000  C
  C226     1.0000 0.79345  0.25630  0.78175  Biso   1.000  C
  C227     1.0000 0.86530  0.32675  0.47066  Biso   1.000  C
  H243     1.0000 0.90129  0.38963  0.50878  Biso   1.000  H
  C228     1.0000 0.91603  0.54632  0.57471  Biso   1.000  C
  O44      1.0000 0.82132  0.27001  0.42982  Biso   1.000  O
  H244     1.0000 0.84208  0.68721  0.81320  Biso   1.000  H
  H245     1.0000 0.87289  0.65098  0.83042  Biso   1.000  H
  H246     1.0000 0.86488  0.70772  0.76871  Biso   1.000  H
  C229     1.0000 0.84184  0.21713  0.85284  Biso   1.000  C
  H247     1.0000 0.84259  0.38593  0.85902  Biso   1.000  H
  C230     1.0000 0.80248  0.14778  0.79340  Biso   1.000  C
  O45      1.0000 0.76967  0.28203  0.74692  Biso   1.000  O
  C231     1.0000 0.87786  0.22243  0.44553  Biso   1.000  C
  H248     1.0000 0.92369  0.54665  0.53681  Biso   1.000  H
  H249     1.0000 0.92488  0.60314  0.59971  Biso   1.000  H
  H250     1.0000 0.91899  0.47402  0.59308  Biso   1.000  H
  C232     1.0000 0.79240  0.28531  0.42439  Biso   1.000  C
  C233     1.0000 0.82718  0.12567  0.82815  Biso   1.000  C
  O46      1.0000 0.86601  0.19326  0.88745  Biso   1.000  O
  H251     1.0000 0.79188  0.08793  0.77779  Biso   1.000  H
  C234     1.0000 0.75268  0.19107  0.72530  Biso   1.000  C
  C235     1.0000 0.88027  0.12878  0.49135  Biso   1.000  C
  H252     1.0000 0.86639  0.19738  0.41078  Biso   1.000  H
  H253     1.0000 0.89609  0.24008  0.43311  Biso   1.000  H
  H254     1.0000 0.78809  0.35920  0.40918  Biso   1.000  H
  H255     1.0000 0.78400  0.23008  0.39761  Biso   1.000  H
  H256     1.0000 0.78529  0.27707  0.46270  Biso   1.000  H
  C236     1.0000 0.83771  0.00622  0.83682  Biso   1.000  C
  C237     1.0000 0.87878  0.28362  0.92099  Biso   1.000  C
  H257     1.0000 0.74949  0.14148  0.75750  Biso   1.000  H
  H258     1.0000 0.73528  0.21982  0.70799  Biso   1.000  H
  H259     1.0000 0.76178  0.15081  0.69558  Biso   1.000  H
  C238     1.0000 0.90398  0.11836  0.53072  Biso   1.000  C
  C239     1.0000 0.85867  0.05397  0.49593  Biso   1.000  C
  H260     1.0000 0.85149  0.00403  0.87050  Biso   1.000  H
  H261     1.0000 0.82249  0.95780  0.84572  Biso   1.000  H
  C240     1.0000 0.85046  0.96192  0.78215  Biso   1.000  C
  H262     1.0000 0.88628  0.33810  0.89461  Biso   1.000  H
  H263     1.0000 0.86528  0.32112  0.94372  Biso   1.000  H
  C241     1.0000 0.90158  0.23462  0.96205  Biso   1.000  C
  C242     1.0000 0.90577  0.03119  0.57231  Biso   1.000  C
  O47      1.0000 0.92474  0.19477  0.52409  Biso   1.000  O
  H264     1.0000 0.84270  0.06153  0.47048  Biso   1.000  H
  C243     1.0000 0.86033  0.96755  0.53779  Biso   1.000  C
  C244     1.0000 0.83419  0.91443  0.73486  Biso   1.000  C
  C245     1.0000 0.87893  0.97117  0.77757  Biso   1.000  C
  H265     1.0000 0.89387  0.17636  0.98598  Biso   1.000  H
  H266     1.0000 0.90908  0.29296  0.98879  Biso   1.000  H
  N21      1.0000 0.92390  0.18721  0.93109  Biso   1.000  N
  H267     1.0000 0.92169  0.02387  0.59789  Biso   1.000  H
  C246     1.0000 0.88424  0.95520  0.57631  Biso   1.000  C
  C247     1.0000 0.94869  0.18821  0.56448  Biso   1.000  C
  O48      1.0000 0.83987  0.88971  0.54290  Biso   1.000  O
  C248     1.0000 0.84632  0.87979  0.68397  Biso   1.000  C
  O49      1.0000 0.80655  0.90198  0.74189  Biso   1.000  O
  H268     1.0000 0.89008  0.00101  0.80920  Biso   1.000  H
  C249     1.0000 0.89105  0.93653  0.72632  Biso   1.000  C
  C250     1.0000 0.93071  0.07666  0.92757  Biso   1.000  C
  C251     1.0000 0.94343  0.24538  0.90279  Biso   1.000  C
  C252     1.0000 0.88710  0.86021  0.62164  Biso   1.000  C
  H269     1.0000 0.95808  0.11861  0.55879  Biso   1.000  H
  H270     1.0000 0.96079  0.24992  0.55772  Biso   1.000  H
  H271     1.0000 0.94328  0.19166  0.60461  Biso   1.000  H
  C253     1.0000 0.81576  0.89770  0.50282  Biso   1.000  C
  C254     1.0000 0.87449  0.89173  0.67881  Biso   1.000  C
  H272     1.0000 0.83529  0.84802  0.65270  Biso   1.000  H
  C255     1.0000 0.78986  0.86138  0.69193  Biso   1.000  C
  O50      1.0000 0.91863  0.94351  0.71938  Biso   1.000  O
  H273     1.0000 0.92049  0.01950  0.94359  Biso   1.000  H
  N22      1.0000 0.95293  0.05809  0.89950  Biso   1.000  N
  C256     1.0000 0.96096  0.16459  0.88358  Biso   1.000  C
  N23      1.0000 0.94484  0.35709  0.89599  Biso   1.000  N
  H274     1.0000 0.90658  0.84264  0.63041  Biso   1.000  H
  H275     1.0000 0.87789  0.79363  0.60478  Biso   1.000  H
  H276     1.0000 0.82078  0.88937  0.46279  Biso   1.000  H
  H277     1.0000 0.80299  0.83953  0.51150  Biso   1.000  H
  H278     1.0000 0.80719  0.96982  0.50718  Biso   1.000  H
  H279     1.0000 0.79530  0.78589  0.68321  Biso   1.000  H
  H280     1.0000 0.77079  0.86197  0.70052  Biso   1.000  H
  H281     1.0000 0.79219  0.90871  0.65821  Biso   1.000  H
  C257     1.0000 0.93323  0.03900  0.74892  Biso   1.000  C
  C258     1.0000 0.93729  0.95990  0.77392  Biso   1.000  C
  C259     1.0000 0.98340  0.20343  0.85190  Biso   1.000  C
  C260     1.0000 0.96727  0.37912  0.86632  Biso   1.000  C
  H282     1.0000 0.93728  0.03783  0.78509  Biso   1.000  H
  H283     1.0000 0.93118  0.03589  0.79091  Biso   1.000  H
  H284     1.0000 0.95249  0.03547  0.74211  Biso   1.000  H
  H285     1.0000 0.92548  0.10802  0.73299  Biso   1.000  H
  H286     1.0000 0.93088  0.91518  0.80559  Biso   1.000  H
  H287     1.0000 0.95579  0.93729  0.76658  Biso   1.000  H
  N24      1.0000 0.98568  0.31742  0.84492  Biso   1.000  N
  N25      1.0000 0.00157  0.13299  0.82935  Biso   1.000  N
  H288     1.0000 0.96999  0.45536  0.86000  Biso   1.000  H
  H289     1.0000 0.01488  0.15930  0.81031  Biso   1.000  H
  H290     1.0000 0.99999  0.06162  0.83402  Biso   1.000  H
  C261     1.0000 0.24729  0.53489  0.42119  Biso   1.000  C
  O51      1.0000 0.22269  0.47209  0.42444  Biso   1.000  O
  H291     1.0000 0.25930  0.49647  0.39610  Biso   1.000  H
  H292     1.0000 0.25639  0.54287  0.46038  Biso   1.000  H
  H293     1.0000 0.24280  0.60785  0.40500  Biso   1.000  H
  C262     1.0000 0.20489  0.46629  0.37355  Biso   1.000  C
  C263     1.0000 0.21189  0.50000  0.31825  Biso   1.000  C
  C264     1.0000 0.17837  0.42266  0.38138  Biso   1.000  C
  C265     1.0000 0.19300  0.49277  0.26803  Biso   1.000  C
  H294     1.0000 0.22959  0.52808  0.31420  Biso   1.000  H
  C266     1.0000 0.17027  0.38988  0.44246  Biso   1.000  C
  C267     1.0000 0.15967  0.41552  0.33115  Biso   1.000  C
  C268     1.0000 0.16677  0.45049  0.27559  Biso   1.000  C
  C269     1.0000 0.20079  0.53245  0.20784  Biso   1.000  C
  C270     1.0000 0.15741  0.48697  0.47409  Biso   1.000  C
  H295     1.0000 0.18659  0.36382  0.46630  Biso   1.000  H
  H296     1.0000 0.15708  0.32818  0.43850  Biso   1.000  H
  H297     1.0000 0.14198  0.38660  0.33489  Biso   1.000  H
  O52      1.0000 0.14696  0.45015  0.22746  Biso   1.000  O
  C271     1.0000 0.19139  0.65207  0.19414  Biso   1.000  C
  H298     1.0000 0.19250  0.48277  0.17732  Biso   1.000  H
  H299     1.0000 0.22079  0.52824  0.20681  Biso   1.000  H
  C272     1.0000 0.12892  0.50715  0.46790  Biso   1.000  C
  C273     1.0000 0.17423  0.56078  0.50923  Biso   1.000  C
  C274     1.0000 0.14130  0.34222  0.20170  Biso   1.000  C
  C275     1.0000 0.16746  0.67401  0.15819  Biso   1.000  C
  C276     1.0000 0.20653  0.74370  0.21825  Biso   1.000  C
  C277     1.0000 0.11777  0.59860  0.49544  Biso   1.000  C
  O53      1.0000 0.11310  0.43149  0.43334  Biso   1.000  O
  C278     1.0000 0.16303  0.65308  0.53610  Biso   1.000  C
  H300     1.0000 0.19319  0.54766  0.51470  Biso   1.000  H
  H301     1.0000 0.15790  0.31279  0.18680  Biso   1.000  H
  H302     1.0000 0.12710  0.34902  0.16958  Biso   1.000  H
  H303     1.0000 0.13508  0.29228  0.23128  Biso   1.000  H
  C279     1.0000 0.15815  0.78287  0.14716  Biso   1.000  C
  H304     1.0000 0.15740  0.61407  0.14102  Biso   1.000  H
  C280     1.0000 0.19748  0.85214  0.20659  Biso   1.000  C
  O54      1.0000 0.23032  0.71797  0.25308  Biso   1.000  O
  C281     1.0000 0.13469  0.67317  0.52934  Biso   1.000  C
  H305     1.0000 0.09869  0.61037  0.49121  Biso   1.000  H
  C282     1.0000 0.08396  0.45368  0.42528  Biso   1.000  C
  O55      1.0000 0.17867  0.72999  0.57017  Biso   1.000  O
  C283     1.0000 0.17281  0.87433  0.17185  Biso   1.000  C
  O56      1.0000 0.13398  0.80674  0.11255  Biso   1.000  O
  H306     1.0000 0.20809  0.91207  0.22221  Biso   1.000  H
  C284     1.0000 0.24731  0.80884  0.27470  Biso   1.000  C
  C285     1.0000 0.12213  0.77757  0.55447  Biso   1.000  C
  H307     1.0000 0.07628  0.45326  0.46319  Biso   1.000  H
  H308     1.0000 0.07509  0.39677  0.40028  Biso   1.000  H
  H309     1.0000 0.08100  0.52598  0.40691  Biso   1.000  H
  C286     1.0000 0.20759  0.71469  0.57560  Biso   1.000  C
  C287     1.0000 0.16226  0.99378  0.16317  Biso   1.000  C
  C288     1.0000 0.12121  0.71638  0.07901  Biso   1.000  C
  H310     1.0000 0.25049  0.85844  0.24249  Biso   1.000  H
  H311     1.0000 0.26469  0.78018  0.29200  Biso   1.000  H
  H312     1.0000 0.23820  0.84919  0.30442  Biso   1.000  H
  C289     1.0000 0.11972  0.87113  0.50865  Biso   1.000  C
  H313     1.0000 0.13358  0.80254  0.58921  Biso   1.000  H
  H314     1.0000 0.10388  0.75984  0.56688  Biso   1.000  H
  H315     1.0000 0.21188  0.64080  0.59082  Biso   1.000  H
  H316     1.0000 0.21599  0.76984  0.60238  Biso   1.000  H
  H317     1.0000 0.21470  0.72285  0.53730  Biso   1.000  H
  H318     1.0000 0.14850  0.99597  0.12950  Biso   1.000  H
  H319     1.0000 0.17750  0.04220  0.15432  Biso   1.000  H
  C290     1.0000 0.14951  0.03800  0.21785  Biso   1.000  C
  H320     1.0000 0.11369  0.66190  0.10539  Biso   1.000  H
  H321     1.0000 0.13471  0.67888  0.05632  Biso   1.000  H
  C291     1.0000 0.09839  0.76538  0.03795  Biso   1.000  C
  C292     1.0000 0.09601  0.88156  0.46928  Biso   1.000  C
  C293     1.0000 0.14132  0.94595  0.50407  Biso   1.000  C
  C294     1.0000 0.16577  0.08557  0.26514  Biso   1.000  C
  C295     1.0000 0.12106  0.02875  0.22243  Biso   1.000  C
  H322     1.0000 0.10610  0.82355  0.01401  Biso   1.000  H
  H323     1.0000 0.09089  0.70696  0.01121  Biso   1.000  H
  N26      1.0000 0.07609  0.81279  0.06891  Biso   1.000  N
  C296     1.0000 0.09421  0.96873  0.42769  Biso   1.000  C
  O57      1.0000 0.07523  0.80514  0.47591  Biso   1.000  O
  H324     1.0000 0.15729  0.93847  0.52951  Biso   1.000  H
  C297     1.0000 0.13963  0.03245  0.46221  Biso   1.000  C
  C298     1.0000 0.15364  0.12021  0.31603  Biso   1.000  C
  O58      1.0000 0.19343  0.09802  0.25811  Biso   1.000  O
  H325     1.0000 0.10989  0.99899  0.19080  Biso   1.000  H
  C299     1.0000 0.10892  0.06347  0.27368  Biso   1.000  C
  C300     1.0000 0.06928  0.92325  0.07242  Biso   1.000  C
  C301     1.0000 0.05656  0.75454  0.09720  Biso   1.000  C
  H326     1.0000 0.07830  0.97604  0.40211  Biso   1.000  H
  C302     1.0000 0.11573  0.04480  0.42368  Biso   1.000  C
  C303     1.0000 0.05130  0.81179  0.43552  Biso   1.000  C
  O59      1.0000 0.16012  0.11029  0.45709  Biso   1.000  O
  C304     1.0000 0.12548  0.10827  0.32119  Biso   1.000  C
  H327     1.0000 0.16470  0.15198  0.34730  Biso   1.000  H
  C305     1.0000 0.21013  0.13853  0.30806  Biso   1.000  C
  O60      1.0000 0.08136  0.05649  0.28062  Biso   1.000  O
  H328     1.0000 0.07950  0.98050  0.05641  Biso   1.000  H
  N27      1.0000 0.04706  0.94183  0.10049  Biso   1.000  N
  C306     1.0000 0.03903  0.83541  0.11642  Biso   1.000  C
  N28      1.0000 0.05512  0.64291  0.10401  Biso   1.000  N
  C307     1.0000 0.11289  0.13979  0.37835  Biso   1.000  C
  H329     1.0000 0.04189  0.88139  0.44121  Biso   1.000  H
  H330     1.0000 0.03918  0.75008  0.44232  Biso   1.000  H
  H331     1.0000 0.05669  0.80825  0.39539  Biso   1.000  H
  C308     1.0000 0.18422  0.10230  0.49717  Biso   1.000  C
  H332     1.0000 0.20469  0.21402  0.31678  Biso   1.000  H
  H333     1.0000 0.22920  0.13795  0.29948  Biso   1.000  H
  H334     1.0000 0.20778  0.09129  0.34178  Biso   1.000  H
  C309     1.0000 0.06676  0.96100  0.25108  Biso   1.000  C
  C310     1.0000 0.06268  0.04010  0.22612  Biso   1.000  C
  C311     1.0000 0.01659  0.79657  0.14809  Biso   1.000  C
  C312     1.0000 0.03272  0.62088  0.13368  Biso   1.000  C
  H335     1.0000 0.09339  0.15736  0.36959  Biso   1.000  H
  H336     1.0000 0.12209  0.20637  0.39521  Biso   1.000  H
  H337     1.0000 0.17919  0.11054  0.53721  Biso   1.000  H
  H338     1.0000 0.19699  0.16047  0.48850  Biso   1.000  H
  H339     1.0000 0.19280  0.03018  0.49281  Biso   1.000  H
  H340     1.0000 0.06269  0.96217  0.21491  Biso   1.000  H
  H341     1.0000 0.06879  0.96411  0.20908  Biso   1.000  H
  H342     1.0000 0.04750  0.96444  0.25788  Biso   1.000  H
  H343     1.0000 0.07449  0.89198  0.26700  Biso   1.000  H
  H344     1.0000 0.06911  0.08473  0.19440  Biso   1.000  H
  H345     1.0000 0.04420  0.06263  0.23342  Biso   1.000  H
  N29      1.0000 0.01429  0.68258  0.15508  Biso   1.000  N
  N30      1.0000 0.99842  0.86693  0.17065  Biso   1.000  N
  H346     1.0000 0.03000  0.54455  0.14000  Biso   1.000  H
  H347     1.0000 1.00000  0.93838  0.16602  Biso   1.000  H
  H348     1.0000 0.98509  0.84070  0.18969  Biso   1.000  H
  C313     1.0000 0.75270  0.80884  0.22528  Biso   1.000  C
  O61      1.0000 0.76968  0.71797  0.24690  Biso   1.000  O
  H349     1.0000 0.74949  0.85844  0.25748  Biso   1.000  H
  H350     1.0000 0.73529  0.78018  0.20802  Biso   1.000  H
  H351     1.0000 0.76180  0.84919  0.19560  Biso   1.000  H
  C314     1.0000 0.79345  0.74370  0.28177  Biso   1.000  C
  C315     1.0000 0.80861  0.65207  0.30588  Biso   1.000  C
  C316     1.0000 0.80250  0.85214  0.29338  Biso   1.000  C
  C317     1.0000 0.79919  0.53245  0.29218  Biso   1.000  C
  C318     1.0000 0.83254  0.67401  0.34178  Biso   1.000  C
  C319     1.0000 0.82719  0.87433  0.32813  Biso   1.000  C
  H352     1.0000 0.79190  0.91207  0.27781  Biso   1.000  H
  C320     1.0000 0.80700  0.49277  0.23199  Biso   1.000  C
  H353     1.0000 0.80749  0.48277  0.32270  Biso   1.000  H
  H354     1.0000 0.77919  0.52824  0.29321  Biso   1.000  H
  C321     1.0000 0.84184  0.78287  0.35286  Biso   1.000  C
  H355     1.0000 0.84259  0.61407  0.35900  Biso   1.000  H
  C322     1.0000 0.83772  0.99378  0.33680  Biso   1.000  C
  C323     1.0000 0.78809  0.50000  0.18172  Biso   1.000  C
  C324     1.0000 0.83322  0.45049  0.22443  Biso   1.000  C
  O62      1.0000 0.86601  0.80674  0.38743  Biso   1.000  O
  H356     1.0000 0.85149  0.99597  0.37052  Biso   1.000  H
  H357     1.0000 0.82250  0.04220  0.34570  Biso   1.000  H
  C325     1.0000 0.85047  0.03800  0.28213  Biso   1.000  C
  C326     1.0000 0.79512  0.46629  0.12647  Biso   1.000  C
  H358     1.0000 0.77040  0.52808  0.18582  Biso   1.000  H
  C327     1.0000 0.84034  0.41552  0.16882  Biso   1.000  C
  O63      1.0000 0.85302  0.45015  0.27256  Biso   1.000  O
  C328     1.0000 0.87878  0.71638  0.42097  Biso   1.000  C
  C329     1.0000 0.83421  0.08557  0.23488  Biso   1.000  C
  C330     1.0000 0.87893  0.02875  0.27755  Biso   1.000  C
  O64      1.0000 0.77731  0.47209  0.07558  Biso   1.000  O
  C331     1.0000 0.82161  0.42266  0.11864  Biso   1.000  C
  H359     1.0000 0.85800  0.38660  0.16509  Biso   1.000  H
  C332     1.0000 0.85868  0.34222  0.29832  Biso   1.000  C
  H360     1.0000 0.88629  0.66190  0.39459  Biso   1.000  H
  H361     1.0000 0.86530  0.67888  0.44370  Biso   1.000  H
  C333     1.0000 0.90160  0.76538  0.46207  Biso   1.000  C
  C334     1.0000 0.84634  0.12021  0.18395  Biso   1.000  C
  O65      1.0000 0.80657  0.09802  0.24191  Biso   1.000  O
  H362     1.0000 0.89010  0.99899  0.30922  Biso   1.000  H
  C335     1.0000 0.89106  0.06347  0.22630  Biso   1.000  C
  C336     1.0000 0.75271  0.53489  0.07878  Biso   1.000  C
  C337     1.0000 0.82974  0.38988  0.05752  Biso   1.000  C
  H363     1.0000 0.84210  0.31279  0.31318  Biso   1.000  H
  H364     1.0000 0.87290  0.34902  0.33040  Biso   1.000  H
  H365     1.0000 0.86490  0.29228  0.26869  Biso   1.000  H
  H366     1.0000 0.89389  0.82355  0.48601  Biso   1.000  H
  H367     1.0000 0.90909  0.70696  0.48881  Biso   1.000  H
  N31      1.0000 0.92392  0.81279  0.43111  Biso   1.000  N
  C338     1.0000 0.87450  0.10827  0.17883  Biso   1.000  C
  H368     1.0000 0.83531  0.15198  0.15272  Biso   1.000  H
  C339     1.0000 0.78988  0.13853  0.19196  Biso   1.000  C
  O66      1.0000 0.91865  0.05649  0.21940  Biso   1.000  O
  H369     1.0000 0.74071  0.49647  0.10392  Biso   1.000  H
  H370     1.0000 0.74361  0.54287  0.03959  Biso   1.000  H
  H371     1.0000 0.75721  0.60785  0.09502  Biso   1.000  H
  C340     1.0000 0.84257  0.48697  0.02594  Biso   1.000  C
  H372     1.0000 0.81341  0.36382  0.03372  Biso   1.000  H
  H373     1.0000 0.84290  0.32818  0.06148  Biso   1.000  H
  C341     1.0000 0.93072  0.92325  0.42755  Biso   1.000  C
  C342     1.0000 0.94344  0.75454  0.40277  Biso   1.000  C
  C343     1.0000 0.88712  0.13979  0.12162  Biso   1.000  C
  H374     1.0000 0.79529  0.21402  0.18319  Biso   1.000  H
  H375     1.0000 0.77081  0.13795  0.20050  Biso   1.000  H
  H376     1.0000 0.79220  0.09129  0.15819  Biso   1.000  H
  C344     1.0000 0.93324  0.96100  0.24890  Biso   1.000  C
  C345     1.0000 0.93731  0.04010  0.27390  Biso   1.000  C
  C346     1.0000 0.87108  0.50715  0.03212  Biso   1.000  C
  C347     1.0000 0.82573  0.56078  0.99075  Biso   1.000  C
  H377     1.0000 0.92048  0.98050  0.44361  Biso   1.000  H
  N32      1.0000 0.95292  0.94183  0.39953  Biso   1.000  N
  C348     1.0000 0.96096  0.83541  0.38356  Biso   1.000  C
  N33      1.0000 0.94486  0.64291  0.39597  Biso   1.000  N
  C349     1.0000 0.88425  0.04480  0.07634  Biso   1.000  C
  H378     1.0000 0.90659  0.15736  0.13039  Biso   1.000  H
  H379     1.0000 0.87791  0.20637  0.10481  Biso   1.000  H
  H380     1.0000 0.93729  0.96217  0.28511  Biso   1.000  H
  H381     1.0000 0.93119  0.96411  0.29089  Biso   1.000  H
  H382     1.0000 0.95251  0.96444  0.24209  Biso   1.000  H
  H383     1.0000 0.92550  0.89198  0.23302  Biso   1.000  H
  H384     1.0000 0.93090  0.08473  0.30562  Biso   1.000  H
  H385     1.0000 0.95581  0.06263  0.26660  Biso   1.000  H
  C350     1.0000 0.88223  0.59860  0.00458  Biso   1.000  C
  O67      1.0000 0.88688  0.43149  0.06664  Biso   1.000  O
  C351     1.0000 0.83691  0.65308  0.96388  Biso   1.000  C
  H386     1.0000 0.80675  0.54766  0.98532  Biso   1.000  H
  C352     1.0000 0.98341  0.79657  0.35188  Biso   1.000  C
  C353     1.0000 0.96729  0.62088  0.36630  Biso   1.000  C
  C354     1.0000 0.90579  0.96873  0.07233  Biso   1.000  C
  C355     1.0000 0.86035  0.03245  0.03781  Biso   1.000  C
  H387     1.0000 0.90131  0.61037  0.00881  Biso   1.000  H
  C356     1.0000 0.86525  0.67317  0.97064  Biso   1.000  C
  C357     1.0000 0.91602  0.45368  0.07474  Biso   1.000  C
  O68      1.0000 0.82129  0.72999  0.92985  Biso   1.000  O
  N34      1.0000 0.98569  0.68258  0.34490  Biso   1.000  N
  N35      1.0000 0.00159  0.86693  0.32937  Biso   1.000  N
  H388     1.0000 0.97000  0.54455  0.35998  Biso   1.000  H
  C358     1.0000 0.90397  0.88156  0.03070  Biso   1.000  C
  H389     1.0000 0.92171  0.97604  0.09791  Biso   1.000  H
  C359     1.0000 0.85865  0.94595  0.99595  Biso   1.000  C
  O69      1.0000 0.83989  0.11029  0.04288  Biso   1.000  O
  C360     1.0000 0.87782  0.77757  0.94550  Biso   1.000  C
  H390     1.0000 0.92370  0.45326  0.03679  Biso   1.000  H
  H391     1.0000 0.92490  0.39677  0.09969  Biso   1.000  H
  H392     1.0000 0.91901  0.52598  0.09311  Biso   1.000  H
  C361     1.0000 0.79238  0.71469  0.92442  Biso   1.000  C
  H393     1.0000 0.99999  0.93838  0.33400  Biso   1.000  H
  H394     1.0000 0.01489  0.84070  0.31029  Biso   1.000  H
  C362     1.0000 0.88025  0.87113  0.99137  Biso   1.000  C
  O70      1.0000 0.92475  0.80514  0.02407  Biso   1.000  O
  H395     1.0000 0.84267  0.93847  0.97051  Biso   1.000  H
  C363     1.0000 0.81578  0.10230  0.00285  Biso   1.000  C
  H396     1.0000 0.86637  0.80254  0.91081  Biso   1.000  H
  H397     1.0000 0.89606  0.75984  0.93309  Biso   1.000  H
  H398     1.0000 0.78806  0.64080  0.90920  Biso   1.000  H
  H399     1.0000 0.78397  0.76984  0.89759  Biso   1.000  H
  H400     1.0000 0.78527  0.72285  0.96272  Biso   1.000  H
  C364     1.0000 0.94869  0.81179  0.06450  Biso   1.000  C
  H401     1.0000 0.82076  0.11054  0.96281  Biso   1.000  H
  H402     1.0000 0.80301  0.16047  0.01152  Biso   1.000  H
  H403     1.0000 0.80721  0.03018  0.00721  Biso   1.000  H
  H404     1.0000 0.95810  0.88139  0.05881  Biso   1.000  H
  H405     1.0000 0.96080  0.75008  0.05770  Biso   1.000  H
  H406     1.0000 0.94330  0.80825  0.10459  Biso   1.000  H
  C365     1.0000 0.24729  0.19107  0.77472  Biso   1.000  C
  O71      1.0000 0.23030  0.28203  0.75310  Biso   1.000  O
  H407     1.0000 0.25048  0.14148  0.74251  Biso   1.000  H
  H408     1.0000 0.26467  0.21982  0.79198  Biso   1.000  H
  H409     1.0000 0.23819  0.15081  0.80439  Biso   1.000  H
  C366     1.0000 0.20652  0.25630  0.71822  Biso   1.000  C
  C367     1.0000 0.19138  0.34785  0.69411  Biso   1.000  C
  C368     1.0000 0.19747  0.14778  0.70661  Biso   1.000  C
  C369     1.0000 0.16745  0.32599  0.65821  Biso   1.000  C
  C370     1.0000 0.20078  0.46747  0.70781  Biso   1.000  C
  C371     1.0000 0.17280  0.12567  0.67187  Biso   1.000  C
  H410     1.0000 0.20809  0.08793  0.72218  Biso   1.000  H
  C372     1.0000 0.15813  0.21713  0.64713  Biso   1.000  C
  H411     1.0000 0.15738  0.38593  0.64100  Biso   1.000  H
  C373     1.0000 0.19298  0.50715  0.76800  Biso   1.000  C
  H412     1.0000 0.19248  0.51715  0.67730  Biso   1.000  H
  H413     1.0000 0.22079  0.47167  0.70679  Biso   1.000  H
  C374     1.0000 0.16225  0.00622  0.66319  Biso   1.000  C
  O72      1.0000 0.13396  0.19326  0.61257  Biso   1.000  O
  C375     1.0000 0.16677  0.54943  0.77557  Biso   1.000  C
  C376     1.0000 0.21188  0.50000  0.81827  Biso   1.000  C
  H414     1.0000 0.14848  0.00403  0.62952  Biso   1.000  H
  H415     1.0000 0.17748  0.95780  0.65430  Biso   1.000  H
  C377     1.0000 0.14950  0.96192  0.71787  Biso   1.000  C
  C378     1.0000 0.12119  0.28362  0.57903  Biso   1.000  C
  C379     1.0000 0.15965  0.58448  0.83117  Biso   1.000  C
  O73      1.0000 0.14694  0.54976  0.72743  Biso   1.000  O
  C380     1.0000 0.20487  0.53371  0.87352  Biso   1.000  C
  H416     1.0000 0.22957  0.47192  0.81418  Biso   1.000  H
  C381     1.0000 0.16576  0.91443  0.76511  Biso   1.000  C
  C382     1.0000 0.12104  0.97117  0.72245  Biso   1.000  C
  H417     1.0000 0.11368  0.33810  0.60541  Biso   1.000  H
  H418     1.0000 0.13469  0.32112  0.55629  Biso   1.000  H
  C383     1.0000 0.09837  0.23462  0.53792  Biso   1.000  C
  C384     1.0000 0.17838  0.57725  0.88135  Biso   1.000  C
  H419     1.0000 0.14199  0.61340  0.83491  Biso   1.000  H
  C385     1.0000 0.14128  0.65778  0.70167  Biso   1.000  C
  O74      1.0000 0.22267  0.52791  0.92441  Biso   1.000  O
  C386     1.0000 0.15365  0.87979  0.81605  Biso   1.000  C
  O75      1.0000 0.19342  0.90198  0.75808  Biso   1.000  O
  H420     1.0000 0.10989  0.00101  0.69082  Biso   1.000  H
  C387     1.0000 0.10891  0.93653  0.77370  Biso   1.000  C
  H421     1.0000 0.10608  0.17636  0.51399  Biso   1.000  H
  H422     1.0000 0.09090  0.29296  0.51119  Biso   1.000  H
  N36      1.0000 0.07607  0.18721  0.56888  Biso   1.000  N
  C388     1.0000 0.17025  0.61012  0.94248  Biso   1.000  C
  H423     1.0000 0.15789  0.68721  0.68682  Biso   1.000  H
  H424     1.0000 0.12708  0.65098  0.66960  Biso   1.000  H
  H425     1.0000 0.13509  0.70772  0.73130  Biso   1.000  H
  C389     1.0000 0.24728  0.46511  0.92121  Biso   1.000  C
  C390     1.0000 0.12546  0.89173  0.82116  Biso   1.000  C
  H426     1.0000 0.16468  0.84802  0.84732  Biso   1.000  H
  C391     1.0000 0.21011  0.86138  0.80804  Biso   1.000  C
  O76      1.0000 0.08134  0.94351  0.78059  Biso   1.000  O
  C392     1.0000 0.06926  0.07666  0.57244  Biso   1.000  C
  C393     1.0000 0.05655  0.24538  0.59722  Biso   1.000  C
  C394     1.0000 0.15742  0.51303  0.97406  Biso   1.000  C
  H427     1.0000 0.18658  0.63618  0.96632  Biso   1.000  H
  H428     1.0000 0.15709  0.67174  0.93852  Biso   1.000  H
  H429     1.0000 0.25928  0.50345  0.89612  Biso   1.000  H
  H430     1.0000 0.25638  0.45704  0.96040  Biso   1.000  H
  H431     1.0000 0.24278  0.39206  0.90502  Biso   1.000  H
  C395     1.0000 0.11287  0.86021  0.87837  Biso   1.000  C
  H432     1.0000 0.20468  0.78589  0.81680  Biso   1.000  H
  H433     1.0000 0.22918  0.86197  0.79950  Biso   1.000  H
  H434     1.0000 0.20779  0.90871  0.84180  Biso   1.000  H
  C396     1.0000 0.06674  0.03900  0.75110  Biso   1.000  C
  C397     1.0000 0.06268  0.95990  0.72610  Biso   1.000  C
  H435     1.0000 0.07948  0.01950  0.55638  Biso   1.000  H
  N37      1.0000 0.04704  0.05809  0.60047  Biso   1.000  N
  C398     1.0000 0.03901  0.16459  0.61644  Biso   1.000  C
  N38      1.0000 0.05511  0.35709  0.60403  Biso   1.000  N
  C399     1.0000 0.12891  0.49277  0.96788  Biso   1.000  C
  C400     1.0000 0.17425  0.43922  0.00925  Biso   1.000  C
  H436     1.0000 0.09337  0.84264  0.86961  Biso   1.000  H
  H437     1.0000 0.12208  0.79363  0.89519  Biso   1.000  H
  C401     1.0000 0.11573  0.95520  0.92366  Biso   1.000  C
  H438     1.0000 0.06267  0.03783  0.71489  Biso   1.000  H
  H439     1.0000 0.06878  0.03589  0.70910  Biso   1.000  H
  H440     1.0000 0.04748  0.03547  0.75790  Biso   1.000  H
  H441     1.0000 0.07449  0.10802  0.76698  Biso   1.000  H
  H442     1.0000 0.06909  0.91518  0.69438  Biso   1.000  H
  H443     1.0000 0.04418  0.93729  0.73339  Biso   1.000  H
  C402     1.0000 0.01657  0.20343  0.64811  Biso   1.000  C
  C403     1.0000 0.03270  0.37912  0.63370  Biso   1.000  C
  C404     1.0000 0.11776  0.40140  0.99541  Biso   1.000  C
  O77      1.0000 0.11310  0.56843  0.93336  Biso   1.000  O
  C405     1.0000 0.16306  0.34692  0.03612  Biso   1.000  C
  H444     1.0000 0.19321  0.45225  0.01472  Biso   1.000  H
  C406     1.0000 0.09420  0.03119  0.92766  Biso   1.000  C
  C407     1.0000 0.13962  0.96755  0.96218  Biso   1.000  C
  N39      1.0000 0.01428  0.31742  0.65510  Biso   1.000  N
  N40      1.0000 0.99840  0.13299  0.67062  Biso   1.000  N
  H445     1.0000 0.02998  0.45536  0.64002  Biso   1.000  H
  H446     1.0000 0.09868  0.38963  0.99119  Biso   1.000  H
  C408     1.0000 0.13471  0.32675  0.02936  Biso   1.000  C
  C409     1.0000 0.08394  0.54632  0.92526  Biso   1.000  C
  O78      1.0000 0.17870  0.27001  0.07015  Biso   1.000  O
  H447     1.0000 0.07828  0.02387  0.90208  Biso   1.000  H
  C410     1.0000 0.09599  0.11836  0.96930  Biso   1.000  C
  O79      1.0000 0.16010  0.88971  0.95711  Biso   1.000  O
  C411     1.0000 0.14134  0.05397  0.00404  Biso   1.000  C
  H448     1.0000 0.98509  0.15930  0.68971  Biso   1.000  H
  H449     1.0000 0.99998  0.06162  0.66600  Biso   1.000  H
  C412     1.0000 0.12215  0.22243  0.05449  Biso   1.000  C
  H450     1.0000 0.07629  0.54665  0.96321  Biso   1.000  H
  H451     1.0000 0.07507  0.60314  0.90030  Biso   1.000  H
  H452     1.0000 0.08098  0.47402  0.90689  Biso   1.000  H
  C413     1.0000 0.20761  0.28531  0.07558  Biso   1.000  C
  O80      1.0000 0.07524  0.19477  0.97593  Biso   1.000  O
  C414     1.0000 0.11974  0.12878  0.00863  Biso   1.000  C
  C415     1.0000 0.18421  0.89770  0.99715  Biso   1.000  C
  H453     1.0000 0.15731  0.06153  0.02949  Biso   1.000  H
  H454     1.0000 0.13362  0.19738  0.08919  Biso   1.000  H
  H455     1.0000 0.10391  0.24008  0.06690  Biso   1.000  H
  H456     1.0000 0.21192  0.35920  0.09079  Biso   1.000  H
  H457     1.0000 0.21602  0.23008  0.10240  Biso   1.000  H
  H458     1.0000 0.21472  0.27707  0.03732  Biso   1.000  H
  C416     1.0000 0.05128  0.18821  0.93549  Biso   1.000  C
  H459     1.0000 0.19698  0.83953  0.98852  Biso   1.000  H
  H460     1.0000 0.19278  0.96982  0.99279  Biso   1.000  H
  H461     1.0000 0.17921  0.88937  0.03719  Biso   1.000  H
  H462     1.0000 0.04187  0.11861  0.94119  Biso   1.000  H
  H463     1.0000 0.03919  0.24992  0.94230  Biso   1.000  H
  H464     1.0000 0.05667  0.19166  0.89541  Biso   1.000  H
