data_image0
_cell_length_a       19.347
_cell_length_b       24.266
_cell_length_c       32.806
_cell_angle_alpha    90
_cell_angle_beta     90
_cell_angle_gamma    90

_symmetry_space_group_name_H-M    "P 1"
_symmetry_int_tables_number       1

loop_
  _symmetry_equiv_pos_as_xyz
  'x, y, z'

loop_
  _atom_site_label
  _atom_site_occupancy
  _atom_site_fract_x
  _atom_site_fract_y
  _atom_site_fract_z
  _atom_site_thermal_displace_type
  _atom_site_B_iso_or_equiv
  _atom_site_type_symbol
  C1       1.0000 0.40301  0.47981  0.55020  Biso   1.000  C
  O1       1.0000 0.36171  0.43398  0.54511  Biso   1.000  O
  C2       1.0000 0.43381  0.48290  0.59401  Biso   1.000  C
  H1       1.0000 0.37592  0.51269  0.54490  Biso   1.000  H
  H2       1.0000 0.44038  0.47869  0.53051  Biso   1.000  H
  H3       1.0000 0.37148  0.41090  0.56240  Biso   1.000  H
  O2       1.0000 0.47542  0.43452  0.59730  Biso   1.000  O
  C3       1.0000 0.37840  0.48430  0.62629  Biso   1.000  C
  H4       1.0000 0.46312  0.51562  0.59638  Biso   1.000  H
  C4       1.0000 0.50649  0.42648  0.63540  Biso   1.000  C
  O3       1.0000 0.34398  0.53812  0.62440  Biso   1.000  O
  C5       1.0000 0.40978  0.47672  0.66780  Biso   1.000  C
  H5       1.0000 0.34470  0.45500  0.62120  Biso   1.000  H
  O4       1.0000 0.55321  0.47091  0.64531  Biso   1.000  O
  H6       1.0000 0.53181  0.39149  0.63549  Biso   1.000  H
  C6       1.0000 0.45108  0.42570  0.66939  Biso   1.000  C
  C7       1.0000 0.27761  0.54001  0.60910  Biso   1.000  C
  O5       1.0000 0.35359  0.47470  0.69710  Biso   1.000  O
  H7       1.0000 0.43960  0.50820  0.67399  Biso   1.000  H
  C8       1.0000 0.62330  0.46011  0.65040  Biso   1.000  C
  O6       1.0000 0.48131  0.41601  0.70740  Biso   1.000  O
  H8       1.0000 0.41991  0.39491  0.66369  Biso   1.000  H
  O7       1.0000 0.27312  0.57191  0.57401  Biso   1.000  O
  H9       1.0000 0.26221  0.50251  0.60291  Biso   1.000  H
  C9       1.0000 0.23022  0.56478  0.64229  Biso   1.000  C
  H10      1.0000 0.36900  0.46691  0.71959  Biso   1.000  H
  C10      1.0000 0.64682  0.47911  0.69122  Biso   1.000  C
  H11      1.0000 0.63038  0.42022  0.64869  Biso   1.000  H
  C11      1.0000 0.66419  0.48801  0.61559  Biso   1.000  C
  H12      1.0000 0.46229  0.38952  0.71831  Biso   1.000  H
  C12      1.0000 0.29302  0.62672  0.57819  Biso   1.000  C
  O8       1.0000 0.23141  0.53120  0.67759  Biso   1.000  O
  H13      1.0000 0.18292  0.56478  0.63171  Biso   1.000  H
  C13      1.0000 0.25048  0.62338  0.64979  Biso   1.000  C
  O9       1.0000 0.61441  0.44841  0.72249  Biso   1.000  O
  C14      1.0000 0.72357  0.47429  0.69530  Biso   1.000  C
  H14      1.0000 0.63400  0.51801  0.69439  Biso   1.000  H
  O10      1.0000 0.73789  0.48430  0.62229  Biso   1.000  O
  H15      1.0000 0.65049  0.52679  0.61349  Biso   1.000  H
  C15      1.0000 0.65152  0.45858  0.57441  Biso   1.000  C
  C16      1.0000 0.24733  0.65639  0.61089  Biso   1.000  C
  H16      1.0000 0.34119  0.62759  0.58739  Biso   1.000  H
  C17      1.0000 0.28909  0.65380  0.53749  Biso   1.000  C
  H17      1.0000 0.26971  0.51718  0.68000  Biso   1.000  H
  O11      1.0000 0.20339  0.64811  0.67951  Biso   1.000  O
  H18      1.0000 0.29772  0.62450  0.66061  Biso   1.000  H
  H19      1.0000 0.57492  0.44041  0.71560  Biso   1.000  H
  O12      1.0000 0.74802  0.49452  0.73371  Biso   1.000  O
  C18      1.0000 0.75919  0.50701  0.66140  Biso   1.000  C
  H20      1.0000 0.73650  0.43538  0.69271  Biso   1.000  H
  O13      1.0000 0.67028  0.40159  0.57550  Biso   1.000  O
  H21      1.0000 0.60299  0.46172  0.56730  Biso   1.000  H
  H22      1.0000 0.67799  0.47688  0.55331  Biso   1.000  H
  O14      1.0000 0.27358  0.71001  0.61809  Biso   1.000  O
  H23      1.0000 0.19941  0.65878  0.60129  Biso   1.000  H
  O15      1.0000 0.22081  0.64852  0.52051  Biso   1.000  O
  H24      1.0000 0.30062  0.69249  0.54021  Biso   1.000  H
  H25      1.0000 0.32238  0.63698  0.51920  Biso   1.000  H
  H26      1.0000 0.20489  0.68182  0.67741  Biso   1.000  H
  H27      1.0000 0.76839  0.46979  0.74581  Biso   1.000  H
  O16      1.0000 0.74099  0.56239  0.66479  Biso   1.000  O
  H28      1.0000 0.80948  0.50330  0.66421  Biso   1.000  H
  H29      1.0000 0.63602  0.38259  0.57151  Biso   1.000  H
  C19      1.0000 0.23192  0.75542  0.60879  Biso   1.000  C
  H30      1.0000 0.21828  0.61988  0.50719  Biso   1.000  H
  C20      1.0000 0.79661  0.60039  0.66540  Biso   1.000  C
  O17      1.0000 0.25828  0.78649  0.57639  Biso   1.000  O
  H31      1.0000 0.18551  0.74240  0.60181  Biso   1.000  H
  C21      1.0000 0.22758  0.79280  0.64641  Biso   1.000  C
  C22      1.0000 0.79180  0.63570  0.70441  Biso   1.000  C
  H32      1.0000 0.84080  0.58081  0.66460  Biso   1.000  H
  C23      1.0000 0.78932  0.63908  0.62729  Biso   1.000  C
  C24      1.0000 0.32729  0.80829  0.58270  Biso   1.000  C
  O18      1.0000 0.19822  0.76341  0.68000  Biso   1.000  O
  H33      1.0000 0.19869  0.82490  0.64010  Biso   1.000  H
  C25      1.0000 0.30082  0.81208  0.65729  Biso   1.000  C
  O19      1.0000 0.80121  0.60158  0.73959  Biso   1.000  O
  C26      1.0000 0.84499  0.67840  0.70420  Biso   1.000  C
  H34      1.0000 0.74611  0.65322  0.70560  Biso   1.000  H
  O20      1.0000 0.84282  0.68169  0.63120  Biso   1.000  O
  H35      1.0000 0.74358  0.65660  0.62760  Biso   1.000  H
  C27      1.0000 0.79790  0.60879  0.58980  Biso   1.000  C
  C28      1.0000 0.32972  0.84451  0.62071  Biso   1.000  C
  H36      1.0000 0.36068  0.77808  0.58511  Biso   1.000  H
  C29      1.0000 0.34259  0.84262  0.54530  Biso   1.000  C
  H37      1.0000 0.15651  0.76931  0.68100  Biso   1.000  H
  O21      1.0000 0.29762  0.84748  0.69201  Biso   1.000  O
  H38      1.0000 0.33028  0.78031  0.66320  Biso   1.000  H
  H39      1.0000 0.78451  0.57109  0.73529  Biso   1.000  H
  O22      1.0000 0.84328  0.71211  0.74011  Biso   1.000  O
  C30      1.0000 0.83879  0.71450  0.66780  Biso   1.000  C
  H40      1.0000 0.89022  0.66010  0.70310  Biso   1.000  H
  O23      1.0000 0.86189  0.57999  0.58980  Biso   1.000  O
  H41      1.0000 0.76022  0.58279  0.58669  Biso   1.000  H
  H42      1.0000 0.79661  0.63418  0.56691  Biso   1.000  H
  O24      1.0000 0.39991  0.85729  0.63059  Biso   1.000  O
  H43      1.0000 0.30299  0.87831  0.61641  Biso   1.000  H
  O25      1.0000 0.30030  0.88692  0.54039  Biso   1.000  O
  H44      1.0000 0.38998  0.85552  0.54679  Biso   1.000  H
  H45      1.0000 0.33881  0.81929  0.52140  Biso   1.000  H
  H46      1.0000 0.27689  0.83190  0.71051  Biso   1.000  H
  H47      1.0000 0.82002  0.73972  0.73569  Biso   1.000  H
  O26      1.0000 0.77531  0.74372  0.66841  Biso   1.000  O
  H48      1.0000 0.87698  0.74112  0.66790  Biso   1.000  H
  H49      1.0000 0.86711  0.56449  0.56779  Biso   1.000  H
  C31      1.0000 0.42069  0.91070  0.62470  Biso   1.000  C
  H50      1.0000 0.32341  0.91519  0.54060  Biso   1.000  H
  C32      1.0000 0.77619  0.80232  0.66491  Biso   1.000  C
  O27      1.0000 0.47268  0.91581  0.59489  Biso   1.000  O
  H51      1.0000 0.38068  0.93291  0.61659  Biso   1.000  H
  C33      1.0000 0.44968  0.93320  0.66509  Biso   1.000  C
  C34      1.0000 0.73381  0.82350  0.69990  Biso   1.000  C
  H52      1.0000 0.82369  0.81592  0.66701  Biso   1.000  H
  C35      1.0000 0.74503  0.81921  0.62400  Biso   1.000  C
  C36      1.0000 0.53538  0.88692  0.60321  Biso   1.000  C
  O28      1.0000 0.39701  0.93229  0.69560  Biso   1.000  O
  H53      1.0000 0.46312  0.97169  0.66061  Biso   1.000  H
  C37      1.0000 0.51321  0.90192  0.67701  Biso   1.000  C
  O29      1.0000 0.76859  0.81171  0.73709  Biso   1.000  O
  C38      1.0000 0.72513  0.88610  0.69560  Biso   1.000  C
  H54      1.0000 0.68832  0.80570  0.69990  Biso   1.000  H
  O30      1.0000 0.73159  0.87748  0.62260  Biso   1.000  O
  H55      1.0000 0.70119  0.79951  0.62019  Biso   1.000  H
  C39      1.0000 0.79258  0.80598  0.58800  Biso   1.000  C
  C40      1.0000 0.56479  0.90592  0.64400  Biso   1.000  C
  H56      1.0000 0.52509  0.84740  0.60501  Biso   1.000  H
  C41      1.0000 0.58469  0.89611  0.56801  Biso   1.000  C
  H57      1.0000 0.37138  0.90600  0.69170  Biso   1.000  H
  O31      1.0000 0.54231  0.92508  0.71420  Biso   1.000  O
  H58      1.0000 0.50132  0.86310  0.68161  Biso   1.000  H
  H59      1.0000 0.74580  0.82350  0.75620  Biso   1.000  H
  O32      1.0000 0.68331  0.90641  0.72779  Biso   1.000  O
  C42      1.0000 0.69029  0.89780  0.65461  Biso   1.000  C
  H60      1.0000 0.77051  0.90390  0.69649  Biso   1.000  H
  O33      1.0000 0.85920  0.83190  0.59291  Biso   1.000  O
  H61      1.0000 0.79863  0.76650  0.58599  Biso   1.000  H
  H62      1.0000 0.77139  0.81888  0.56301  Biso   1.000  H
  O34      1.0000 0.62490  0.87241  0.65451  Biso   1.000  O
  H63      1.0000 0.57942  0.94441  0.64141  Biso   1.000  H
  O35      1.0000 0.60650  0.94952  0.56529  Biso   1.000  O
  H64      1.0000 0.62449  0.87229  0.57139  Biso   1.000  H
  H65      1.0000 0.56190  0.88589  0.54280  Biso   1.000  H
  H66      1.0000 0.51377  0.92290  0.73270  Biso   1.000  H
  H67      1.0000 0.64330  0.90959  0.71990  Biso   1.000  H
  H68      1.0000 0.68450  0.93769  0.65131  Biso   1.000  H
  H69      1.0000 0.86029  0.86059  0.57980  Biso   1.000  H
  H70      1.0000 0.63240  0.95281  0.54569  Biso   1.000  H
  C43      1.0000 0.40301  0.52019  0.44980  Biso   1.000  C
  C44      1.0000 0.43381  0.51710  0.40599  Biso   1.000  C
  O36      1.0000 0.36171  0.56602  0.45489  Biso   1.000  O
  H71      1.0000 0.37592  0.48731  0.45510  Biso   1.000  H
  H72      1.0000 0.44038  0.52131  0.46949  Biso   1.000  H
  C45      1.0000 0.37840  0.51570  0.37371  Biso   1.000  C
  O37      1.0000 0.47542  0.56548  0.40270  Biso   1.000  O
  H73      1.0000 0.46312  0.48438  0.40362  Biso   1.000  H
  H74      1.0000 0.37148  0.58910  0.43760  Biso   1.000  H
  O38      1.0000 0.34398  0.46188  0.37560  Biso   1.000  O
  C46      1.0000 0.40978  0.52328  0.33220  Biso   1.000  C
  H75      1.0000 0.34470  0.54500  0.37880  Biso   1.000  H
  C47      1.0000 0.50649  0.57352  0.36460  Biso   1.000  C
  C48      1.0000 0.27761  0.45999  0.39090  Biso   1.000  C
  O39      1.0000 0.35359  0.52530  0.30290  Biso   1.000  O
  C49      1.0000 0.45108  0.57430  0.33061  Biso   1.000  C
  H76      1.0000 0.43960  0.49180  0.32601  Biso   1.000  H
  O40      1.0000 0.55321  0.52909  0.35469  Biso   1.000  O
  H77      1.0000 0.53181  0.60851  0.36451  Biso   1.000  H
  C50      1.0000 0.23022  0.43522  0.35771  Biso   1.000  C
  O41      1.0000 0.27312  0.42809  0.42599  Biso   1.000  O
  H78      1.0000 0.26221  0.49749  0.39709  Biso   1.000  H
  H79      1.0000 0.36900  0.53309  0.28041  Biso   1.000  H
  O42      1.0000 0.48131  0.58399  0.29260  Biso   1.000  O
  H80      1.0000 0.41991  0.60509  0.33631  Biso   1.000  H
  C51      1.0000 0.62330  0.53989  0.34960  Biso   1.000  C
  C52      1.0000 0.25048  0.37662  0.35021  Biso   1.000  C
  O43      1.0000 0.23141  0.46880  0.32241  Biso   1.000  O
  H81      1.0000 0.18292  0.43522  0.36829  Biso   1.000  H
  C53      1.0000 0.29302  0.37328  0.42181  Biso   1.000  C
  H82      1.0000 0.46229  0.61048  0.28169  Biso   1.000  H
  C54      1.0000 0.64682  0.52089  0.30878  Biso   1.000  C
  H83      1.0000 0.63038  0.57978  0.35131  Biso   1.000  H
  C55      1.0000 0.66419  0.51199  0.38441  Biso   1.000  C
  C56      1.0000 0.24733  0.34361  0.38911  Biso   1.000  C
  O44      1.0000 0.20339  0.35189  0.32049  Biso   1.000  O
  H84      1.0000 0.29772  0.37550  0.33939  Biso   1.000  H
  H85      1.0000 0.26971  0.48282  0.32000  Biso   1.000  H
  H86      1.0000 0.34119  0.37241  0.41261  Biso   1.000  H
  C57      1.0000 0.28909  0.34620  0.46251  Biso   1.000  C
  O45      1.0000 0.61441  0.55159  0.27751  Biso   1.000  O
  C58      1.0000 0.72357  0.52571  0.30470  Biso   1.000  C
  H87      1.0000 0.63400  0.48199  0.30561  Biso   1.000  H
  O46      1.0000 0.73789  0.51570  0.37771  Biso   1.000  O
  H88      1.0000 0.65049  0.47321  0.38651  Biso   1.000  H
  C59      1.0000 0.65152  0.54142  0.42559  Biso   1.000  C
  O47      1.0000 0.27358  0.28999  0.38191  Biso   1.000  O
  H89      1.0000 0.19941  0.34122  0.39871  Biso   1.000  H
  H90      1.0000 0.20489  0.31818  0.32259  Biso   1.000  H
  O48      1.0000 0.22081  0.35148  0.47949  Biso   1.000  O
  H91      1.0000 0.30062  0.30751  0.45979  Biso   1.000  H
  H92      1.0000 0.32238  0.36302  0.48080  Biso   1.000  H
  H93      1.0000 0.57492  0.55959  0.28440  Biso   1.000  H
  O49      1.0000 0.74802  0.50548  0.26629  Biso   1.000  O
  C60      1.0000 0.75919  0.49299  0.33860  Biso   1.000  C
  H94      1.0000 0.73650  0.56462  0.30729  Biso   1.000  H
  O50      1.0000 0.67028  0.59841  0.42450  Biso   1.000  O
  H95      1.0000 0.60299  0.53828  0.43270  Biso   1.000  H
  H96      1.0000 0.67799  0.52312  0.44669  Biso   1.000  H
  C61      1.0000 0.23192  0.24458  0.39121  Biso   1.000  C
  H97      1.0000 0.21828  0.38012  0.49281  Biso   1.000  H
  H98      1.0000 0.76839  0.53021  0.25419  Biso   1.000  H
  O51      1.0000 0.74099  0.43761  0.33521  Biso   1.000  O
  H99      1.0000 0.80948  0.49670  0.33579  Biso   1.000  H
  H100     1.0000 0.63602  0.61741  0.42849  Biso   1.000  H
  C62      1.0000 0.22758  0.20720  0.35359  Biso   1.000  C
  O52      1.0000 0.25828  0.21351  0.42361  Biso   1.000  O
  H101     1.0000 0.18551  0.25760  0.39819  Biso   1.000  H
  C63      1.0000 0.79661  0.39961  0.33460  Biso   1.000  C
  O53      1.0000 0.19822  0.23659  0.32000  Biso   1.000  O
  H102     1.0000 0.19869  0.17510  0.35990  Biso   1.000  H
  C64      1.0000 0.30082  0.18792  0.34271  Biso   1.000  C
  C65      1.0000 0.32729  0.19171  0.41730  Biso   1.000  C
  C66      1.0000 0.78932  0.36092  0.37271  Biso   1.000  C
  C67      1.0000 0.79180  0.36430  0.29559  Biso   1.000  C
  H103     1.0000 0.84080  0.41919  0.33540  Biso   1.000  H
  H104     1.0000 0.15651  0.23069  0.31900  Biso   1.000  H
  O54      1.0000 0.29762  0.15252  0.30799  Biso   1.000  O
  H105     1.0000 0.33028  0.21969  0.33680  Biso   1.000  H
  C68      1.0000 0.32972  0.15549  0.37929  Biso   1.000  C
  H106     1.0000 0.36068  0.22192  0.41489  Biso   1.000  H
  C69      1.0000 0.34259  0.15738  0.45470  Biso   1.000  C
  O55      1.0000 0.84282  0.31831  0.36880  Biso   1.000  O
  H107     1.0000 0.74358  0.34340  0.37240  Biso   1.000  H
  C70      1.0000 0.79790  0.39121  0.41020  Biso   1.000  C
  C71      1.0000 0.84499  0.32160  0.29580  Biso   1.000  C
  O56      1.0000 0.80121  0.39842  0.26041  Biso   1.000  O
  H108     1.0000 0.74611  0.34678  0.29440  Biso   1.000  H
  H109     1.0000 0.27689  0.16810  0.28949  Biso   1.000  H
  O57      1.0000 0.39991  0.14271  0.36941  Biso   1.000  O
  H110     1.0000 0.30299  0.12169  0.38359  Biso   1.000  H
  O58      1.0000 0.30030  0.11308  0.45961  Biso   1.000  O
  H111     1.0000 0.38998  0.14448  0.45321  Biso   1.000  H
  H112     1.0000 0.33881  0.18071  0.47860  Biso   1.000  H
  C72      1.0000 0.83879  0.28550  0.33220  Biso   1.000  C
  O59      1.0000 0.86189  0.42001  0.41020  Biso   1.000  O
  H113     1.0000 0.76022  0.41721  0.41331  Biso   1.000  H
  H114     1.0000 0.79661  0.36582  0.43309  Biso   1.000  H
  O60      1.0000 0.84328  0.28789  0.25989  Biso   1.000  O
  H115     1.0000 0.89022  0.33990  0.29690  Biso   1.000  H
  H116     1.0000 0.78451  0.42891  0.26471  Biso   1.000  H
  C73      1.0000 0.42069  0.08930  0.37530  Biso   1.000  C
  H117     1.0000 0.32341  0.08481  0.45940  Biso   1.000  H
  O61      1.0000 0.77531  0.25628  0.33159  Biso   1.000  O
  H118     1.0000 0.87698  0.25888  0.33210  Biso   1.000  H
  H119     1.0000 0.86711  0.43551  0.43221  Biso   1.000  H
  H120     1.0000 0.82002  0.26028  0.26431  Biso   1.000  H
  O62      1.0000 0.47268  0.08419  0.40511  Biso   1.000  O
  H121     1.0000 0.38068  0.06709  0.38341  Biso   1.000  H
  C74      1.0000 0.44968  0.06680  0.33491  Biso   1.000  C
  C75      1.0000 0.77619  0.19768  0.33509  Biso   1.000  C
  C76      1.0000 0.53538  0.11308  0.39679  Biso   1.000  C
  O63      1.0000 0.39701  0.06771  0.30440  Biso   1.000  O
  H122     1.0000 0.46312  0.02831  0.33939  Biso   1.000  H
  C77      1.0000 0.51321  0.09808  0.32299  Biso   1.000  C
  C78      1.0000 0.74503  0.18079  0.37600  Biso   1.000  C
  C79      1.0000 0.73381  0.17650  0.30010  Biso   1.000  C
  H123     1.0000 0.82369  0.18408  0.33299  Biso   1.000  H
  C80      1.0000 0.56479  0.09408  0.35600  Biso   1.000  C
  H124     1.0000 0.52509  0.15260  0.39499  Biso   1.000  H
  C81      1.0000 0.58469  0.10389  0.43199  Biso   1.000  C
  H125     1.0000 0.37138  0.09400  0.30830  Biso   1.000  H
  O64      1.0000 0.54231  0.07492  0.28580  Biso   1.000  O
  H126     1.0000 0.50132  0.13690  0.31839  Biso   1.000  H
  O65      1.0000 0.73159  0.12252  0.37740  Biso   1.000  O
  H127     1.0000 0.70119  0.20049  0.37981  Biso   1.000  H
  C82      1.0000 0.79258  0.19402  0.41200  Biso   1.000  C
  C83      1.0000 0.72513  0.11390  0.30440  Biso   1.000  C
  O66      1.0000 0.76859  0.18829  0.26291  Biso   1.000  O
  H128     1.0000 0.68832  0.19430  0.30010  Biso   1.000  H
  O67      1.0000 0.62490  0.12759  0.34549  Biso   1.000  O
  H129     1.0000 0.57942  0.05559  0.35859  Biso   1.000  H
  O68      1.0000 0.60650  0.05048  0.43471  Biso   1.000  O
  H130     1.0000 0.62449  0.12771  0.42861  Biso   1.000  H
  H131     1.0000 0.56190  0.11411  0.45720  Biso   1.000  H
  H132     1.0000 0.51377  0.07710  0.26730  Biso   1.000  H
  C84      1.0000 0.69029  0.10220  0.34539  Biso   1.000  C
  O69      1.0000 0.85920  0.16810  0.40709  Biso   1.000  O
  H133     1.0000 0.79863  0.23350  0.41401  Biso   1.000  H
  H134     1.0000 0.77139  0.18112  0.43699  Biso   1.000  H
  O70      1.0000 0.68331  0.09359  0.27221  Biso   1.000  O
  H135     1.0000 0.77051  0.09610  0.30351  Biso   1.000  H
  H136     1.0000 0.74580  0.17650  0.24380  Biso   1.000  H
  H137     1.0000 0.63240  0.04719  0.45431  Biso   1.000  H
  H138     1.0000 0.68450  0.06231  0.34869  Biso   1.000  H
  H139     1.0000 0.86029  0.13941  0.42020  Biso   1.000  H
  H140     1.0000 0.64330  0.09041  0.28010  Biso   1.000  H
  O71      1.0000 0.35918  0.33190  0.59291  Biso   1.000  O
  C85      1.0000 0.29260  0.30598  0.58800  Biso   1.000  C
  H141     1.0000 0.36031  0.36059  0.57980  Biso   1.000  H
  C86      1.0000 0.24500  0.31921  0.62400  Biso   1.000  C
  H142     1.0000 0.29860  0.26650  0.58599  Biso   1.000  H
  H143     1.0000 0.27141  0.31888  0.56301  Biso   1.000  H
  O72      1.0000 0.23161  0.37748  0.62260  Biso   1.000  O
  C87      1.0000 0.27622  0.30232  0.66491  Biso   1.000  C
  H144     1.0000 0.20122  0.29951  0.62019  Biso   1.000  H
  C88      1.0000 0.19031  0.39780  0.65461  Biso   1.000  C
  O73      1.0000 0.27529  0.24372  0.66841  Biso   1.000  O
  C89      1.0000 0.23378  0.32350  0.69990  Biso   1.000  C
  H145     1.0000 0.32372  0.31592  0.66701  Biso   1.000  H
  O74      1.0000 0.12488  0.37241  0.65451  Biso   1.000  O
  H146     1.0000 0.18452  0.43769  0.65131  Biso   1.000  H
  C90      1.0000 0.22510  0.38610  0.69560  Biso   1.000  C
  C91      1.0000 0.33881  0.21450  0.66780  Biso   1.000  C
  O75      1.0000 0.26862  0.31171  0.73709  Biso   1.000  O
  H147     1.0000 0.18830  0.30570  0.69990  Biso   1.000  H
  C92      1.0000 0.06482  0.40592  0.64400  Biso   1.000  C
  O76      1.0000 0.18328  0.40641  0.72779  Biso   1.000  O
  H148     1.0000 0.27048  0.40390  0.69649  Biso   1.000  H
  O77      1.0000 0.34279  0.18169  0.63120  Biso   1.000  O
  H149     1.0000 0.37701  0.24112  0.66790  Biso   1.000  H
  C93      1.0000 0.34501  0.17840  0.70420  Biso   1.000  C
  H150     1.0000 0.24577  0.32350  0.75620  Biso   1.000  H
  C94      1.0000 0.01318  0.40192  0.67701  Biso   1.000  C
  H151     1.0000 0.07939  0.44441  0.64141  Biso   1.000  H
  C95      1.0000 0.03541  0.38692  0.60321  Biso   1.000  C
  H152     1.0000 0.14328  0.40959  0.71990  Biso   1.000  H
  C96      1.0000 0.28930  0.13908  0.62729  Biso   1.000  C
  O78      1.0000 0.34331  0.21211  0.74011  Biso   1.000  O
  H153     1.0000 0.39019  0.16010  0.70310  Biso   1.000  H
  C97      1.0000 0.29178  0.13570  0.70441  Biso   1.000  C
  O79      1.0000 0.04228  0.42508  0.71420  Biso   1.000  O
  H154     1.0000 0.00129  0.36310  0.68161  Biso   1.000  H
  C98      1.0000 0.94971  0.43320  0.66509  Biso   1.000  C
  H155     1.0000 0.02512  0.34740  0.60501  Biso   1.000  H
  C99      1.0000 0.08472  0.39611  0.56801  Biso   1.000  C
  O80      1.0000 0.97271  0.41581  0.59489  Biso   1.000  O
  C100     1.0000 0.29658  0.10039  0.66540  Biso   1.000  C
  H156     1.0000 0.24360  0.15660  0.62760  Biso   1.000  H
  C101     1.0000 0.29788  0.10879  0.58980  Biso   1.000  C
  H157     1.0000 0.32000  0.23972  0.73569  Biso   1.000  H
  O81      1.0000 0.30118  0.10158  0.73959  Biso   1.000  O
  H158     1.0000 0.24608  0.15322  0.70560  Biso   1.000  H
  H159     1.0000 0.01380  0.42290  0.73270  Biso   1.000  H
  O82      1.0000 0.89699  0.43229  0.69560  Biso   1.000  O
  C102     1.0000 0.92071  0.41070  0.62470  Biso   1.000  C
  H160     1.0000 0.96310  0.47169  0.66061  Biso   1.000  H
  O83      1.0000 0.10648  0.44952  0.56529  Biso   1.000  O
  H161     1.0000 0.12452  0.37229  0.57139  Biso   1.000  H
  H162     1.0000 0.06192  0.38589  0.54280  Biso   1.000  H
  O84      1.0000 0.24102  0.06239  0.66479  Biso   1.000  O
  H163     1.0000 0.34078  0.08081  0.66460  Biso   1.000  H
  O85      1.0000 0.36192  0.07999  0.58980  Biso   1.000  O
  H164     1.0000 0.26020  0.08279  0.58669  Biso   1.000  H
  H165     1.0000 0.29658  0.13418  0.56691  Biso   1.000  H
  H166     1.0000 0.28449  0.07109  0.73529  Biso   1.000  H
  H167     1.0000 0.87140  0.40600  0.69170  Biso   1.000  H
  O86      1.0000 0.89988  0.35729  0.63059  Biso   1.000  O
  H168     1.0000 0.88071  0.43291  0.61659  Biso   1.000  H
  H169     1.0000 0.13242  0.45281  0.54569  Biso   1.000  H
  C103     1.0000 0.25921  0.00701  0.66140  Biso   1.000  C
  H170     1.0000 0.36709  0.06449  0.56779  Biso   1.000  H
  C104     1.0000 0.82969  0.34451  0.62071  Biso   1.000  C
  H171     1.0000 0.30951  0.00330  0.66421  Biso   1.000  H
  O87      1.0000 0.23792  0.98430  0.62229  Biso   1.000  O
  C105     1.0000 0.22360  0.97429  0.69530  Biso   1.000  C
  C106     1.0000 0.80080  0.31208  0.65729  Biso   1.000  C
  H172     1.0000 0.80302  0.37831  0.61641  Biso   1.000  H
  C107     1.0000 0.82731  0.30829  0.58270  Biso   1.000  C
  C108     1.0000 0.16421  0.98801  0.61559  Biso   1.000  C
  O88      1.0000 0.24800  0.99452  0.73371  Biso   1.000  O
  H173     1.0000 0.23652  0.93538  0.69271  Biso   1.000  H
  C109     1.0000 0.14679  0.97911  0.69122  Biso   1.000  C
  O89      1.0000 0.79759  0.34748  0.69201  Biso   1.000  O
  C110     1.0000 0.72761  0.29280  0.64641  Biso   1.000  C
  H174     1.0000 0.83031  0.28031  0.66320  Biso   1.000  H
  O90      1.0000 0.75831  0.28649  0.57639  Biso   1.000  O
  H175     1.0000 0.86070  0.27808  0.58511  Biso   1.000  H
  C111     1.0000 0.84261  0.34262  0.54530  Biso   1.000  C
  H176     1.0000 0.15051  0.02679  0.61349  Biso   1.000  H
  C112     1.0000 0.12327  0.96011  0.65040  Biso   1.000  C
  C113     1.0000 0.15150  0.95858  0.57441  Biso   1.000  C
  H177     1.0000 0.26841  0.96979  0.74581  Biso   1.000  H
  H178     1.0000 0.13397  0.01801  0.69439  Biso   1.000  H
  O91      1.0000 0.11438  0.94841  0.72249  Biso   1.000  O
  H179     1.0000 0.77692  0.33190  0.71051  Biso   1.000  H
  O92      1.0000 0.69820  0.26341  0.68000  Biso   1.000  O
  C114     1.0000 0.73190  0.25542  0.60879  Biso   1.000  C
  H180     1.0000 0.69871  0.32490  0.64010  Biso   1.000  H
  O93      1.0000 0.80028  0.38692  0.54039  Biso   1.000  O
  H181     1.0000 0.89001  0.35552  0.54679  Biso   1.000  H
  H182     1.0000 0.83879  0.31929  0.52140  Biso   1.000  H
  O94      1.0000 0.05319  0.97091  0.64531  Biso   1.000  O
  H183     1.0000 0.13041  0.92022  0.64869  Biso   1.000  H
  O95      1.0000 0.17031  0.90159  0.57550  Biso   1.000  O
  H184     1.0000 0.10301  0.96172  0.56730  Biso   1.000  H
  H185     1.0000 0.17801  0.97688  0.55331  Biso   1.000  H
  H186     1.0000 0.07490  0.94041  0.71560  Biso   1.000  H
  H187     1.0000 0.65648  0.26931  0.68100  Biso   1.000  H
  O96      1.0000 0.77361  0.21001  0.61809  Biso   1.000  O
  H188     1.0000 0.68548  0.24240  0.60181  Biso   1.000  H
  H189     1.0000 0.82338  0.41519  0.54060  Biso   1.000  H
  C115     1.0000 0.00651  0.92648  0.63540  Biso   1.000  C
  H190     1.0000 0.13599  0.88259  0.57151  Biso   1.000  H
  C116     1.0000 0.74730  0.15639  0.61089  Biso   1.000  C
  O97      1.0000 0.97540  0.93452  0.59730  Biso   1.000  O
  C117     1.0000 0.95110  0.92570  0.66939  Biso   1.000  C
  H191     1.0000 0.03179  0.89149  0.63549  Biso   1.000  H
  C118     1.0000 0.75050  0.12338  0.64979  Biso   1.000  C
  H192     1.0000 0.69938  0.15878  0.60129  Biso   1.000  H
  C119     1.0000 0.79299  0.12672  0.57819  Biso   1.000  C
  C120     1.0000 0.93379  0.98290  0.59401  Biso   1.000  C
  O98      1.0000 0.98129  0.91601  0.70740  Biso   1.000  O
  H193     1.0000 0.91988  0.89491  0.66369  Biso   1.000  H
  C121     1.0000 0.90981  0.97672  0.66780  Biso   1.000  C
  O99      1.0000 0.70342  0.14811  0.67951  Biso   1.000  O
  C122     1.0000 0.73019  0.06478  0.64229  Biso   1.000  C
  H194     1.0000 0.79769  0.12450  0.66061  Biso   1.000  H
  O100     1.0000 0.77309  0.07191  0.57401  Biso   1.000  O
  H195     1.0000 0.84122  0.12759  0.58739  Biso   1.000  H
  C123     1.0000 0.78911  0.15380  0.53749  Biso   1.000  C
  C124     1.0000 0.87838  0.98430  0.62629  Biso   1.000  C
  C125     1.0000 0.90298  0.97981  0.55020  Biso   1.000  C
  H196     1.0000 0.96310  0.01562  0.59638  Biso   1.000  H
  H197     1.0000 0.96232  0.88952  0.71831  Biso   1.000  H
  O101     1.0000 0.85362  0.97470  0.69710  Biso   1.000  O
  H198     1.0000 0.93958  0.00820  0.67399  Biso   1.000  H
  H199     1.0000 0.70492  0.18182  0.67741  Biso   1.000  H
  O102     1.0000 0.73138  0.03120  0.67759  Biso   1.000  O
  C126     1.0000 0.77759  0.04001  0.60910  Biso   1.000  C
  H200     1.0000 0.68290  0.06478  0.63171  Biso   1.000  H
  O103     1.0000 0.72078  0.14852  0.52051  Biso   1.000  O
  H201     1.0000 0.80059  0.19249  0.54021  Biso   1.000  H
  H202     1.0000 0.82240  0.13698  0.51920  Biso   1.000  H
  H203     1.0000 0.84468  0.95500  0.62120  Biso   1.000  H
  O104     1.0000 0.84401  0.03812  0.62440  Biso   1.000  O
  O105     1.0000 0.86168  0.93398  0.54511  Biso   1.000  O
  H204     1.0000 0.94040  0.97869  0.53051  Biso   1.000  H
  H205     1.0000 0.87590  0.01269  0.54490  Biso   1.000  H
  H206     1.0000 0.86902  0.96691  0.71959  Biso   1.000  H
  H207     1.0000 0.76968  0.01718  0.68000  Biso   1.000  H
  H208     1.0000 0.76219  0.00251  0.60291  Biso   1.000  H
  H209     1.0000 0.71830  0.11988  0.50719  Biso   1.000  H
  H210     1.0000 0.87150  0.91090  0.56240  Biso   1.000  H
  O106     1.0000 0.35918  0.66810  0.40709  Biso   1.000  O
  C127     1.0000 0.29260  0.69402  0.41200  Biso   1.000  C
  H211     1.0000 0.36031  0.63941  0.42020  Biso   1.000  H
  C128     1.0000 0.24500  0.68079  0.37600  Biso   1.000  C
  H212     1.0000 0.29860  0.73350  0.41401  Biso   1.000  H
  H213     1.0000 0.27141  0.68112  0.43699  Biso   1.000  H
  O107     1.0000 0.23161  0.62252  0.37740  Biso   1.000  O
  C129     1.0000 0.27622  0.69768  0.33509  Biso   1.000  C
  H214     1.0000 0.20122  0.70049  0.37981  Biso   1.000  H
  C130     1.0000 0.19031  0.60220  0.34539  Biso   1.000  C
  C131     1.0000 0.23378  0.67650  0.30010  Biso   1.000  C
  O108     1.0000 0.27529  0.75628  0.33159  Biso   1.000  O
  H215     1.0000 0.32372  0.68408  0.33299  Biso   1.000  H
  C132     1.0000 0.22510  0.61390  0.30440  Biso   1.000  C
  O109     1.0000 0.12488  0.62759  0.34549  Biso   1.000  O
  H216     1.0000 0.18452  0.56231  0.34869  Biso   1.000  H
  O110     1.0000 0.26862  0.68829  0.26291  Biso   1.000  O
  H217     1.0000 0.18830  0.69430  0.30010  Biso   1.000  H
  C133     1.0000 0.33881  0.78550  0.33220  Biso   1.000  C
  O111     1.0000 0.18328  0.59359  0.27221  Biso   1.000  O
  H218     1.0000 0.27048  0.59610  0.30351  Biso   1.000  H
  C134     1.0000 0.06482  0.59408  0.35600  Biso   1.000  C
  H219     1.0000 0.24577  0.67650  0.24380  Biso   1.000  H
  O112     1.0000 0.34279  0.81831  0.36880  Biso   1.000  O
  H220     1.0000 0.37701  0.75888  0.33210  Biso   1.000  H
  C135     1.0000 0.34501  0.82160  0.29580  Biso   1.000  C
  H221     1.0000 0.14328  0.59041  0.28010  Biso   1.000  H
  C136     1.0000 0.01318  0.59808  0.32299  Biso   1.000  C
  H222     1.0000 0.07939  0.55559  0.35859  Biso   1.000  H
  C137     1.0000 0.03541  0.61308  0.39679  Biso   1.000  C
  C138     1.0000 0.28930  0.86092  0.37271  Biso   1.000  C
  O113     1.0000 0.34331  0.78789  0.25989  Biso   1.000  O
  H223     1.0000 0.39019  0.83990  0.29690  Biso   1.000  H
  C139     1.0000 0.29178  0.86430  0.29559  Biso   1.000  C
  O114     1.0000 0.04228  0.57492  0.28580  Biso   1.000  O
  H224     1.0000 0.00129  0.63690  0.31839  Biso   1.000  H
  C140     1.0000 0.94971  0.56680  0.33491  Biso   1.000  C
  H225     1.0000 0.02512  0.65260  0.39499  Biso   1.000  H
  C141     1.0000 0.08472  0.60389  0.43199  Biso   1.000  C
  O115     1.0000 0.97271  0.58419  0.40511  Biso   1.000  O
  C142     1.0000 0.29658  0.89961  0.33460  Biso   1.000  C
  H226     1.0000 0.24360  0.84340  0.37240  Biso   1.000  H
  C143     1.0000 0.29788  0.89121  0.41020  Biso   1.000  C
  H227     1.0000 0.32000  0.76028  0.26431  Biso   1.000  H
  O116     1.0000 0.30118  0.89842  0.26041  Biso   1.000  O
  H228     1.0000 0.24608  0.84678  0.29440  Biso   1.000  H
  H229     1.0000 0.01380  0.57710  0.26730  Biso   1.000  H
  O117     1.0000 0.89699  0.56771  0.30440  Biso   1.000  O
  C144     1.0000 0.92071  0.58930  0.37530  Biso   1.000  C
  H230     1.0000 0.96310  0.52831  0.33939  Biso   1.000  H
  O118     1.0000 0.10648  0.55048  0.43471  Biso   1.000  O
  H231     1.0000 0.12452  0.62771  0.42861  Biso   1.000  H
  H232     1.0000 0.06192  0.61411  0.45720  Biso   1.000  H
  O119     1.0000 0.24102  0.93761  0.33521  Biso   1.000  O
  H233     1.0000 0.34078  0.91919  0.33540  Biso   1.000  H
  O120     1.0000 0.36192  0.92001  0.41020  Biso   1.000  O
  H234     1.0000 0.26020  0.91721  0.41331  Biso   1.000  H
  H235     1.0000 0.29658  0.86582  0.43309  Biso   1.000  H
  H236     1.0000 0.28449  0.92891  0.26471  Biso   1.000  H
  H237     1.0000 0.87140  0.59400  0.30830  Biso   1.000  H
  O121     1.0000 0.89988  0.64271  0.36941  Biso   1.000  O
  H238     1.0000 0.88071  0.56709  0.38341  Biso   1.000  H
  H239     1.0000 0.13242  0.54719  0.45431  Biso   1.000  H
  C145     1.0000 0.25921  0.99299  0.33860  Biso   1.000  C
  H240     1.0000 0.36709  0.93551  0.43221  Biso   1.000  H
  C146     1.0000 0.82969  0.65549  0.37929  Biso   1.000  C
  H241     1.0000 0.30951  0.99670  0.33579  Biso   1.000  H
  O122     1.0000 0.23792  0.01570  0.37771  Biso   1.000  O
  C147     1.0000 0.22360  0.02571  0.30470  Biso   1.000  C
  C148     1.0000 0.80080  0.68792  0.34271  Biso   1.000  C
  H242     1.0000 0.80302  0.62169  0.38359  Biso   1.000  H
  C149     1.0000 0.82731  0.69171  0.41730  Biso   1.000  C
  C150     1.0000 0.16421  0.01199  0.38441  Biso   1.000  C
  O123     1.0000 0.24800  0.00548  0.26629  Biso   1.000  O
  H243     1.0000 0.23652  0.06462  0.30729  Biso   1.000  H
  C151     1.0000 0.14679  0.02089  0.30878  Biso   1.000  C
  O124     1.0000 0.79759  0.65252  0.30799  Biso   1.000  O
  C152     1.0000 0.72761  0.70720  0.35359  Biso   1.000  C
  H244     1.0000 0.83031  0.71969  0.33680  Biso   1.000  H
  O125     1.0000 0.75831  0.71351  0.42361  Biso   1.000  O
  H245     1.0000 0.86070  0.72192  0.41489  Biso   1.000  H
  C153     1.0000 0.84261  0.65738  0.45470  Biso   1.000  C
  H246     1.0000 0.15051  0.97321  0.38651  Biso   1.000  H
  C154     1.0000 0.12327  0.03989  0.34960  Biso   1.000  C
  C155     1.0000 0.15150  0.04142  0.42559  Biso   1.000  C
  H247     1.0000 0.26841  0.03021  0.25419  Biso   1.000  H
  H248     1.0000 0.13397  0.98199  0.30561  Biso   1.000  H
  O126     1.0000 0.11438  0.05159  0.27751  Biso   1.000  O
  H249     1.0000 0.77692  0.66810  0.28949  Biso   1.000  H
  O127     1.0000 0.69820  0.73659  0.32000  Biso   1.000  O
  C156     1.0000 0.73190  0.74458  0.39121  Biso   1.000  C
  H250     1.0000 0.69871  0.67510  0.35990  Biso   1.000  H
  O128     1.0000 0.80028  0.61308  0.45961  Biso   1.000  O
  H251     1.0000 0.89001  0.64448  0.45321  Biso   1.000  H
  H252     1.0000 0.83879  0.68071  0.47860  Biso   1.000  H
  O129     1.0000 0.05319  0.02909  0.35469  Biso   1.000  O
  H253     1.0000 0.13041  0.07978  0.35131  Biso   1.000  H
  O130     1.0000 0.17031  0.09841  0.42450  Biso   1.000  O
  H254     1.0000 0.10301  0.03828  0.43270  Biso   1.000  H
  H255     1.0000 0.17801  0.02312  0.44669  Biso   1.000  H
  H256     1.0000 0.07490  0.05959  0.28440  Biso   1.000  H
  H257     1.0000 0.65648  0.73069  0.31900  Biso   1.000  H
  O131     1.0000 0.77361  0.78999  0.38191  Biso   1.000  O
  H258     1.0000 0.68548  0.75760  0.39819  Biso   1.000  H
  H259     1.0000 0.82338  0.58481  0.45940  Biso   1.000  H
  C157     1.0000 0.00651  0.07352  0.36460  Biso   1.000  C
  H260     1.0000 0.13599  0.11741  0.42849  Biso   1.000  H
  C158     1.0000 0.74730  0.84361  0.38911  Biso   1.000  C
  O132     1.0000 0.97540  0.06548  0.40270  Biso   1.000  O
  C159     1.0000 0.95110  0.07430  0.33061  Biso   1.000  C
  H261     1.0000 0.03179  0.10851  0.36451  Biso   1.000  H
  C160     1.0000 0.75050  0.87662  0.35021  Biso   1.000  C
  H262     1.0000 0.69938  0.84122  0.39871  Biso   1.000  H
  C161     1.0000 0.79299  0.87328  0.42181  Biso   1.000  C
  C162     1.0000 0.93379  0.01710  0.40599  Biso   1.000  C
  O133     1.0000 0.98129  0.08399  0.29260  Biso   1.000  O
  H263     1.0000 0.91988  0.10509  0.33631  Biso   1.000  H
  C163     1.0000 0.90981  0.02328  0.33220  Biso   1.000  C
  O134     1.0000 0.70342  0.85189  0.32049  Biso   1.000  O
  C164     1.0000 0.73019  0.93522  0.35771  Biso   1.000  C
  H264     1.0000 0.79769  0.87550  0.33939  Biso   1.000  H
  O135     1.0000 0.77309  0.92809  0.42599  Biso   1.000  O
  H265     1.0000 0.84122  0.87241  0.41261  Biso   1.000  H
  C165     1.0000 0.78911  0.84620  0.46251  Biso   1.000  C
  H266     1.0000 0.96310  0.98438  0.40362  Biso   1.000  H
  C166     1.0000 0.87838  0.01570  0.37371  Biso   1.000  C
  C167     1.0000 0.90298  0.02019  0.44980  Biso   1.000  C
  H267     1.0000 0.96232  0.11048  0.28169  Biso   1.000  H
  H268     1.0000 0.93958  0.99180  0.32601  Biso   1.000  H
  O136     1.0000 0.85362  0.02530  0.30290  Biso   1.000  O
  H269     1.0000 0.70492  0.81818  0.32259  Biso   1.000  H
  O137     1.0000 0.73138  0.96880  0.32241  Biso   1.000  O
  C168     1.0000 0.77759  0.95999  0.39090  Biso   1.000  C
  H270     1.0000 0.68290  0.93522  0.36829  Biso   1.000  H
  O138     1.0000 0.72078  0.85148  0.47949  Biso   1.000  O
  H271     1.0000 0.80059  0.80751  0.45979  Biso   1.000  H
  H272     1.0000 0.82240  0.86302  0.48080  Biso   1.000  H
  O139     1.0000 0.84401  0.96188  0.37560  Biso   1.000  O
  H273     1.0000 0.84468  0.04500  0.37880  Biso   1.000  H
  H274     1.0000 0.87590  0.98731  0.45510  Biso   1.000  H
  O140     1.0000 0.86168  0.06602  0.45489  Biso   1.000  O
  H275     1.0000 0.94040  0.02131  0.46949  Biso   1.000  H
  H276     1.0000 0.86902  0.03309  0.28041  Biso   1.000  H
  H277     1.0000 0.76968  0.98282  0.32000  Biso   1.000  H
  H278     1.0000 0.76219  0.99749  0.39709  Biso   1.000  H
  H279     1.0000 0.71830  0.88012  0.49281  Biso   1.000  H
  H280     1.0000 0.87150  0.08910  0.43760  Biso   1.000  H
  O141     1.0000 0.38559  0.55159  0.22249  Biso   1.000  O
  C169     1.0000 0.35318  0.52089  0.19122  Biso   1.000  C
  H281     1.0000 0.42508  0.55959  0.21560  Biso   1.000  H
  C170     1.0000 0.27643  0.52571  0.19530  Biso   1.000  C
  C171     1.0000 0.37670  0.53989  0.15040  Biso   1.000  C
  H282     1.0000 0.36600  0.48199  0.19439  Biso   1.000  H
  C172     1.0000 0.24081  0.49299  0.16140  Biso   1.000  C
  O142     1.0000 0.25198  0.50548  0.23371  Biso   1.000  O
  H283     1.0000 0.26350  0.56462  0.19271  Biso   1.000  H
  C173     1.0000 0.33581  0.51199  0.11559  Biso   1.000  C
  O143     1.0000 0.44679  0.52909  0.14531  Biso   1.000  O
  H284     1.0000 0.36962  0.57978  0.14869  Biso   1.000  H
  O144     1.0000 0.25901  0.43761  0.16479  Biso   1.000  O
  O145     1.0000 0.26211  0.51570  0.12229  Biso   1.000  O
  H285     1.0000 0.19052  0.49670  0.16421  Biso   1.000  H
  H286     1.0000 0.23161  0.53021  0.24581  Biso   1.000  H
  H287     1.0000 0.34951  0.47321  0.11349  Biso   1.000  H
  C174     1.0000 0.34848  0.54142  0.07441  Biso   1.000  C
  C175     1.0000 0.49351  0.57352  0.13540  Biso   1.000  C
  C176     1.0000 0.20339  0.39961  0.16540  Biso   1.000  C
  O146     1.0000 0.32972  0.59841  0.07550  Biso   1.000  O
  H288     1.0000 0.39701  0.53828  0.06730  Biso   1.000  H
  H289     1.0000 0.32201  0.52312  0.05331  Biso   1.000  H
  O147     1.0000 0.52458  0.56548  0.09730  Biso   1.000  O
  H290     1.0000 0.46819  0.60851  0.13549  Biso   1.000  H
  C177     1.0000 0.54892  0.57430  0.16939  Biso   1.000  C
  C178     1.0000 0.21068  0.36092  0.12729  Biso   1.000  C
  C179     1.0000 0.20820  0.36430  0.20441  Biso   1.000  C
  H291     1.0000 0.15920  0.41919  0.16460  Biso   1.000  H
  H292     1.0000 0.36398  0.61741  0.07151  Biso   1.000  H
  C180     1.0000 0.56619  0.51710  0.09401  Biso   1.000  C
  O148     1.0000 0.51869  0.58399  0.20740  Biso   1.000  O
  H293     1.0000 0.58009  0.60509  0.16369  Biso   1.000  H
  C181     1.0000 0.59022  0.52328  0.16780  Biso   1.000  C
  O149     1.0000 0.15718  0.31831  0.13120  Biso   1.000  O
  H294     1.0000 0.25642  0.34340  0.12760  Biso   1.000  H
  C182     1.0000 0.20210  0.39121  0.08980  Biso   1.000  C
  C183     1.0000 0.15501  0.32160  0.20420  Biso   1.000  C
  O150     1.0000 0.19879  0.39842  0.23959  Biso   1.000  O
  H295     1.0000 0.25389  0.34678  0.20560  Biso   1.000  H
  C184     1.0000 0.62160  0.51570  0.12629  Biso   1.000  C
  H296     1.0000 0.53688  0.48438  0.09638  Biso   1.000  H
  C185     1.0000 0.59699  0.52019  0.05020  Biso   1.000  C
  H297     1.0000 0.53771  0.61048  0.21831  Biso   1.000  H
  O151     1.0000 0.64641  0.52530  0.19710  Biso   1.000  O
  H298     1.0000 0.56040  0.49180  0.17399  Biso   1.000  H
  C186     1.0000 0.16121  0.28550  0.16780  Biso   1.000  C
  O152     1.0000 0.13811  0.42001  0.08980  Biso   1.000  O
  H299     1.0000 0.23978  0.41721  0.08669  Biso   1.000  H
  H300     1.0000 0.20339  0.36582  0.06691  Biso   1.000  H
  O153     1.0000 0.15672  0.28789  0.24011  Biso   1.000  O
  H301     1.0000 0.10978  0.33990  0.20310  Biso   1.000  H
  H302     1.0000 0.21549  0.42891  0.23529  Biso   1.000  H
  O154     1.0000 0.65602  0.46188  0.12440  Biso   1.000  O
  H303     1.0000 0.65530  0.54500  0.12120  Biso   1.000  H
  O155     1.0000 0.63829  0.56602  0.04511  Biso   1.000  O
  H304     1.0000 0.62408  0.48731  0.04490  Biso   1.000  H
  H305     1.0000 0.55962  0.52131  0.03051  Biso   1.000  H
  H306     1.0000 0.63100  0.53309  0.21959  Biso   1.000  H
  O156     1.0000 0.22469  0.25628  0.16841  Biso   1.000  O
  H307     1.0000 0.12302  0.25888  0.16790  Biso   1.000  H
  H308     1.0000 0.13289  0.43551  0.06779  Biso   1.000  H
  H309     1.0000 0.17998  0.26028  0.23569  Biso   1.000  H
  C187     1.0000 0.72239  0.45999  0.10910  Biso   1.000  C
  H310     1.0000 0.62852  0.58910  0.06240  Biso   1.000  H
  C188     1.0000 0.22381  0.19768  0.16491  Biso   1.000  C
  C189     1.0000 0.76978  0.43522  0.14229  Biso   1.000  C
  O157     1.0000 0.72688  0.42809  0.07401  Biso   1.000  O
  H311     1.0000 0.73779  0.49749  0.10291  Biso   1.000  H
  C190     1.0000 0.26619  0.17650  0.19990  Biso   1.000  C
  H312     1.0000 0.17631  0.18408  0.16701  Biso   1.000  H
  C191     1.0000 0.25497  0.18079  0.12400  Biso   1.000  C
  C192     1.0000 0.74952  0.37662  0.14979  Biso   1.000  C
  O158     1.0000 0.76859  0.46880  0.17759  Biso   1.000  O
  H313     1.0000 0.81708  0.43522  0.13171  Biso   1.000  H
  C193     1.0000 0.70698  0.37328  0.07819  Biso   1.000  C
  O159     1.0000 0.23141  0.18829  0.23709  Biso   1.000  O
  C194     1.0000 0.27487  0.11390  0.19560  Biso   1.000  C
  H314     1.0000 0.31168  0.19430  0.19990  Biso   1.000  H
  O160     1.0000 0.26841  0.12252  0.12260  Biso   1.000  O
  H315     1.0000 0.29881  0.20049  0.12019  Biso   1.000  H
  C195     1.0000 0.20742  0.19402  0.08800  Biso   1.000  C
  C196     1.0000 0.75267  0.34361  0.11089  Biso   1.000  C
  O161     1.0000 0.79661  0.35189  0.17951  Biso   1.000  O
  H316     1.0000 0.70228  0.37550  0.16061  Biso   1.000  H
  H317     1.0000 0.73029  0.48282  0.18000  Biso   1.000  H
  H318     1.0000 0.65881  0.37241  0.08739  Biso   1.000  H
  C197     1.0000 0.71091  0.34620  0.03749  Biso   1.000  C
  H319     1.0000 0.25420  0.17650  0.25620  Biso   1.000  H
  O162     1.0000 0.31669  0.09359  0.22779  Biso   1.000  O
  C198     1.0000 0.30971  0.10220  0.15461  Biso   1.000  C
  H320     1.0000 0.22949  0.09610  0.19649  Biso   1.000  H
  O163     1.0000 0.14080  0.16810  0.09291  Biso   1.000  O
  H321     1.0000 0.20137  0.23350  0.08599  Biso   1.000  H
  H322     1.0000 0.22861  0.18112  0.06301  Biso   1.000  H
  O164     1.0000 0.72642  0.28999  0.11809  Biso   1.000  O
  H323     1.0000 0.80059  0.34122  0.10129  Biso   1.000  H
  H324     1.0000 0.79511  0.31818  0.17741  Biso   1.000  H
  O165     1.0000 0.77919  0.35148  0.02051  Biso   1.000  O
  H325     1.0000 0.69938  0.30751  0.04021  Biso   1.000  H
  H326     1.0000 0.67762  0.36302  0.01920  Biso   1.000  H
  H327     1.0000 0.35670  0.09041  0.21990  Biso   1.000  H
  O166     1.0000 0.37510  0.12759  0.15451  Biso   1.000  O
  H328     1.0000 0.31550  0.06231  0.15131  Biso   1.000  H
  H329     1.0000 0.13971  0.13941  0.07980  Biso   1.000  H
  C199     1.0000 0.76808  0.24458  0.10879  Biso   1.000  C
  H330     1.0000 0.78172  0.38012  0.00719  Biso   1.000  H
  C200     1.0000 0.43521  0.09408  0.14400  Biso   1.000  C
  C201     1.0000 0.77242  0.20720  0.14641  Biso   1.000  C
  O167     1.0000 0.74172  0.21351  0.07639  Biso   1.000  O
  H331     1.0000 0.81449  0.25760  0.10181  Biso   1.000  H
  C202     1.0000 0.48679  0.09808  0.17701  Biso   1.000  C
  H332     1.0000 0.42058  0.05559  0.14141  Biso   1.000  H
  C203     1.0000 0.46462  0.11308  0.10321  Biso   1.000  C
  C204     1.0000 0.69918  0.18792  0.15729  Biso   1.000  C
  O168     1.0000 0.80178  0.23659  0.18000  Biso   1.000  O
  H333     1.0000 0.80131  0.17510  0.14010  Biso   1.000  H
  C205     1.0000 0.67271  0.19171  0.08270  Biso   1.000  C
  O169     1.0000 0.45769  0.07492  0.21420  Biso   1.000  O
  C206     1.0000 0.55032  0.06680  0.16509  Biso   1.000  C
  H334     1.0000 0.49868  0.13690  0.18161  Biso   1.000  H
  O170     1.0000 0.52732  0.08419  0.09489  Biso   1.000  O
  H335     1.0000 0.47491  0.15260  0.10501  Biso   1.000  H
  C207     1.0000 0.41531  0.10389  0.06801  Biso   1.000  C
  C208     1.0000 0.67028  0.15549  0.12071  Biso   1.000  C
  O171     1.0000 0.70238  0.15252  0.19201  Biso   1.000  O
  H336     1.0000 0.66972  0.21969  0.16320  Biso   1.000  H
  H337     1.0000 0.84349  0.23069  0.18100  Biso   1.000  H
  H338     1.0000 0.63932  0.22192  0.08511  Biso   1.000  H
  C209     1.0000 0.65741  0.15738  0.04530  Biso   1.000  C
  H339     1.0000 0.48623  0.07710  0.23270  Biso   1.000  H
  O172     1.0000 0.60299  0.06771  0.19560  Biso   1.000  O
  C210     1.0000 0.57931  0.08930  0.12470  Biso   1.000  C
  H340     1.0000 0.53688  0.02831  0.16061  Biso   1.000  H
  O173     1.0000 0.39350  0.05048  0.06529  Biso   1.000  O
  H341     1.0000 0.37551  0.12771  0.07139  Biso   1.000  H
  H342     1.0000 0.43810  0.11411  0.04280  Biso   1.000  H
  O174     1.0000 0.60009  0.14271  0.13059  Biso   1.000  O
  H343     1.0000 0.69701  0.12169  0.11641  Biso   1.000  H
  H344     1.0000 0.72311  0.16810  0.21051  Biso   1.000  H
  O175     1.0000 0.69970  0.11308  0.04039  Biso   1.000  O
  H345     1.0000 0.61002  0.14448  0.04679  Biso   1.000  H
  H346     1.0000 0.66119  0.18071  0.02140  Biso   1.000  H
  H347     1.0000 0.62862  0.09400  0.19170  Biso   1.000  H
  H348     1.0000 0.61932  0.06709  0.11659  Biso   1.000  H
  H349     1.0000 0.36760  0.04719  0.04569  Biso   1.000  H
  H350     1.0000 0.67659  0.08481  0.04060  Biso   1.000  H
  O176     1.0000 0.38559  0.44841  0.77751  Biso   1.000  O
  C211     1.0000 0.35318  0.47911  0.80878  Biso   1.000  C
  H351     1.0000 0.42508  0.44041  0.78440  Biso   1.000  H
  C212     1.0000 0.27643  0.47429  0.80470  Biso   1.000  C
  H352     1.0000 0.36600  0.51801  0.80561  Biso   1.000  H
  C213     1.0000 0.37670  0.46011  0.84960  Biso   1.000  C
  O177     1.0000 0.25198  0.49452  0.76629  Biso   1.000  O
  C214     1.0000 0.24081  0.50701  0.83860  Biso   1.000  C
  H353     1.0000 0.26350  0.43538  0.80729  Biso   1.000  H
  C215     1.0000 0.33581  0.48801  0.88441  Biso   1.000  C
  O178     1.0000 0.44679  0.47091  0.85469  Biso   1.000  O
  H354     1.0000 0.36962  0.42022  0.85131  Biso   1.000  H
  H355     1.0000 0.23161  0.46979  0.75419  Biso   1.000  H
  O179     1.0000 0.25901  0.56239  0.83521  Biso   1.000  O
  O180     1.0000 0.26211  0.48430  0.87771  Biso   1.000  O
  H356     1.0000 0.19052  0.50330  0.83579  Biso   1.000  H
  H357     1.0000 0.34951  0.52679  0.88651  Biso   1.000  H
  C216     1.0000 0.34848  0.45858  0.92559  Biso   1.000  C
  C217     1.0000 0.49351  0.42648  0.86460  Biso   1.000  C
  C218     1.0000 0.20339  0.60039  0.83460  Biso   1.000  C
  O181     1.0000 0.32972  0.40159  0.92450  Biso   1.000  O
  H358     1.0000 0.39701  0.46172  0.93270  Biso   1.000  H
  H359     1.0000 0.32201  0.47688  0.94669  Biso   1.000  H
  O182     1.0000 0.52458  0.43452  0.90270  Biso   1.000  O
  H360     1.0000 0.46819  0.39149  0.86451  Biso   1.000  H
  C219     1.0000 0.54892  0.42570  0.83061  Biso   1.000  C
  C220     1.0000 0.20820  0.63570  0.79559  Biso   1.000  C
  H361     1.0000 0.15920  0.58081  0.83540  Biso   1.000  H
  C221     1.0000 0.21068  0.63908  0.87271  Biso   1.000  C
  H362     1.0000 0.36398  0.38259  0.92849  Biso   1.000  H
  C222     1.0000 0.56619  0.48290  0.90599  Biso   1.000  C
  O183     1.0000 0.51869  0.41601  0.79260  Biso   1.000  O
  H363     1.0000 0.58009  0.39491  0.83631  Biso   1.000  H
  C223     1.0000 0.59022  0.47672  0.83220  Biso   1.000  C
  O184     1.0000 0.19879  0.60158  0.76041  Biso   1.000  O
  C224     1.0000 0.15501  0.67840  0.79580  Biso   1.000  C
  H364     1.0000 0.25389  0.65322  0.79440  Biso   1.000  H
  O185     1.0000 0.15718  0.68169  0.86880  Biso   1.000  O
  H365     1.0000 0.25642  0.65660  0.87240  Biso   1.000  H
  C225     1.0000 0.20210  0.60879  0.91020  Biso   1.000  C
  C226     1.0000 0.62160  0.48430  0.87371  Biso   1.000  C
  H366     1.0000 0.53688  0.51562  0.90362  Biso   1.000  H
  C227     1.0000 0.59699  0.47981  0.94980  Biso   1.000  C
  H367     1.0000 0.53771  0.38952  0.78169  Biso   1.000  H
  O186     1.0000 0.64641  0.47470  0.80290  Biso   1.000  O
  H368     1.0000 0.56040  0.50820  0.82601  Biso   1.000  H
  H369     1.0000 0.21549  0.57109  0.76471  Biso   1.000  H
  O187     1.0000 0.15672  0.71211  0.75989  Biso   1.000  O
  C228     1.0000 0.16121  0.71450  0.83220  Biso   1.000  C
  H370     1.0000 0.10978  0.66010  0.79690  Biso   1.000  H
  O188     1.0000 0.13811  0.57999  0.91020  Biso   1.000  O
  H371     1.0000 0.23978  0.58279  0.91331  Biso   1.000  H
  H372     1.0000 0.20339  0.63418  0.93309  Biso   1.000  H
  O189     1.0000 0.65602  0.53812  0.87560  Biso   1.000  O
  H373     1.0000 0.65530  0.45500  0.87880  Biso   1.000  H
  O190     1.0000 0.63829  0.43398  0.95489  Biso   1.000  O
  H374     1.0000 0.62408  0.51269  0.95510  Biso   1.000  H
  H375     1.0000 0.55962  0.47869  0.96949  Biso   1.000  H
  H376     1.0000 0.63100  0.46691  0.78041  Biso   1.000  H
  H377     1.0000 0.17998  0.73972  0.76431  Biso   1.000  H
  O191     1.0000 0.22469  0.74372  0.83159  Biso   1.000  O
  H378     1.0000 0.12302  0.74112  0.83210  Biso   1.000  H
  H379     1.0000 0.13289  0.56449  0.93221  Biso   1.000  H
  C229     1.0000 0.72239  0.54001  0.89090  Biso   1.000  C
  H380     1.0000 0.62852  0.41090  0.93760  Biso   1.000  H
  C230     1.0000 0.22381  0.80232  0.83509  Biso   1.000  C
  O192     1.0000 0.72688  0.57191  0.92599  Biso   1.000  O
  H381     1.0000 0.73779  0.50251  0.89709  Biso   1.000  H
  C231     1.0000 0.76978  0.56478  0.85771  Biso   1.000  C
  C232     1.0000 0.26619  0.82350  0.80010  Biso   1.000  C
  H382     1.0000 0.17631  0.81592  0.83299  Biso   1.000  H
  C233     1.0000 0.25497  0.81921  0.87600  Biso   1.000  C
  C234     1.0000 0.70698  0.62672  0.92181  Biso   1.000  C
  O193     1.0000 0.76859  0.53120  0.82241  Biso   1.000  O
  H383     1.0000 0.81708  0.56478  0.86829  Biso   1.000  H
  C235     1.0000 0.74952  0.62338  0.85021  Biso   1.000  C
  O194     1.0000 0.23141  0.81171  0.76291  Biso   1.000  O
  C236     1.0000 0.27487  0.88610  0.80440  Biso   1.000  C
  H384     1.0000 0.31168  0.80570  0.80010  Biso   1.000  H
  O195     1.0000 0.26841  0.87748  0.87740  Biso   1.000  O
  H385     1.0000 0.29881  0.79951  0.87981  Biso   1.000  H
  C237     1.0000 0.20742  0.80598  0.91200  Biso   1.000  C
  C238     1.0000 0.75267  0.65639  0.88911  Biso   1.000  C
  H386     1.0000 0.65881  0.62759  0.91261  Biso   1.000  H
  C239     1.0000 0.71091  0.65380  0.96251  Biso   1.000  C
  H387     1.0000 0.73029  0.51718  0.82000  Biso   1.000  H
  O196     1.0000 0.79661  0.64811  0.82049  Biso   1.000  O
  H388     1.0000 0.70228  0.62450  0.83939  Biso   1.000  H
  H389     1.0000 0.25420  0.82350  0.74380  Biso   1.000  H
  O197     1.0000 0.31669  0.90641  0.77221  Biso   1.000  O
  C240     1.0000 0.30971  0.89780  0.84539  Biso   1.000  C
  H390     1.0000 0.22949  0.90390  0.80351  Biso   1.000  H
  O198     1.0000 0.14080  0.83190  0.90709  Biso   1.000  O
  H391     1.0000 0.20137  0.76650  0.91401  Biso   1.000  H
  H392     1.0000 0.22861  0.81888  0.93699  Biso   1.000  H
  O199     1.0000 0.72642  0.71001  0.88191  Biso   1.000  O
  H393     1.0000 0.80059  0.65878  0.89871  Biso   1.000  H
  O200     1.0000 0.77919  0.64852  0.97949  Biso   1.000  O
  H394     1.0000 0.69938  0.69249  0.95979  Biso   1.000  H
  H395     1.0000 0.67762  0.63698  0.98080  Biso   1.000  H
  H396     1.0000 0.79511  0.68182  0.82259  Biso   1.000  H
  H397     1.0000 0.35670  0.90959  0.78010  Biso   1.000  H
  O201     1.0000 0.37510  0.87241  0.84549  Biso   1.000  O
  H398     1.0000 0.31550  0.93769  0.84869  Biso   1.000  H
  H399     1.0000 0.13971  0.86059  0.92020  Biso   1.000  H
  C241     1.0000 0.76808  0.75542  0.89121  Biso   1.000  C
  H400     1.0000 0.78172  0.61988  0.99281  Biso   1.000  H
  C242     1.0000 0.43521  0.90592  0.85600  Biso   1.000  C
  O202     1.0000 0.74172  0.78649  0.92361  Biso   1.000  O
  H401     1.0000 0.81449  0.74240  0.89819  Biso   1.000  H
  C243     1.0000 0.77242  0.79280  0.85359  Biso   1.000  C
  C244     1.0000 0.48679  0.90192  0.82299  Biso   1.000  C
  H402     1.0000 0.42058  0.94441  0.85859  Biso   1.000  H
  C245     1.0000 0.46462  0.88692  0.89679  Biso   1.000  C
  C246     1.0000 0.67271  0.80829  0.91730  Biso   1.000  C
  O203     1.0000 0.80178  0.76341  0.82000  Biso   1.000  O
  H403     1.0000 0.80131  0.82490  0.85990  Biso   1.000  H
  C247     1.0000 0.69918  0.81208  0.84271  Biso   1.000  C
  O204     1.0000 0.45769  0.92508  0.78580  Biso   1.000  O
  C248     1.0000 0.55032  0.93320  0.83491  Biso   1.000  C
  H404     1.0000 0.49868  0.86310  0.81839  Biso   1.000  H
  O205     1.0000 0.52732  0.91581  0.90511  Biso   1.000  O
  H405     1.0000 0.47491  0.84740  0.89499  Biso   1.000  H
  C249     1.0000 0.41531  0.89611  0.93199  Biso   1.000  C
  C250     1.0000 0.67028  0.84451  0.87929  Biso   1.000  C
  H406     1.0000 0.63932  0.77808  0.91489  Biso   1.000  H
  C251     1.0000 0.65741  0.84262  0.95470  Biso   1.000  C
  H407     1.0000 0.84349  0.76931  0.81900  Biso   1.000  H
  O206     1.0000 0.70238  0.84748  0.80799  Biso   1.000  O
  H408     1.0000 0.66972  0.78031  0.83680  Biso   1.000  H
  H409     1.0000 0.48623  0.92290  0.76730  Biso   1.000  H
  O207     1.0000 0.60299  0.93229  0.80440  Biso   1.000  O
  C252     1.0000 0.57931  0.91070  0.87530  Biso   1.000  C
  H410     1.0000 0.53688  0.97169  0.83939  Biso   1.000  H
  O208     1.0000 0.39350  0.94952  0.93471  Biso   1.000  O
  H411     1.0000 0.37551  0.87229  0.92861  Biso   1.000  H
  H412     1.0000 0.43810  0.88589  0.95720  Biso   1.000  H
  O209     1.0000 0.60009  0.85729  0.86941  Biso   1.000  O
  H413     1.0000 0.69701  0.87831  0.88359  Biso   1.000  H
  O210     1.0000 0.69970  0.88692  0.95961  Biso   1.000  O
  H414     1.0000 0.61002  0.85552  0.95321  Biso   1.000  H
  H415     1.0000 0.66119  0.81929  0.97860  Biso   1.000  H
  H416     1.0000 0.72311  0.83190  0.78949  Biso   1.000  H
  H417     1.0000 0.62862  0.90600  0.80830  Biso   1.000  H
  H418     1.0000 0.61932  0.93291  0.88341  Biso   1.000  H
  H419     1.0000 0.36760  0.95281  0.95431  Biso   1.000  H
  H420     1.0000 0.67659  0.91519  0.95940  Biso   1.000  H
  O211     1.0000 0.73138  0.68829  0.23709  Biso   1.000  O
  C253     1.0000 0.76622  0.67650  0.19990  Biso   1.000  C
  H421     1.0000 0.75423  0.67650  0.25620  Biso   1.000  H
  C254     1.0000 0.77490  0.61390  0.19560  Biso   1.000  C
  H422     1.0000 0.81170  0.69430  0.19990  Biso   1.000  H
  C255     1.0000 0.72378  0.69768  0.16491  Biso   1.000  C
  O212     1.0000 0.81672  0.59359  0.22779  Biso   1.000  O
  C256     1.0000 0.80969  0.60220  0.15461  Biso   1.000  C
  H423     1.0000 0.72952  0.59610  0.19649  Biso   1.000  H
  C257     1.0000 0.75500  0.68079  0.12400  Biso   1.000  C
  O213     1.0000 0.72471  0.75628  0.16841  Biso   1.000  O
  H424     1.0000 0.67628  0.68408  0.16701  Biso   1.000  H
  H425     1.0000 0.85672  0.59041  0.21990  Biso   1.000  H
  O214     1.0000 0.87512  0.62759  0.15451  Biso   1.000  O
  O215     1.0000 0.76839  0.62252  0.12260  Biso   1.000  O
  H426     1.0000 0.81548  0.56231  0.15131  Biso   1.000  H
  H427     1.0000 0.79878  0.70049  0.12019  Biso   1.000  H
  C258     1.0000 0.70740  0.69402  0.08800  Biso   1.000  C
  C259     1.0000 0.66119  0.78550  0.16780  Biso   1.000  C
  C260     1.0000 0.93518  0.59408  0.14400  Biso   1.000  C
  O216     1.0000 0.64082  0.66810  0.09291  Biso   1.000  O
  H428     1.0000 0.70140  0.73350  0.08599  Biso   1.000  H
  H429     1.0000 0.72859  0.68112  0.06301  Biso   1.000  H
  O217     1.0000 0.65721  0.81831  0.13120  Biso   1.000  O
  H430     1.0000 0.62299  0.75888  0.16790  Biso   1.000  H
  C261     1.0000 0.65499  0.82160  0.20420  Biso   1.000  C
  C262     1.0000 0.98682  0.59808  0.17701  Biso   1.000  C
  H431     1.0000 0.92061  0.55559  0.14141  Biso   1.000  H
  C263     1.0000 0.96459  0.61308  0.10321  Biso   1.000  C
  H432     1.0000 0.63969  0.63941  0.07980  Biso   1.000  H
  C264     1.0000 0.71070  0.86092  0.12729  Biso   1.000  C
  O218     1.0000 0.65669  0.78789  0.24011  Biso   1.000  O
  H433     1.0000 0.60981  0.83990  0.20310  Biso   1.000  H
  C265     1.0000 0.70822  0.86430  0.20441  Biso   1.000  C
  O219     1.0000 0.95772  0.57492  0.21420  Biso   1.000  O
  H434     1.0000 0.99871  0.63690  0.18161  Biso   1.000  H
  C266     1.0000 0.05029  0.56680  0.16509  Biso   1.000  C
  H435     1.0000 0.97488  0.65260  0.10501  Biso   1.000  H
  C267     1.0000 0.91528  0.60389  0.06801  Biso   1.000  C
  O220     1.0000 0.02729  0.58419  0.09489  Biso   1.000  O
  C268     1.0000 0.70342  0.89961  0.16540  Biso   1.000  C
  H436     1.0000 0.75640  0.84340  0.12760  Biso   1.000  H
  C269     1.0000 0.70212  0.89121  0.08980  Biso   1.000  C
  H437     1.0000 0.68000  0.76028  0.23569  Biso   1.000  H
  O221     1.0000 0.69882  0.89842  0.23959  Biso   1.000  O
  H438     1.0000 0.75392  0.84678  0.20560  Biso   1.000  H
  H439     1.0000 0.98620  0.57710  0.23270  Biso   1.000  H
  O222     1.0000 0.10301  0.56771  0.19560  Biso   1.000  O
  C270     1.0000 0.07929  0.58930  0.12470  Biso   1.000  C
  H440     1.0000 0.03690  0.52831  0.16061  Biso   1.000  H
  O223     1.0000 0.89352  0.55048  0.06529  Biso   1.000  O
  H441     1.0000 0.87548  0.62771  0.07139  Biso   1.000  H
  H442     1.0000 0.93808  0.61411  0.04280  Biso   1.000  H
  O224     1.0000 0.75898  0.93761  0.16479  Biso   1.000  O
  H443     1.0000 0.65922  0.91919  0.16460  Biso   1.000  H
  O225     1.0000 0.63808  0.92001  0.08980  Biso   1.000  O
  H444     1.0000 0.73980  0.91721  0.08669  Biso   1.000  H
  H445     1.0000 0.70342  0.86582  0.06691  Biso   1.000  H
  H446     1.0000 0.71551  0.92891  0.23529  Biso   1.000  H
  H447     1.0000 0.12860  0.59400  0.19170  Biso   1.000  H
  O226     1.0000 0.10012  0.64271  0.13059  Biso   1.000  O
  H448     1.0000 0.11929  0.56709  0.11659  Biso   1.000  H
  H449     1.0000 0.86758  0.54719  0.04569  Biso   1.000  H
  C271     1.0000 0.74079  0.99299  0.16140  Biso   1.000  C
  H450     1.0000 0.63291  0.93551  0.06779  Biso   1.000  H
  C272     1.0000 0.17031  0.65549  0.12071  Biso   1.000  C
  H451     1.0000 0.69049  0.99670  0.16421  Biso   1.000  H
  O227     1.0000 0.76208  0.01570  0.12229  Biso   1.000  O
  C273     1.0000 0.77640  0.02571  0.19530  Biso   1.000  C
  C274     1.0000 0.19920  0.68792  0.15729  Biso   1.000  C
  H452     1.0000 0.19698  0.62169  0.11641  Biso   1.000  H
  C275     1.0000 0.17269  0.69171  0.08270  Biso   1.000  C
  C276     1.0000 0.83579  0.01199  0.11559  Biso   1.000  C
  O228     1.0000 0.75200  0.00548  0.23371  Biso   1.000  O
  H453     1.0000 0.76348  0.06462  0.19271  Biso   1.000  H
  C277     1.0000 0.85321  0.02089  0.19122  Biso   1.000  C
  O229     1.0000 0.20241  0.65252  0.19201  Biso   1.000  O
  C278     1.0000 0.27239  0.70720  0.14641  Biso   1.000  C
  H454     1.0000 0.16969  0.71969  0.16320  Biso   1.000  H
  O230     1.0000 0.24169  0.71351  0.07639  Biso   1.000  O
  H455     1.0000 0.13930  0.72192  0.08511  Biso   1.000  H
  C279     1.0000 0.15739  0.65738  0.04530  Biso   1.000  C
  H456     1.0000 0.84949  0.97321  0.11349  Biso   1.000  H
  C280     1.0000 0.87673  0.03989  0.15040  Biso   1.000  C
  C281     1.0000 0.84850  0.04142  0.07441  Biso   1.000  C
  H457     1.0000 0.73159  0.03021  0.24581  Biso   1.000  H
  H458     1.0000 0.86603  0.98199  0.19439  Biso   1.000  H
  O231     1.0000 0.88562  0.05159  0.22249  Biso   1.000  O
  H459     1.0000 0.22308  0.66810  0.21051  Biso   1.000  H
  O232     1.0000 0.30180  0.73659  0.18000  Biso   1.000  O
  C282     1.0000 0.26810  0.74458  0.10879  Biso   1.000  C
  H460     1.0000 0.30129  0.67510  0.14010  Biso   1.000  H
  O233     1.0000 0.19972  0.61308  0.04039  Biso   1.000  O
  H461     1.0000 0.10999  0.64448  0.04679  Biso   1.000  H
  H462     1.0000 0.16121  0.68071  0.02140  Biso   1.000  H
  O234     1.0000 0.94681  0.02909  0.14531  Biso   1.000  O
  H463     1.0000 0.86959  0.07978  0.14869  Biso   1.000  H
  O235     1.0000 0.82969  0.09841  0.07550  Biso   1.000  O
  H464     1.0000 0.89699  0.03828  0.06730  Biso   1.000  H
  H465     1.0000 0.82199  0.02312  0.05331  Biso   1.000  H
  H466     1.0000 0.92510  0.05959  0.21560  Biso   1.000  H
  H467     1.0000 0.34352  0.73069  0.18100  Biso   1.000  H
  O236     1.0000 0.22639  0.78999  0.11809  Biso   1.000  O
  H468     1.0000 0.31452  0.75760  0.10181  Biso   1.000  H
  H469     1.0000 0.17662  0.58481  0.04060  Biso   1.000  H
  C283     1.0000 0.99349  0.07352  0.13540  Biso   1.000  C
  H470     1.0000 0.86401  0.11741  0.07151  Biso   1.000  H
  C284     1.0000 0.25270  0.84361  0.11089  Biso   1.000  C
  H471     1.0000 0.96821  0.10851  0.13549  Biso   1.000  H
  O237     1.0000 0.02460  0.06548  0.09730  Biso   1.000  O
  C285     1.0000 0.04890  0.07430  0.16939  Biso   1.000  C
  C286     1.0000 0.24950  0.87662  0.14979  Biso   1.000  C
  H472     1.0000 0.30062  0.84122  0.10129  Biso   1.000  H
  C287     1.0000 0.20701  0.87328  0.07819  Biso   1.000  C
  C288     1.0000 0.06621  0.01710  0.09401  Biso   1.000  C
  O238     1.0000 0.01871  0.08399  0.20740  Biso   1.000  O
  H473     1.0000 0.08012  0.10509  0.16369  Biso   1.000  H
  C289     1.0000 0.09019  0.02328  0.16780  Biso   1.000  C
  O239     1.0000 0.29658  0.85189  0.17951  Biso   1.000  O
  C290     1.0000 0.26981  0.93522  0.14229  Biso   1.000  C
  H474     1.0000 0.20231  0.87550  0.16061  Biso   1.000  H
  O240     1.0000 0.22691  0.92809  0.07401  Biso   1.000  O
  H475     1.0000 0.15878  0.87241  0.08739  Biso   1.000  H
  C291     1.0000 0.21089  0.84620  0.03749  Biso   1.000  C
  H476     1.0000 0.03690  0.98438  0.09638  Biso   1.000  H
  C292     1.0000 0.12162  0.01570  0.12629  Biso   1.000  C
  C293     1.0000 0.09702  0.02019  0.05020  Biso   1.000  C
  H477     1.0000 0.03768  0.11048  0.21831  Biso   1.000  H
  H478     1.0000 0.06042  0.99180  0.17399  Biso   1.000  H
  O241     1.0000 0.14638  0.02530  0.19710  Biso   1.000  O
  H479     1.0000 0.29508  0.81818  0.17741  Biso   1.000  H
  O242     1.0000 0.26862  0.96880  0.17759  Biso   1.000  O
  C294     1.0000 0.22241  0.95999  0.10910  Biso   1.000  C
  H480     1.0000 0.31710  0.93522  0.13171  Biso   1.000  H
  O243     1.0000 0.27922  0.85148  0.02051  Biso   1.000  O
  H481     1.0000 0.19941  0.80751  0.04021  Biso   1.000  H
  H482     1.0000 0.17760  0.86302  0.01920  Biso   1.000  H
  O244     1.0000 0.15599  0.96188  0.12440  Biso   1.000  O
  H483     1.0000 0.15532  0.04500  0.12120  Biso   1.000  H
  H484     1.0000 0.12410  0.98731  0.04490  Biso   1.000  H
  O245     1.0000 0.13832  0.06602  0.04511  Biso   1.000  O
  H485     1.0000 0.05960  0.02131  0.03051  Biso   1.000  H
  H486     1.0000 0.13098  0.03309  0.21959  Biso   1.000  H
  H487     1.0000 0.23032  0.98282  0.18000  Biso   1.000  H
  H488     1.0000 0.23781  0.99749  0.10291  Biso   1.000  H
  H489     1.0000 0.28170  0.88012  0.00719  Biso   1.000  H
  H490     1.0000 0.12850  0.08910  0.06240  Biso   1.000  H
  O246     1.0000 0.73138  0.31171  0.76291  Biso   1.000  O
  C295     1.0000 0.76622  0.32350  0.80010  Biso   1.000  C
  H491     1.0000 0.75423  0.32350  0.74380  Biso   1.000  H
  C296     1.0000 0.72378  0.30232  0.83509  Biso   1.000  C
  C297     1.0000 0.77490  0.38610  0.80440  Biso   1.000  C
  H492     1.0000 0.81170  0.30570  0.80010  Biso   1.000  H
  O247     1.0000 0.72471  0.24372  0.83159  Biso   1.000  O
  H493     1.0000 0.67628  0.31592  0.83299  Biso   1.000  H
  C298     1.0000 0.75500  0.31921  0.87600  Biso   1.000  C
  O248     1.0000 0.81672  0.40641  0.77221  Biso   1.000  O
  C299     1.0000 0.80969  0.39780  0.84539  Biso   1.000  C
  H494     1.0000 0.72952  0.40390  0.80351  Biso   1.000  H
  C300     1.0000 0.66119  0.21450  0.83220  Biso   1.000  C
  O249     1.0000 0.76839  0.37748  0.87740  Biso   1.000  O
  H495     1.0000 0.79878  0.29951  0.87981  Biso   1.000  H
  C301     1.0000 0.70740  0.30598  0.91200  Biso   1.000  C
  H496     1.0000 0.85672  0.40959  0.78010  Biso   1.000  H
  O250     1.0000 0.87512  0.37241  0.84549  Biso   1.000  O
  H497     1.0000 0.81548  0.43769  0.84869  Biso   1.000  H
  C302     1.0000 0.65499  0.17840  0.79580  Biso   1.000  C
  O251     1.0000 0.65721  0.18169  0.86880  Biso   1.000  O
  H498     1.0000 0.62299  0.24112  0.83210  Biso   1.000  H
  O252     1.0000 0.64082  0.33190  0.90709  Biso   1.000  O
  H499     1.0000 0.70140  0.26650  0.91401  Biso   1.000  H
  H500     1.0000 0.72859  0.31888  0.93699  Biso   1.000  H
  C303     1.0000 0.93518  0.40592  0.85600  Biso   1.000  C
  O253     1.0000 0.65669  0.21211  0.75989  Biso   1.000  O
  H501     1.0000 0.60981  0.16010  0.79690  Biso   1.000  H
  C304     1.0000 0.70822  0.13570  0.79559  Biso   1.000  C
  C305     1.0000 0.71070  0.13908  0.87271  Biso   1.000  C
  H502     1.0000 0.63969  0.36059  0.92020  Biso   1.000  H
  C306     1.0000 0.98682  0.40192  0.82299  Biso   1.000  C
  H503     1.0000 0.92061  0.44441  0.85859  Biso   1.000  H
  C307     1.0000 0.96459  0.38692  0.89679  Biso   1.000  C
  H504     1.0000 0.68000  0.23972  0.76431  Biso   1.000  H
  O254     1.0000 0.69882  0.10158  0.76041  Biso   1.000  O
  H505     1.0000 0.75392  0.15322  0.79440  Biso   1.000  H
  C308     1.0000 0.70342  0.10039  0.83460  Biso   1.000  C
  H506     1.0000 0.75640  0.15660  0.87240  Biso   1.000  H
  C309     1.0000 0.70212  0.10879  0.91020  Biso   1.000  C
  O255     1.0000 0.95772  0.42508  0.78580  Biso   1.000  O
  H507     1.0000 0.99871  0.36310  0.81839  Biso   1.000  H
  C310     1.0000 0.05029  0.43320  0.83491  Biso   1.000  C
  H508     1.0000 0.97488  0.34740  0.89499  Biso   1.000  H
  C311     1.0000 0.91528  0.39611  0.93199  Biso   1.000  C
  O256     1.0000 0.02729  0.41581  0.90511  Biso   1.000  O
  H509     1.0000 0.71551  0.07109  0.76471  Biso   1.000  H
  O257     1.0000 0.75898  0.06239  0.83521  Biso   1.000  O
  H510     1.0000 0.65922  0.08081  0.83540  Biso   1.000  H
  O258     1.0000 0.63808  0.07999  0.91020  Biso   1.000  O
  H511     1.0000 0.73980  0.08279  0.91331  Biso   1.000  H
  H512     1.0000 0.70342  0.13418  0.93309  Biso   1.000  H
  H513     1.0000 0.98620  0.42290  0.76730  Biso   1.000  H
  O259     1.0000 0.10301  0.43229  0.80440  Biso   1.000  O
  C312     1.0000 0.07929  0.41070  0.87530  Biso   1.000  C
  H514     1.0000 0.03690  0.47169  0.83939  Biso   1.000  H
  O260     1.0000 0.89352  0.44952  0.93471  Biso   1.000  O
  H515     1.0000 0.87548  0.37229  0.92861  Biso   1.000  H
  H516     1.0000 0.93808  0.38589  0.95720  Biso   1.000  H
  C313     1.0000 0.74079  0.00701  0.83860  Biso   1.000  C
  H517     1.0000 0.63291  0.06449  0.93221  Biso   1.000  H
  H518     1.0000 0.12860  0.40600  0.80830  Biso   1.000  H
  O261     1.0000 0.10012  0.35729  0.86941  Biso   1.000  O
  H519     1.0000 0.11929  0.43291  0.88341  Biso   1.000  H
  H520     1.0000 0.86758  0.45281  0.95431  Biso   1.000  H
  H521     1.0000 0.69049  0.00330  0.83579  Biso   1.000  H
  O262     1.0000 0.76208  0.98430  0.87771  Biso   1.000  O
  C314     1.0000 0.77640  0.97429  0.80470  Biso   1.000  C
  C315     1.0000 0.17031  0.34451  0.87929  Biso   1.000  C
  C316     1.0000 0.83579  0.98801  0.88441  Biso   1.000  C
  O263     1.0000 0.75200  0.99452  0.76629  Biso   1.000  O
  H522     1.0000 0.76348  0.93538  0.80729  Biso   1.000  H
  C317     1.0000 0.85321  0.97911  0.80878  Biso   1.000  C
  C318     1.0000 0.19920  0.31208  0.84271  Biso   1.000  C
  H523     1.0000 0.19698  0.37831  0.88359  Biso   1.000  H
  C319     1.0000 0.17269  0.30829  0.91730  Biso   1.000  C
  H524     1.0000 0.84949  0.02679  0.88651  Biso   1.000  H
  C320     1.0000 0.87673  0.96011  0.84960  Biso   1.000  C
  C321     1.0000 0.84850  0.95858  0.92559  Biso   1.000  C
  H525     1.0000 0.73159  0.96979  0.75419  Biso   1.000  H
  H526     1.0000 0.86603  0.01801  0.80561  Biso   1.000  H
  O264     1.0000 0.88562  0.94841  0.77751  Biso   1.000  O
  O265     1.0000 0.20241  0.34748  0.80799  Biso   1.000  O
  C322     1.0000 0.27239  0.29280  0.85359  Biso   1.000  C
  H527     1.0000 0.16969  0.28031  0.83680  Biso   1.000  H
  O266     1.0000 0.24169  0.28649  0.92361  Biso   1.000  O
  H528     1.0000 0.13930  0.27808  0.91489  Biso   1.000  H
  C323     1.0000 0.15739  0.34262  0.95470  Biso   1.000  C
  O267     1.0000 0.94681  0.97091  0.85469  Biso   1.000  O
  H529     1.0000 0.86959  0.92022  0.85131  Biso   1.000  H
  O268     1.0000 0.82969  0.90159  0.92450  Biso   1.000  O
  H530     1.0000 0.89699  0.96172  0.93270  Biso   1.000  H
  H531     1.0000 0.82199  0.97688  0.94669  Biso   1.000  H
  H532     1.0000 0.92510  0.94041  0.78440  Biso   1.000  H
  H533     1.0000 0.22308  0.33190  0.78949  Biso   1.000  H
  O269     1.0000 0.30180  0.26341  0.82000  Biso   1.000  O
  C324     1.0000 0.26810  0.25542  0.89121  Biso   1.000  C
  H534     1.0000 0.30129  0.32490  0.85990  Biso   1.000  H
  O270     1.0000 0.19972  0.38692  0.95961  Biso   1.000  O
  H535     1.0000 0.10999  0.35552  0.95321  Biso   1.000  H
  H536     1.0000 0.16121  0.31929  0.97860  Biso   1.000  H
  C325     1.0000 0.99349  0.92648  0.86460  Biso   1.000  C
  H537     1.0000 0.86401  0.88259  0.92849  Biso   1.000  H
  H538     1.0000 0.34352  0.26931  0.81900  Biso   1.000  H
  O271     1.0000 0.22639  0.21001  0.88191  Biso   1.000  O
  H539     1.0000 0.31452  0.24240  0.89819  Biso   1.000  H
  H540     1.0000 0.17662  0.41519  0.95940  Biso   1.000  H
  H541     1.0000 0.96821  0.89149  0.86451  Biso   1.000  H
  O272     1.0000 0.02460  0.93452  0.90270  Biso   1.000  O
  C326     1.0000 0.04890  0.92570  0.83061  Biso   1.000  C
  C327     1.0000 0.25270  0.15639  0.88911  Biso   1.000  C
  C328     1.0000 0.06621  0.98290  0.90599  Biso   1.000  C
  O273     1.0000 0.01871  0.91601  0.79260  Biso   1.000  O
  H542     1.0000 0.08012  0.89491  0.83631  Biso   1.000  H
  C329     1.0000 0.09019  0.97672  0.83220  Biso   1.000  C
  C330     1.0000 0.20701  0.12672  0.92181  Biso   1.000  C
  C331     1.0000 0.24950  0.12338  0.85021  Biso   1.000  C
  H543     1.0000 0.30062  0.15878  0.89871  Biso   1.000  H
  C332     1.0000 0.12162  0.98430  0.87371  Biso   1.000  C
  C333     1.0000 0.09702  0.97981  0.94980  Biso   1.000  C
  H544     1.0000 0.03690  0.01562  0.90362  Biso   1.000  H
  H545     1.0000 0.03768  0.88952  0.78169  Biso   1.000  H
  O274     1.0000 0.14638  0.97470  0.80290  Biso   1.000  O
  H546     1.0000 0.06042  0.00820  0.82601  Biso   1.000  H
  O275     1.0000 0.22691  0.07191  0.92599  Biso   1.000  O
  H547     1.0000 0.15878  0.12759  0.91261  Biso   1.000  H
  C334     1.0000 0.21089  0.15380  0.96251  Biso   1.000  C
  C335     1.0000 0.26981  0.06478  0.85771  Biso   1.000  C
  O276     1.0000 0.29658  0.14811  0.82049  Biso   1.000  O
  H548     1.0000 0.20231  0.12450  0.83939  Biso   1.000  H
  H549     1.0000 0.15532  0.95500  0.87880  Biso   1.000  H
  O277     1.0000 0.15599  0.03812  0.87560  Biso   1.000  O
  O278     1.0000 0.13832  0.93398  0.95489  Biso   1.000  O
  H550     1.0000 0.05960  0.97869  0.96949  Biso   1.000  H
  H551     1.0000 0.12410  0.01269  0.95510  Biso   1.000  H
  H552     1.0000 0.13098  0.96691  0.78041  Biso   1.000  H
  C336     1.0000 0.22241  0.04001  0.89090  Biso   1.000  C
  O279     1.0000 0.27922  0.14852  0.97949  Biso   1.000  O
  H553     1.0000 0.19941  0.19249  0.95979  Biso   1.000  H
  H554     1.0000 0.17760  0.13698  0.98080  Biso   1.000  H
  O280     1.0000 0.26862  0.03120  0.82241  Biso   1.000  O
  H555     1.0000 0.31710  0.06478  0.86829  Biso   1.000  H
  H556     1.0000 0.29508  0.18182  0.82259  Biso   1.000  H
  H557     1.0000 0.12850  0.91090  0.93760  Biso   1.000  H
  H558     1.0000 0.23781  0.00251  0.89709  Biso   1.000  H
  H559     1.0000 0.28170  0.11988  0.99281  Biso   1.000  H
  H560     1.0000 0.23032  0.01718  0.82000  Biso   1.000  H
