data_image0
_cell_length_a       24.693
_cell_length_b       17.744
_cell_length_c       13.293
_cell_angle_alpha    90
_cell_angle_beta     116.39
_cell_angle_gamma    90

_symmetry_space_group_name_H-M    "P 1"
_symmetry_int_tables_number       1

loop_
  _symmetry_equiv_pos_as_xyz
  'x, y, z'

loop_
  _atom_site_label
  _atom_site_occupancy
  _atom_site_fract_x
  _atom_site_fract_y
  _atom_site_fract_z
  _atom_site_thermal_displace_type
  _atom_site_B_iso_or_equiv
  _atom_site_type_symbol
  C1       1.0000 0.63342  0.43339  0.39453  Biso   1.000  C
  N1       1.0000 0.56891  0.44657  0.35086  Biso   1.000  N
  N2       1.0000 0.64871  0.36672  0.34910  Biso   1.000  N
  H1       1.0000 0.65038  0.42831  0.47457  Biso   1.000  H
  H2       1.0000 0.65161  0.47661  0.37833  Biso   1.000  H
  C2       1.0000 0.53778  0.42651  0.41049  Biso   1.000  C
  C3       1.0000 0.53250  0.49002  0.25051  Biso   1.000  C
  C4       1.0000 0.65761  0.36457  0.24749  Biso   1.000  C
  C5       1.0000 0.66282  0.29988  0.40553  Biso   1.000  C
  N3       1.0000 0.47961  0.45029  0.35322  Biso   1.000  N
  O1       1.0000 0.56021  0.39630  0.50270  Biso   1.000  O
  C6       1.0000 0.46751  0.49002  0.24950  Biso   1.000  C
  N4       1.0000 0.52040  0.45029  0.14680  Biso   1.000  N
  C7       1.0000 0.55931  0.56819  0.25454  Biso   1.000  C
  N5       1.0000 0.60092  0.36993  0.14461  Biso   1.000  N
  C8       1.0000 0.67699  0.27931  0.24421  Biso   1.000  C
  C9       1.0000 0.70219  0.42319  0.24917  Biso   1.000  C
  N6       1.0000 0.67739  0.24831  0.34692  Biso   1.000  N
  O2       1.0000 0.66482  0.28979  0.49900  Biso   1.000  O
  C10      1.0000 0.43569  0.43750  0.39647  Biso   1.000  C
  N7       1.0000 0.43108  0.44657  0.14906  Biso   1.000  N
  C11      1.0000 0.44071  0.56819  0.24547  Biso   1.000  C
  C12      1.0000 0.46219  0.42651  0.08952  Biso   1.000  C
  C13      1.0000 0.56430  0.43750  0.10346  Biso   1.000  C
  H3       1.0000 0.59798  0.56363  0.25420  Biso   1.000  H
  H4       1.0000 0.53249  0.59671  0.19021  Biso   1.000  H
  H5       1.0000 0.56400  0.59361  0.32172  Biso   1.000  H
  C14      1.0000 0.58611  0.30422  0.08356  Biso   1.000  C
  N8       1.0000 0.62761  0.25101  0.14192  Biso   1.000  N
  C15      1.0000 0.73728  0.26927  0.24077  Biso   1.000  C
  H6       1.0000 0.68678  0.47261  0.25076  Biso   1.000  H
  H7       1.0000 0.73979  0.41603  0.31509  Biso   1.000  H
  H8       1.0000 0.70859  0.41800  0.18349  Biso   1.000  H
  C16      1.0000 0.69600  0.17268  0.38966  Biso   1.000  C
  N9       1.0000 0.39910  0.36993  0.35540  Biso   1.000  N
  H9       1.0000 0.45680  0.43468  0.47692  Biso   1.000  H
  H10      1.0000 0.40912  0.48022  0.37732  Biso   1.000  H
  C17      1.0000 0.36659  0.43339  0.10548  Biso   1.000  C
  H11      1.0000 0.40199  0.56363  0.24581  Biso   1.000  H
  H12      1.0000 0.46752  0.59671  0.30980  Biso   1.000  H
  H13      1.0000 0.43601  0.59361  0.17829  Biso   1.000  H
  O3       1.0000 0.43981  0.39630  0.99731  Biso   1.000  O
  H14      1.0000 0.54321  0.43468  0.02309  Biso   1.000  H
  H15      1.0000 0.59089  0.48022  0.12269  Biso   1.000  H
  O4       1.0000 0.54351  0.29728  0.99017  Biso   1.000  O
  C18      1.0000 0.62299  0.17521  0.09893  Biso   1.000  C
  H16      1.0000 0.74572  0.21658  0.23934  Biso   1.000  H
  H17      1.0000 0.73592  0.29328  0.17501  Biso   1.000  H
  H18      1.0000 0.76850  0.29187  0.30661  Biso   1.000  H
  N10      1.0000 0.64841  0.11728  0.34952  Biso   1.000  N
  H19      1.0000 0.71239  0.17471  0.47003  Biso   1.000  H
  H20      1.0000 0.72772  0.15639  0.37161  Biso   1.000  H
  C19      1.0000 0.34241  0.36457  0.25253  Biso   1.000  C
  C20      1.0000 0.41389  0.30422  0.41637  Biso   1.000  C
  N11      1.0000 0.35130  0.36672  0.15091  Biso   1.000  N
  H21      1.0000 0.34961  0.42831  0.02536  Biso   1.000  H
  H22      1.0000 0.34840  0.47661  0.12169  Biso   1.000  H
  N12      1.0000 0.59601  0.12038  0.14579  Biso   1.000  N
  H23      1.0000 0.59959  0.17617  0.01873  Biso   1.000  H
  H24      1.0000 0.66301  0.15842  0.11522  Biso   1.000  H
  C21      1.0000 0.61899  0.09800  0.41141  Biso   1.000  C
  C22      1.0000 0.62851  0.07462  0.24522  Biso   1.000  C
  C23      1.0000 0.32298  0.27931  0.25580  Biso   1.000  C
  C24      1.0000 0.29780  0.42319  0.25076  Biso   1.000  C
  N13      1.0000 0.37240  0.25101  0.35809  Biso   1.000  N
  O5       1.0000 0.45650  0.29728  0.50984  Biso   1.000  O
  C25      1.0000 0.33719  0.29988  0.09448  Biso   1.000  C
  C26      1.0000 0.53608  0.10251  0.09028  Biso   1.000  C
  N14      1.0000 0.57462  0.04689  0.35053  Biso   1.000  N
  O6       1.0000 0.63091  0.11993  0.50623  Biso   1.000  O
  C27      1.0000 0.57700  0.02361  0.24707  Biso   1.000  C
  C28      1.0000 0.68068  0.03359  0.24018  Biso   1.000  C
  C29      1.0000 0.26267  0.26927  0.25916  Biso   1.000  C
  N15      1.0000 0.32258  0.24831  0.15309  Biso   1.000  N
  H25      1.0000 0.31317  0.47261  0.24917  Biso   1.000  H
  H26      1.0000 0.26022  0.41603  0.18492  Biso   1.000  H
  H27      1.0000 0.29142  0.41800  0.31652  Biso   1.000  H
  C30      1.0000 0.37698  0.17521  0.40108  Biso   1.000  C
  O7       1.0000 0.33519  0.28979  0.00101  Biso   1.000  O
  N16      1.0000 0.52370  0.04740  0.14722  Biso   1.000  N
  O8       1.0000 0.50051  0.13002  0.00050  Biso   1.000  O
  C31      1.0000 0.53592  0.01443  0.39563  Biso   1.000  C
  C32      1.0000 0.58831  0.93908  0.24833  Biso   1.000  C
  H28      1.0000 0.70952  0.06971  0.23934  Biso   1.000  H
  H29      1.0000 0.69990  0.00130  0.30442  Biso   1.000  H
  H30      1.0000 0.66580  0.00378  0.17291  Biso   1.000  H
  H31      1.0000 0.25429  0.21658  0.26067  Biso   1.000  H
  H32      1.0000 0.26409  0.29328  0.32500  Biso   1.000  H
  H33      1.0000 0.23151  0.29187  0.19340  Biso   1.000  H
  C33      1.0000 0.30399  0.17268  0.11026  Biso   1.000  C
  N17      1.0000 0.40400  0.12038  0.35422  Biso   1.000  N
  H34      1.0000 0.40038  0.17617  0.48128  Biso   1.000  H
  H35      1.0000 0.33700  0.15842  0.38479  Biso   1.000  H
  C34      1.0000 0.46409  0.01443  0.10439  Biso   1.000  C
  N18      1.0000 0.47631  0.04740  0.35280  Biso   1.000  N
  H36      1.0000 0.55562  0.02001  0.47574  Biso   1.000  H
  H37      1.0000 0.53178  0.96140  0.37917  Biso   1.000  H
  H38      1.0000 0.55478  0.91231  0.24967  Biso   1.000  H
  H39      1.0000 0.59210  0.92578  0.18173  Biso   1.000  H
  H40      1.0000 0.62478  0.92600  0.31341  Biso   1.000  H
  N19      1.0000 0.35160  0.11728  0.15049  Biso   1.000  N
  H41      1.0000 0.28758  0.17471  0.02998  Biso   1.000  H
  H42      1.0000 0.27229  0.15639  0.12840  Biso   1.000  H
  C35      1.0000 0.37150  0.07462  0.25479  Biso   1.000  C
  C36      1.0000 0.46389  0.10251  0.40973  Biso   1.000  C
  N20      1.0000 0.42539  0.04689  0.14948  Biso   1.000  N
  H43      1.0000 0.44439  0.02001  0.02427  Biso   1.000  H
  H44      1.0000 0.46821  0.96140  0.12076  Biso   1.000  H
  C37      1.0000 0.42300  0.02361  0.25286  Biso   1.000  C
  C38      1.0000 0.38102  0.09800  0.08860  Biso   1.000  C
  C39      1.0000 0.31929  0.03359  0.25983  Biso   1.000  C
  O9       1.0000 0.49951  0.13002  0.49951  Biso   1.000  O
  C40      1.0000 0.41170  0.93908  0.25169  Biso   1.000  C
  O10      1.0000 0.36910  0.11993  0.99379  Biso   1.000  O
  H45      1.0000 0.29049  0.06971  0.26067  Biso   1.000  H
  H46      1.0000 0.30011  0.00130  0.19559  Biso   1.000  H
  H47      1.0000 0.33421  0.00378  0.32710  Biso   1.000  H
  H48      1.0000 0.44519  0.91231  0.25034  Biso   1.000  H
  H49      1.0000 0.40791  0.92578  0.31828  Biso   1.000  H
  H50      1.0000 0.37519  0.92600  0.18660  Biso   1.000  H
  C41      1.0000 0.81930  0.46641  0.75976  Biso   1.000  C
  C42      1.0000 0.87149  0.42538  0.75480  Biso   1.000  C
  H51      1.0000 0.79049  0.43029  0.76068  Biso   1.000  H
  H52      1.0000 0.80010  0.49870  0.69560  Biso   1.000  H
  H53      1.0000 0.83420  0.49622  0.82711  Biso   1.000  H
  N21      1.0000 0.90399  0.37962  0.85424  Biso   1.000  N
  N22      1.0000 0.85160  0.38272  0.65050  Biso   1.000  N
  C43      1.0000 0.92299  0.47639  0.75287  Biso   1.000  C
  C44      1.0000 0.87701  0.32479  0.90110  Biso   1.000  C
  C45      1.0000 0.96390  0.39749  0.90966  Biso   1.000  C
  C46      1.0000 0.80398  0.32732  0.61028  Biso   1.000  C
  C47      1.0000 0.88101  0.40200  0.58861  Biso   1.000  C
  N23      1.0000 0.97630  0.45260  0.85281  Biso   1.000  N
  N24      1.0000 0.92538  0.45311  0.64949  Biso   1.000  N
  C48      1.0000 0.91169  0.56092  0.75170  Biso   1.000  C
  N25      1.0000 0.87239  0.24899  0.85810  Biso   1.000  N
  H54      1.0000 0.90041  0.32383  0.98130  Biso   1.000  H
  H55      1.0000 0.83699  0.34158  0.88480  Biso   1.000  H
  O11      1.0000 0.99950  0.36998  0.99952  Biso   1.000  O
  N26      1.0000 0.82262  0.25169  0.65311  Biso   1.000  N
  H56      1.0000 0.78761  0.32529  0.52999  Biso   1.000  H
  H57      1.0000 0.77232  0.34361  0.62842  Biso   1.000  H
  O12      1.0000 0.86910  0.38007  0.49380  Biso   1.000  O
  C49      1.0000 0.03591  0.48557  0.89564  Biso   1.000  C
  C50      1.0000 0.96408  0.48557  0.60440  Biso   1.000  C
  H58      1.0000 0.94520  0.58769  0.75027  Biso   1.000  H
  H59      1.0000 0.90790  0.57422  0.81829  Biso   1.000  H
  H60      1.0000 0.87522  0.57400  0.68661  Biso   1.000  H
  C51      1.0000 0.82301  0.22069  0.75581  Biso   1.000  C
  C52      1.0000 0.91388  0.19578  0.91638  Biso   1.000  C
  C53      1.0000 0.83718  0.20012  0.59449  Biso   1.000  C
  N27      1.0000 0.07461  0.45311  0.85054  Biso   1.000  N
  H61      1.0000 0.05559  0.47999  0.97567  Biso   1.000  H
  H62      1.0000 0.03181  0.53860  0.87918  Biso   1.000  H
  H63      1.0000 0.94438  0.47999  0.52428  Biso   1.000  H
  H64      1.0000 0.96820  0.53860  0.62077  Biso   1.000  H
  N28      1.0000 0.02370  0.45260  0.64723  Biso   1.000  N
  C54      1.0000 0.76271  0.23073  0.75917  Biso   1.000  C
  C55      1.0000 0.84240  0.13543  0.75254  Biso   1.000  C
  N29      1.0000 0.89909  0.13007  0.85541  Biso   1.000  N
  O13      1.0000 0.95647  0.20272  0.00976  Biso   1.000  O
  N30      1.0000 0.85129  0.13328  0.65092  Biso   1.000  N
  O14      1.0000 0.83519  0.21021  0.50102  Biso   1.000  O
  C56      1.0000 0.11899  0.40200  0.91142  Biso   1.000  C
  C57      1.0000 0.07699  0.47639  0.74708  Biso   1.000  C
  C58      1.0000 0.03611  0.39749  0.59029  Biso   1.000  C
  H65      1.0000 0.75428  0.28342  0.76068  Biso   1.000  H
  H66      1.0000 0.76408  0.20672  0.82501  Biso   1.000  H
  H67      1.0000 0.73150  0.20813  0.69342  Biso   1.000  H
  C59      1.0000 0.79779  0.07681  0.75077  Biso   1.000  C
  C60      1.0000 0.93568  0.06250  0.89648  Biso   1.000  C
  C61      1.0000 0.86658  0.06661  0.60549  Biso   1.000  C
  N31      1.0000 0.14840  0.38272  0.84953  Biso   1.000  N
  O15      1.0000 0.13090  0.38007  0.00624  Biso   1.000  O
  C62      1.0000 0.12850  0.42538  0.74523  Biso   1.000  C
  C63      1.0000 0.08831  0.56092  0.74834  Biso   1.000  C
  N32      1.0000 0.09601  0.37962  0.64580  Biso   1.000  N
  O16      1.0000 0.00050  0.36998  0.50052  Biso   1.000  O
  H68      1.0000 0.81321  0.02739  0.74918  Biso   1.000  H
  H69      1.0000 0.76021  0.08397  0.68493  Biso   1.000  H
  H70      1.0000 0.79142  0.08200  0.81653  Biso   1.000  H
  N33      1.0000 0.97960  0.04971  0.85323  Biso   1.000  N
  H71      1.0000 0.95680  0.06532  0.97693  Biso   1.000  H
  H72      1.0000 0.90911  0.01978  0.87733  Biso   1.000  H
  N34      1.0000 0.93107  0.05343  0.64907  Biso   1.000  N
  H73      1.0000 0.84960  0.07169  0.52537  Biso   1.000  H
  H74      1.0000 0.84839  0.02339  0.62170  Biso   1.000  H
  C64      1.0000 0.19599  0.32732  0.88967  Biso   1.000  C
  C65      1.0000 0.18071  0.46641  0.74019  Biso   1.000  C
  H75      1.0000 0.05481  0.58769  0.74968  Biso   1.000  H
  H76      1.0000 0.09207  0.57422  0.68166  Biso   1.000  H
  H77      1.0000 0.12482  0.57400  0.81342  Biso   1.000  H
  C66      1.0000 0.12302  0.32479  0.59894  Biso   1.000  C
  C67      1.0000 0.96750  0.00998  0.74951  Biso   1.000  C
  C68      1.0000 0.03781  0.07349  0.91050  Biso   1.000  C
  C69      1.0000 0.96223  0.07349  0.58953  Biso   1.000  C
  N35      1.0000 0.17742  0.25169  0.84693  Biso   1.000  N
  H78      1.0000 0.21241  0.32529  0.96996  Biso   1.000  H
  H79      1.0000 0.22771  0.34361  0.87162  Biso   1.000  H
  H80      1.0000 0.20949  0.43029  0.73927  Biso   1.000  H
  H81      1.0000 0.19989  0.49870  0.80444  Biso   1.000  H
  H82      1.0000 0.16579  0.49622  0.67292  Biso   1.000  H
  N36      1.0000 0.12760  0.24899  0.64194  Biso   1.000  N
  H83      1.0000 0.09962  0.32383  0.51874  Biso   1.000  H
  H84      1.0000 0.16300  0.34158  0.61523  Biso   1.000  H
  C70      1.0000 0.94070  0.93181  0.74548  Biso   1.000  C
  C71      1.0000 0.03250  0.00998  0.75052  Biso   1.000  C
  N37      1.0000 0.06890  0.05343  0.85088  Biso   1.000  N
  O17      1.0000 0.06020  0.10370  0.00271  Biso   1.000  O
  O18      1.0000 0.93980  0.10370  0.49732  Biso   1.000  O
  N38      1.0000 0.02040  0.04971  0.64681  Biso   1.000  N
  C72      1.0000 0.16279  0.20012  0.90546  Biso   1.000  C
  C73      1.0000 0.17702  0.22069  0.74422  Biso   1.000  C
  C74      1.0000 0.08610  0.19578  0.58357  Biso   1.000  C
  H85      1.0000 0.90202  0.93637  0.74582  Biso   1.000  H
  H86      1.0000 0.96751  0.90329  0.80981  Biso   1.000  H
  H87      1.0000 0.93600  0.90639  0.67830  Biso   1.000  H
  C75      1.0000 0.05928  0.93181  0.75447  Biso   1.000  C
  C76      1.0000 0.13339  0.06661  0.89446  Biso   1.000  C
  C77      1.0000 0.06429  0.06250  0.60347  Biso   1.000  C
  N39      1.0000 0.14870  0.13328  0.84911  Biso   1.000  N
  O19      1.0000 0.16481  0.21021  0.99902  Biso   1.000  O
  C78      1.0000 0.15760  0.13543  0.74750  Biso   1.000  C
  C79      1.0000 0.23731  0.23073  0.74078  Biso   1.000  C
  N40      1.0000 0.10091  0.13007  0.64462  Biso   1.000  N
  O20      1.0000 0.04350  0.20272  0.49019  Biso   1.000  O
  H88      1.0000 0.09801  0.93637  0.75422  Biso   1.000  H
  H89      1.0000 0.03253  0.90329  0.69022  Biso   1.000  H
  H90      1.0000 0.06399  0.90639  0.82174  Biso   1.000  H
  H91      1.0000 0.15038  0.07169  0.97458  Biso   1.000  H
  H92      1.0000 0.15161  0.02339  0.87834  Biso   1.000  H
  H93      1.0000 0.04320  0.06532  0.52311  Biso   1.000  H
  H94      1.0000 0.09089  0.01978  0.62270  Biso   1.000  H
  C80      1.0000 0.20218  0.07681  0.74918  Biso   1.000  C
  H95      1.0000 0.24569  0.28342  0.73927  Biso   1.000  H
  H96      1.0000 0.23591  0.20672  0.67502  Biso   1.000  H
  H97      1.0000 0.26849  0.20813  0.80662  Biso   1.000  H
  H98      1.0000 0.18681  0.02739  0.75077  Biso   1.000  H
  H99      1.0000 0.23978  0.08397  0.81510  Biso   1.000  H
  H100     1.0000 0.20862  0.08200  0.68351  Biso   1.000  H
  C81      1.0000 0.81930  0.46641  0.75976  Biso   1.000  C
  C82      1.0000 0.87149  0.42538  0.75480  Biso   1.000  C
  H101     1.0000 0.79049  0.43029  0.76068  Biso   1.000  H
  H102     1.0000 0.80010  0.49870  0.69560  Biso   1.000  H
  H103     1.0000 0.83420  0.49622  0.82711  Biso   1.000  H
  N41      1.0000 0.90399  0.37962  0.85424  Biso   1.000  N
  N42      1.0000 0.85160  0.38272  0.65050  Biso   1.000  N
  C83      1.0000 0.92299  0.47639  0.75287  Biso   1.000  C
  C84      1.0000 0.87701  0.32479  0.90110  Biso   1.000  C
  C85      1.0000 0.96390  0.39749  0.90966  Biso   1.000  C
  C86      1.0000 0.80398  0.32732  0.61028  Biso   1.000  C
  C87      1.0000 0.88101  0.40200  0.58861  Biso   1.000  C
  N43      1.0000 0.97630  0.45260  0.85281  Biso   1.000  N
  N44      1.0000 0.92538  0.45311  0.64949  Biso   1.000  N
  C88      1.0000 0.91169  0.56092  0.75170  Biso   1.000  C
  N45      1.0000 0.87239  0.24899  0.85810  Biso   1.000  N
  H104     1.0000 0.90041  0.32383  0.98130  Biso   1.000  H
  H105     1.0000 0.83699  0.34158  0.88480  Biso   1.000  H
  O21      1.0000 0.99950  0.36998  0.99952  Biso   1.000  O
  N46      1.0000 0.82262  0.25169  0.65311  Biso   1.000  N
  H106     1.0000 0.78761  0.32529  0.52999  Biso   1.000  H
  H107     1.0000 0.77232  0.34361  0.62842  Biso   1.000  H
  O22      1.0000 0.86910  0.38007  0.49380  Biso   1.000  O
  C89      1.0000 0.03591  0.48557  0.89564  Biso   1.000  C
  C90      1.0000 0.96408  0.48557  0.60440  Biso   1.000  C
  H108     1.0000 0.94520  0.58769  0.75027  Biso   1.000  H
  H109     1.0000 0.90790  0.57422  0.81829  Biso   1.000  H
  H110     1.0000 0.87522  0.57400  0.68661  Biso   1.000  H
  C91      1.0000 0.82301  0.22069  0.75581  Biso   1.000  C
  C92      1.0000 0.91388  0.19578  0.91638  Biso   1.000  C
  C93      1.0000 0.83718  0.20012  0.59449  Biso   1.000  C
  N47      1.0000 0.07461  0.45311  0.85054  Biso   1.000  N
  H111     1.0000 0.05559  0.47999  0.97567  Biso   1.000  H
  H112     1.0000 0.03181  0.53860  0.87918  Biso   1.000  H
  H113     1.0000 0.94438  0.47999  0.52428  Biso   1.000  H
  H114     1.0000 0.96820  0.53860  0.62077  Biso   1.000  H
  N48      1.0000 0.02370  0.45260  0.64723  Biso   1.000  N
  C94      1.0000 0.76271  0.23073  0.75917  Biso   1.000  C
  C95      1.0000 0.84240  0.13543  0.75254  Biso   1.000  C
  N49      1.0000 0.89909  0.13007  0.85541  Biso   1.000  N
  O23      1.0000 0.95647  0.20272  0.00976  Biso   1.000  O
  N50      1.0000 0.85129  0.13328  0.65092  Biso   1.000  N
  O24      1.0000 0.83519  0.21021  0.50102  Biso   1.000  O
  C96      1.0000 0.11899  0.40200  0.91142  Biso   1.000  C
  C97      1.0000 0.07699  0.47639  0.74708  Biso   1.000  C
  C98      1.0000 0.03611  0.39749  0.59029  Biso   1.000  C
  H115     1.0000 0.75428  0.28342  0.76068  Biso   1.000  H
  H116     1.0000 0.76408  0.20672  0.82501  Biso   1.000  H
  H117     1.0000 0.73150  0.20813  0.69342  Biso   1.000  H
  C99      1.0000 0.79779  0.07681  0.75077  Biso   1.000  C
  C100     1.0000 0.93568  0.06250  0.89648  Biso   1.000  C
  C101     1.0000 0.86658  0.06661  0.60549  Biso   1.000  C
  N51      1.0000 0.14840  0.38272  0.84953  Biso   1.000  N
  O25      1.0000 0.13090  0.38007  0.00624  Biso   1.000  O
  C102     1.0000 0.12850  0.42538  0.74523  Biso   1.000  C
  C103     1.0000 0.08831  0.56092  0.74834  Biso   1.000  C
  N52      1.0000 0.09601  0.37962  0.64580  Biso   1.000  N
  O26      1.0000 0.00050  0.36998  0.50052  Biso   1.000  O
  H118     1.0000 0.81321  0.02739  0.74918  Biso   1.000  H
  H119     1.0000 0.76021  0.08397  0.68493  Biso   1.000  H
  H120     1.0000 0.79142  0.08200  0.81653  Biso   1.000  H
  N53      1.0000 0.97960  0.04971  0.85323  Biso   1.000  N
  H121     1.0000 0.95680  0.06532  0.97693  Biso   1.000  H
  H122     1.0000 0.90911  0.01978  0.87733  Biso   1.000  H
  N54      1.0000 0.93107  0.05343  0.64907  Biso   1.000  N
  H123     1.0000 0.84960  0.07169  0.52537  Biso   1.000  H
  H124     1.0000 0.84839  0.02339  0.62170  Biso   1.000  H
  C104     1.0000 0.19599  0.32732  0.88967  Biso   1.000  C
  C105     1.0000 0.18071  0.46641  0.74019  Biso   1.000  C
  H125     1.0000 0.05481  0.58769  0.74968  Biso   1.000  H
  H126     1.0000 0.09207  0.57422  0.68166  Biso   1.000  H
  H127     1.0000 0.12482  0.57400  0.81342  Biso   1.000  H
  C106     1.0000 0.12302  0.32479  0.59894  Biso   1.000  C
  C107     1.0000 0.96750  0.00998  0.74951  Biso   1.000  C
  C108     1.0000 0.03781  0.07349  0.91050  Biso   1.000  C
  C109     1.0000 0.96223  0.07349  0.58953  Biso   1.000  C
  N55      1.0000 0.17742  0.25169  0.84693  Biso   1.000  N
  H128     1.0000 0.21241  0.32529  0.96996  Biso   1.000  H
  H129     1.0000 0.22771  0.34361  0.87162  Biso   1.000  H
  H130     1.0000 0.20949  0.43029  0.73927  Biso   1.000  H
  H131     1.0000 0.19989  0.49870  0.80444  Biso   1.000  H
  H132     1.0000 0.16579  0.49622  0.67292  Biso   1.000  H
  N56      1.0000 0.12760  0.24899  0.64194  Biso   1.000  N
  H133     1.0000 0.09962  0.32383  0.51874  Biso   1.000  H
  H134     1.0000 0.16300  0.34158  0.61523  Biso   1.000  H
  C110     1.0000 0.94070  0.93181  0.74548  Biso   1.000  C
  C111     1.0000 0.03250  0.00998  0.75052  Biso   1.000  C
  N57      1.0000 0.06890  0.05343  0.85088  Biso   1.000  N
  O27      1.0000 0.06020  0.10370  0.00271  Biso   1.000  O
  O28      1.0000 0.93980  0.10370  0.49732  Biso   1.000  O
  N58      1.0000 0.02040  0.04971  0.64681  Biso   1.000  N
  C112     1.0000 0.16279  0.20012  0.90546  Biso   1.000  C
  C113     1.0000 0.17702  0.22069  0.74422  Biso   1.000  C
  C114     1.0000 0.08610  0.19578  0.58357  Biso   1.000  C
  H135     1.0000 0.90202  0.93637  0.74582  Biso   1.000  H
  H136     1.0000 0.96751  0.90329  0.80981  Biso   1.000  H
  H137     1.0000 0.93600  0.90639  0.67830  Biso   1.000  H
  C115     1.0000 0.05928  0.93181  0.75447  Biso   1.000  C
  C116     1.0000 0.13339  0.06661  0.89446  Biso   1.000  C
  C117     1.0000 0.06429  0.06250  0.60347  Biso   1.000  C
  N59      1.0000 0.14870  0.13328  0.84911  Biso   1.000  N
  O29      1.0000 0.16481  0.21021  0.99902  Biso   1.000  O
  C118     1.0000 0.15760  0.13543  0.74750  Biso   1.000  C
  C119     1.0000 0.23731  0.23073  0.74078  Biso   1.000  C
  N60      1.0000 0.10091  0.13007  0.64462  Biso   1.000  N
  O30      1.0000 0.04350  0.20272  0.49019  Biso   1.000  O
  H138     1.0000 0.09801  0.93637  0.75422  Biso   1.000  H
  H139     1.0000 0.03253  0.90329  0.69022  Biso   1.000  H
  H140     1.0000 0.06399  0.90639  0.82174  Biso   1.000  H
  H141     1.0000 0.15038  0.07169  0.97458  Biso   1.000  H
  H142     1.0000 0.15161  0.02339  0.87834  Biso   1.000  H
  H143     1.0000 0.04320  0.06532  0.52311  Biso   1.000  H
  H144     1.0000 0.09089  0.01978  0.62270  Biso   1.000  H
  C120     1.0000 0.20218  0.07681  0.74918  Biso   1.000  C
  H145     1.0000 0.24569  0.28342  0.73927  Biso   1.000  H
  H146     1.0000 0.23591  0.20672  0.67502  Biso   1.000  H
  H147     1.0000 0.26849  0.20813  0.80662  Biso   1.000  H
  H148     1.0000 0.18681  0.02739  0.75077  Biso   1.000  H
  H149     1.0000 0.23978  0.08397  0.81510  Biso   1.000  H
  H150     1.0000 0.20862  0.08200  0.68351  Biso   1.000  H
  C121     1.0000 0.70220  0.57681  0.74918  Biso   1.000  C
  C122     1.0000 0.65762  0.63543  0.74750  Biso   1.000  C
  H151     1.0000 0.68679  0.52739  0.75077  Biso   1.000  H
  H152     1.0000 0.73980  0.58397  0.81510  Biso   1.000  H
  H153     1.0000 0.70860  0.58200  0.68351  Biso   1.000  H
  N61      1.0000 0.64868  0.63328  0.84911  Biso   1.000  N
  N62      1.0000 0.60089  0.63007  0.64462  Biso   1.000  N
  C123     1.0000 0.67700  0.72069  0.74422  Biso   1.000  C
  C124     1.0000 0.63337  0.56661  0.89446  Biso   1.000  C
  C125     1.0000 0.66277  0.70012  0.90546  Biso   1.000  C
  C126     1.0000 0.56431  0.56250  0.60347  Biso   1.000  C
  C127     1.0000 0.58608  0.69578  0.58357  Biso   1.000  C
  N63      1.0000 0.67740  0.75169  0.84693  Biso   1.000  N
  N64      1.0000 0.62762  0.74899  0.64194  Biso   1.000  N
  C128     1.0000 0.73729  0.73073  0.74078  Biso   1.000  C
  N65      1.0000 0.56888  0.55343  0.85088  Biso   1.000  N
  H154     1.0000 0.65040  0.57169  0.97458  Biso   1.000  H
  H155     1.0000 0.65163  0.52339  0.87834  Biso   1.000  H
  O31      1.0000 0.66479  0.71021  0.99902  Biso   1.000  O
  N66      1.0000 0.52042  0.54971  0.64681  Biso   1.000  N
  H156     1.0000 0.54322  0.56532  0.52311  Biso   1.000  H
  H157     1.0000 0.59091  0.51978  0.62270  Biso   1.000  H
  O32      1.0000 0.54348  0.70272  0.49019  Biso   1.000  O
  C129     1.0000 0.69601  0.82732  0.88967  Biso   1.000  C
  C130     1.0000 0.62300  0.82479  0.59894  Biso   1.000  C
  H158     1.0000 0.74567  0.78342  0.73927  Biso   1.000  H
  H159     1.0000 0.73589  0.70672  0.67502  Biso   1.000  H
  H160     1.0000 0.76851  0.70813  0.80662  Biso   1.000  H
  C131     1.0000 0.53252  0.50998  0.75052  Biso   1.000  C
  C132     1.0000 0.53779  0.57349  0.91050  Biso   1.000  C
  C133     1.0000 0.46221  0.57349  0.58953  Biso   1.000  C
  N67      1.0000 0.64842  0.88272  0.84953  Biso   1.000  N
  H161     1.0000 0.71239  0.82529  0.96996  Biso   1.000  H
  H162     1.0000 0.72769  0.84361  0.87162  Biso   1.000  H
  N68      1.0000 0.59599  0.87962  0.64580  Biso   1.000  N
  H163     1.0000 0.59960  0.82383  0.51874  Biso   1.000  H
  H164     1.0000 0.66302  0.84158  0.61523  Biso   1.000  H
  C134     1.0000 0.46752  0.50998  0.74951  Biso   1.000  C
  C135     1.0000 0.55930  0.43181  0.75447  Biso   1.000  C
  N69      1.0000 0.47962  0.54971  0.85323  Biso   1.000  N
  O33      1.0000 0.56022  0.60370  0.00271  Biso   1.000  O
  N70      1.0000 0.43109  0.55343  0.64907  Biso   1.000  N
  O34      1.0000 0.43982  0.60370  0.49732  Biso   1.000  O
  C136     1.0000 0.61901  0.90200  0.91142  Biso   1.000  C
  C137     1.0000 0.62852  0.92538  0.74523  Biso   1.000  C
  C138     1.0000 0.53609  0.89749  0.59029  Biso   1.000  C
  C139     1.0000 0.44068  0.43181  0.74548  Biso   1.000  C
  H165     1.0000 0.59799  0.43637  0.75422  Biso   1.000  H
  H166     1.0000 0.53251  0.40329  0.69022  Biso   1.000  H
  H167     1.0000 0.56401  0.40639  0.82174  Biso   1.000  H
  C140     1.0000 0.43570  0.56250  0.89648  Biso   1.000  C
  C141     1.0000 0.36660  0.56661  0.60549  Biso   1.000  C
  N71      1.0000 0.57459  0.95311  0.85054  Biso   1.000  N
  O35      1.0000 0.63092  0.88007  0.00624  Biso   1.000  O
  C142     1.0000 0.68069  0.96641  0.74019  Biso   1.000  C
  C143     1.0000 0.57701  0.97639  0.74708  Biso   1.000  C
  N72      1.0000 0.52372  0.95260  0.64723  Biso   1.000  N
  O36      1.0000 0.50052  0.86998  0.50052  Biso   1.000  O
  H168     1.0000 0.40200  0.43637  0.74582  Biso   1.000  H
  H169     1.0000 0.46749  0.40329  0.80981  Biso   1.000  H
  H170     1.0000 0.43598  0.40639  0.67830  Biso   1.000  H
  N73      1.0000 0.39911  0.63007  0.85541  Biso   1.000  N
  H171     1.0000 0.45682  0.56532  0.97693  Biso   1.000  H
  H172     1.0000 0.40909  0.51978  0.87733  Biso   1.000  H
  N74      1.0000 0.35131  0.63328  0.65092  Biso   1.000  N
  H173     1.0000 0.34958  0.57169  0.52537  Biso   1.000  H
  H174     1.0000 0.34841  0.52339  0.62170  Biso   1.000  H
  C144     1.0000 0.53589  0.98557  0.89564  Biso   1.000  C
  H175     1.0000 0.70951  0.93029  0.73927  Biso   1.000  H
  H176     1.0000 0.69991  0.99870  0.80444  Biso   1.000  H
  H177     1.0000 0.66581  0.99622  0.67292  Biso   1.000  H
  C145     1.0000 0.58833  0.06092  0.74834  Biso   1.000  C
  C146     1.0000 0.46410  0.98557  0.60440  Biso   1.000  C
  C147     1.0000 0.41390  0.69578  0.91638  Biso   1.000  C
  C148     1.0000 0.34242  0.63543  0.75254  Biso   1.000  C
  C149     1.0000 0.33720  0.70012  0.59449  Biso   1.000  C
  N75      1.0000 0.47632  0.95260  0.85281  Biso   1.000  N
  H178     1.0000 0.55561  0.97999  0.97567  Biso   1.000  H
  H179     1.0000 0.53179  0.03860  0.87918  Biso   1.000  H
  H180     1.0000 0.55479  0.08769  0.74968  Biso   1.000  H
  H181     1.0000 0.59209  0.07422  0.68166  Biso   1.000  H
  H182     1.0000 0.62480  0.07400  0.81342  Biso   1.000  H
  N76      1.0000 0.42540  0.95311  0.64949  Biso   1.000  N
  H183     1.0000 0.44441  0.97999  0.52428  Biso   1.000  H
  H184     1.0000 0.46818  0.03860  0.62077  Biso   1.000  H
  N77      1.0000 0.37241  0.74899  0.85810  Biso   1.000  N
  O37      1.0000 0.45649  0.70272  0.00976  Biso   1.000  O
  C150     1.0000 0.32299  0.72069  0.75581  Biso   1.000  C
  C151     1.0000 0.29781  0.57681  0.75077  Biso   1.000  C
  N78      1.0000 0.32260  0.75169  0.65311  Biso   1.000  N
  O38      1.0000 0.33521  0.71021  0.50102  Biso   1.000  O
  C152     1.0000 0.46388  0.89749  0.90966  Biso   1.000  C
  C153     1.0000 0.42301  0.97639  0.75287  Biso   1.000  C
  C154     1.0000 0.38099  0.90200  0.58861  Biso   1.000  C
  C155     1.0000 0.37699  0.82479  0.90110  Biso   1.000  C
  C156     1.0000 0.26269  0.73073  0.75917  Biso   1.000  C
  H185     1.0000 0.31319  0.52739  0.74918  Biso   1.000  H
  H186     1.0000 0.26019  0.58397  0.68493  Biso   1.000  H
  H187     1.0000 0.29140  0.58200  0.81653  Biso   1.000  H
  C157     1.0000 0.30400  0.82732  0.61028  Biso   1.000  C
  N79      1.0000 0.40401  0.87962  0.85424  Biso   1.000  N
  O39      1.0000 0.49952  0.86998  0.99952  Biso   1.000  O
  C158     1.0000 0.37151  0.92538  0.75480  Biso   1.000  C
  C159     1.0000 0.41171  0.06092  0.75170  Biso   1.000  C
  N80      1.0000 0.35162  0.88272  0.65050  Biso   1.000  N
  O40      1.0000 0.36912  0.88007  0.49380  Biso   1.000  O
  H188     1.0000 0.40039  0.82383  0.98130  Biso   1.000  H
  H189     1.0000 0.33701  0.84158  0.88480  Biso   1.000  H
  H190     1.0000 0.25430  0.78342  0.76068  Biso   1.000  H
  H191     1.0000 0.26410  0.70672  0.82501  Biso   1.000  H
  H192     1.0000 0.23152  0.70813  0.69342  Biso   1.000  H
  H193     1.0000 0.28759  0.82529  0.52999  Biso   1.000  H
  H194     1.0000 0.27230  0.84361  0.62842  Biso   1.000  H
  C160     1.0000 0.31928  0.96641  0.75976  Biso   1.000  C
  H195     1.0000 0.44518  0.08769  0.75027  Biso   1.000  H
  H196     1.0000 0.40788  0.07422  0.81829  Biso   1.000  H
  H197     1.0000 0.37520  0.07400  0.68661  Biso   1.000  H
  H198     1.0000 0.29051  0.93029  0.76068  Biso   1.000  H
  H199     1.0000 0.30008  0.99870  0.69560  Biso   1.000  H
  H200     1.0000 0.33422  0.99622  0.82711  Biso   1.000  H
  C161     1.0000 0.81931  0.53359  0.25983  Biso   1.000  C
  C162     1.0000 0.87148  0.57462  0.25479  Biso   1.000  C
  H201     1.0000 0.79047  0.56971  0.26067  Biso   1.000  H
  H202     1.0000 0.80009  0.50130  0.19559  Biso   1.000  H
  H203     1.0000 0.83419  0.50378  0.32710  Biso   1.000  H
  N81      1.0000 0.85158  0.61728  0.15049  Biso   1.000  N
  C163     1.0000 0.92297  0.52361  0.25286  Biso   1.000  C
  N82      1.0000 0.90402  0.62038  0.35422  Biso   1.000  N
  C164     1.0000 0.80397  0.67268  0.11026  Biso   1.000  C
  C165     1.0000 0.88100  0.59800  0.08860  Biso   1.000  C
  N83      1.0000 0.92541  0.54689  0.14948  Biso   1.000  N
  C166     1.0000 0.91168  0.43908  0.25169  Biso   1.000  C
  N84      1.0000 0.97629  0.54740  0.35280  Biso   1.000  N
  C167     1.0000 0.87700  0.67521  0.40108  Biso   1.000  C
  C168     1.0000 0.96391  0.60251  0.40973  Biso   1.000  C
  N85      1.0000 0.82260  0.74831  0.15309  Biso   1.000  N
  H204     1.0000 0.78760  0.67471  0.02998  Biso   1.000  H
  H205     1.0000 0.77231  0.65639  0.12840  Biso   1.000  H
  O41      1.0000 0.86908  0.61993  0.99379  Biso   1.000  O
  C169     1.0000 0.96411  0.51443  0.10439  Biso   1.000  C
  H206     1.0000 0.94521  0.41231  0.25034  Biso   1.000  H
  H207     1.0000 0.90789  0.42578  0.31828  Biso   1.000  H
  H208     1.0000 0.87521  0.42600  0.18660  Biso   1.000  H
  C170     1.0000 0.03590  0.51443  0.39563  Biso   1.000  C
  N86      1.0000 0.87238  0.75101  0.35809  Biso   1.000  N
  H209     1.0000 0.90040  0.67617  0.48128  Biso   1.000  H
  H210     1.0000 0.83698  0.65842  0.38479  Biso   1.000  H
  O42      1.0000 0.99949  0.63002  0.49951  Biso   1.000  O
  C171     1.0000 0.83721  0.79988  0.09448  Biso   1.000  C
  C172     1.0000 0.82300  0.77931  0.25580  Biso   1.000  C
  H211     1.0000 0.94437  0.52001  0.02427  Biso   1.000  H
  H212     1.0000 0.96819  0.46140  0.12076  Biso   1.000  H
  N87      1.0000 0.02368  0.54740  0.14722  Biso   1.000  N
  N88      1.0000 0.07460  0.54689  0.35053  Biso   1.000  N
  H213     1.0000 0.05560  0.52001  0.47574  Biso   1.000  H
  H214     1.0000 0.03180  0.46140  0.37917  Biso   1.000  H
  C173     1.0000 0.91391  0.80422  0.41637  Biso   1.000  C
  N89      1.0000 0.85132  0.86672  0.15091  Biso   1.000  N
  O43      1.0000 0.83521  0.78979  0.00101  Biso   1.000  O
  C174     1.0000 0.84239  0.86457  0.25253  Biso   1.000  C
  C175     1.0000 0.76270  0.76927  0.25916  Biso   1.000  C
  C176     1.0000 0.03610  0.60251  0.09028  Biso   1.000  C
  C177     1.0000 0.07698  0.52361  0.24707  Biso   1.000  C
  C178     1.0000 0.11901  0.59800  0.41141  Biso   1.000  C
  N90      1.0000 0.89912  0.86993  0.35540  Biso   1.000  N
  O44      1.0000 0.95652  0.79728  0.50984  Biso   1.000  O
  C179     1.0000 0.86661  0.93339  0.10548  Biso   1.000  C
  C180     1.0000 0.79778  0.92319  0.25076  Biso   1.000  C
  H215     1.0000 0.75431  0.71658  0.26067  Biso   1.000  H
  H216     1.0000 0.76411  0.79328  0.32500  Biso   1.000  H
  H217     1.0000 0.73149  0.79187  0.19340  Biso   1.000  H
  O45      1.0000 0.00049  0.63002  0.00050  Biso   1.000  O
  N91      1.0000 0.09599  0.62038  0.14579  Biso   1.000  N
  C181     1.0000 0.12849  0.57462  0.24522  Biso   1.000  C
  C182     1.0000 0.08829  0.43908  0.24833  Biso   1.000  C
  N92      1.0000 0.14839  0.61728  0.34952  Biso   1.000  N
  O46      1.0000 0.13089  0.61993  0.50623  Biso   1.000  O
  C183     1.0000 0.93571  0.93750  0.39647  Biso   1.000  C
  N93      1.0000 0.93110  0.94657  0.14906  Biso   1.000  N
  H218     1.0000 0.84959  0.92831  0.02536  Biso   1.000  H
  H219     1.0000 0.84838  0.97661  0.12169  Biso   1.000  H
  H220     1.0000 0.81319  0.97261  0.24917  Biso   1.000  H
  H221     1.0000 0.76020  0.91603  0.18492  Biso   1.000  H
  H222     1.0000 0.79140  0.91800  0.31652  Biso   1.000  H
  C184     1.0000 0.12301  0.67521  0.09893  Biso   1.000  C
  C185     1.0000 0.18070  0.53359  0.24018  Biso   1.000  C
  H223     1.0000 0.05480  0.41231  0.24967  Biso   1.000  H
  H224     1.0000 0.09212  0.42578  0.18173  Biso   1.000  H
  H225     1.0000 0.12480  0.42600  0.31341  Biso   1.000  H
  C186     1.0000 0.19598  0.67268  0.38966  Biso   1.000  C
  N94      1.0000 0.97959  0.95029  0.35322  Biso   1.000  N
  H226     1.0000 0.95682  0.93468  0.47692  Biso   1.000  H
  H227     1.0000 0.90910  0.98022  0.37732  Biso   1.000  H
  C187     1.0000 0.96221  0.92651  0.08952  Biso   1.000  C
  C188     1.0000 0.96749  0.99002  0.24950  Biso   1.000  C
  N95      1.0000 0.12759  0.75101  0.14192  Biso   1.000  N
  H228     1.0000 0.09961  0.67617  0.01873  Biso   1.000  H
  H229     1.0000 0.16299  0.65842  0.11522  Biso   1.000  H
  H230     1.0000 0.20950  0.56971  0.23934  Biso   1.000  H
  H231     1.0000 0.19992  0.50130  0.30442  Biso   1.000  H
  H232     1.0000 0.16582  0.50378  0.17291  Biso   1.000  H
  N96      1.0000 0.17741  0.74831  0.34692  Biso   1.000  N
  H233     1.0000 0.21241  0.67471  0.47003  Biso   1.000  H
  H234     1.0000 0.22770  0.65639  0.37161  Biso   1.000  H
  C189     1.0000 0.03780  0.92651  0.41049  Biso   1.000  C
  O47      1.0000 0.93979  0.89630  0.99731  Biso   1.000  O
  N97      1.0000 0.02038  0.95029  0.14680  Biso   1.000  N
  C190     1.0000 0.94069  0.06819  0.24547  Biso   1.000  C
  C191     1.0000 0.03248  0.99002  0.25051  Biso   1.000  C
  C192     1.0000 0.08609  0.80422  0.08356  Biso   1.000  C
  C193     1.0000 0.17701  0.77931  0.24421  Biso   1.000  C
  C194     1.0000 0.16280  0.79988  0.40553  Biso   1.000  C
  N98      1.0000 0.06889  0.94657  0.35086  Biso   1.000  N
  O48      1.0000 0.06019  0.89630  0.50270  Biso   1.000  O
  C195     1.0000 0.06428  0.93750  0.10346  Biso   1.000  C
  H235     1.0000 0.90201  0.06363  0.24581  Biso   1.000  H
  H236     1.0000 0.96750  0.09671  0.30980  Biso   1.000  H
  H237     1.0000 0.93599  0.09361  0.17829  Biso   1.000  H
  C196     1.0000 0.05933  0.06819  0.25454  Biso   1.000  C
  O49      1.0000 0.04349  0.79728  0.99017  Biso   1.000  O
  N99      1.0000 0.10090  0.86993  0.14461  Biso   1.000  N
  C197     1.0000 0.15759  0.86457  0.24749  Biso   1.000  C
  C198     1.0000 0.23730  0.76927  0.24077  Biso   1.000  C
  N100     1.0000 0.14869  0.86672  0.34910  Biso   1.000  N
  O50      1.0000 0.16480  0.78979  0.49900  Biso   1.000  O
  C199     1.0000 0.13340  0.93339  0.39453  Biso   1.000  C
  H238     1.0000 0.04319  0.93468  0.02309  Biso   1.000  H
  H239     1.0000 0.09091  0.98022  0.12269  Biso   1.000  H
  H240     1.0000 0.09800  0.06363  0.25420  Biso   1.000  H
  H241     1.0000 0.03251  0.09671  0.19021  Biso   1.000  H
  H242     1.0000 0.06402  0.09361  0.32172  Biso   1.000  H
  C200     1.0000 0.20221  0.92319  0.24917  Biso   1.000  C
  H243     1.0000 0.24570  0.71658  0.23934  Biso   1.000  H
  H244     1.0000 0.23590  0.79328  0.17501  Biso   1.000  H
  H245     1.0000 0.26852  0.79187  0.30661  Biso   1.000  H
  H246     1.0000 0.15041  0.92831  0.47457  Biso   1.000  H
  H247     1.0000 0.15159  0.97661  0.37833  Biso   1.000  H
  H248     1.0000 0.18680  0.97261  0.25076  Biso   1.000  H
  H249     1.0000 0.23981  0.91603  0.31509  Biso   1.000  H
  H250     1.0000 0.20861  0.91800  0.18349  Biso   1.000  H
  C201     1.0000 0.81931  0.53359  0.25983  Biso   1.000  C
  C202     1.0000 0.87148  0.57462  0.25479  Biso   1.000  C
  H251     1.0000 0.79047  0.56971  0.26067  Biso   1.000  H
  H252     1.0000 0.80009  0.50130  0.19559  Biso   1.000  H
  H253     1.0000 0.83419  0.50378  0.32710  Biso   1.000  H
  N101     1.0000 0.85158  0.61728  0.15049  Biso   1.000  N
  C203     1.0000 0.92297  0.52361  0.25286  Biso   1.000  C
  N102     1.0000 0.90402  0.62038  0.35422  Biso   1.000  N
  C204     1.0000 0.80397  0.67268  0.11026  Biso   1.000  C
  C205     1.0000 0.88100  0.59800  0.08860  Biso   1.000  C
  N103     1.0000 0.92541  0.54689  0.14948  Biso   1.000  N
  C206     1.0000 0.91168  0.43908  0.25169  Biso   1.000  C
  N104     1.0000 0.97629  0.54740  0.35280  Biso   1.000  N
  C207     1.0000 0.87700  0.67521  0.40108  Biso   1.000  C
  C208     1.0000 0.96391  0.60251  0.40973  Biso   1.000  C
  N105     1.0000 0.82260  0.74831  0.15309  Biso   1.000  N
  H254     1.0000 0.78760  0.67471  0.02998  Biso   1.000  H
  H255     1.0000 0.77231  0.65639  0.12840  Biso   1.000  H
  O51      1.0000 0.86908  0.61993  0.99379  Biso   1.000  O
  C209     1.0000 0.96411  0.51443  0.10439  Biso   1.000  C
  H256     1.0000 0.94521  0.41231  0.25034  Biso   1.000  H
  H257     1.0000 0.90789  0.42578  0.31828  Biso   1.000  H
  H258     1.0000 0.87521  0.42600  0.18660  Biso   1.000  H
  C210     1.0000 0.03590  0.51443  0.39563  Biso   1.000  C
  N106     1.0000 0.87238  0.75101  0.35809  Biso   1.000  N
  H259     1.0000 0.90040  0.67617  0.48128  Biso   1.000  H
  H260     1.0000 0.83698  0.65842  0.38479  Biso   1.000  H
  O52      1.0000 0.99949  0.63002  0.49951  Biso   1.000  O
  C211     1.0000 0.83721  0.79988  0.09448  Biso   1.000  C
  C212     1.0000 0.82300  0.77931  0.25580  Biso   1.000  C
  H261     1.0000 0.94437  0.52001  0.02427  Biso   1.000  H
  H262     1.0000 0.96819  0.46140  0.12076  Biso   1.000  H
  N107     1.0000 0.02368  0.54740  0.14722  Biso   1.000  N
  N108     1.0000 0.07460  0.54689  0.35053  Biso   1.000  N
  H263     1.0000 0.05560  0.52001  0.47574  Biso   1.000  H
  H264     1.0000 0.03180  0.46140  0.37917  Biso   1.000  H
  C213     1.0000 0.91391  0.80422  0.41637  Biso   1.000  C
  N109     1.0000 0.85132  0.86672  0.15091  Biso   1.000  N
  O53      1.0000 0.83521  0.78979  0.00101  Biso   1.000  O
  C214     1.0000 0.84239  0.86457  0.25253  Biso   1.000  C
  C215     1.0000 0.76270  0.76927  0.25916  Biso   1.000  C
  C216     1.0000 0.03610  0.60251  0.09028  Biso   1.000  C
  C217     1.0000 0.07698  0.52361  0.24707  Biso   1.000  C
  C218     1.0000 0.11901  0.59800  0.41141  Biso   1.000  C
  N110     1.0000 0.89912  0.86993  0.35540  Biso   1.000  N
  O54      1.0000 0.95652  0.79728  0.50984  Biso   1.000  O
  C219     1.0000 0.86661  0.93339  0.10548  Biso   1.000  C
  C220     1.0000 0.79778  0.92319  0.25076  Biso   1.000  C
  H265     1.0000 0.75431  0.71658  0.26067  Biso   1.000  H
  H266     1.0000 0.76411  0.79328  0.32500  Biso   1.000  H
  H267     1.0000 0.73149  0.79187  0.19340  Biso   1.000  H
  O55      1.0000 0.00049  0.63002  0.00050  Biso   1.000  O
  N111     1.0000 0.09599  0.62038  0.14579  Biso   1.000  N
  C221     1.0000 0.12849  0.57462  0.24522  Biso   1.000  C
  C222     1.0000 0.08829  0.43908  0.24833  Biso   1.000  C
  N112     1.0000 0.14839  0.61728  0.34952  Biso   1.000  N
  O56      1.0000 0.13089  0.61993  0.50623  Biso   1.000  O
  C223     1.0000 0.93571  0.93750  0.39647  Biso   1.000  C
  N113     1.0000 0.93110  0.94657  0.14906  Biso   1.000  N
  H268     1.0000 0.84959  0.92831  0.02536  Biso   1.000  H
  H269     1.0000 0.84838  0.97661  0.12169  Biso   1.000  H
  H270     1.0000 0.81319  0.97261  0.24917  Biso   1.000  H
  H271     1.0000 0.76020  0.91603  0.18492  Biso   1.000  H
  H272     1.0000 0.79140  0.91800  0.31652  Biso   1.000  H
  C224     1.0000 0.12301  0.67521  0.09893  Biso   1.000  C
  C225     1.0000 0.18070  0.53359  0.24018  Biso   1.000  C
  H273     1.0000 0.05480  0.41231  0.24967  Biso   1.000  H
  H274     1.0000 0.09212  0.42578  0.18173  Biso   1.000  H
  H275     1.0000 0.12480  0.42600  0.31341  Biso   1.000  H
  C226     1.0000 0.19598  0.67268  0.38966  Biso   1.000  C
  N114     1.0000 0.97959  0.95029  0.35322  Biso   1.000  N
  H276     1.0000 0.95682  0.93468  0.47692  Biso   1.000  H
  H277     1.0000 0.90910  0.98022  0.37732  Biso   1.000  H
  C227     1.0000 0.96221  0.92651  0.08952  Biso   1.000  C
  C228     1.0000 0.96749  0.99002  0.24950  Biso   1.000  C
  N115     1.0000 0.12759  0.75101  0.14192  Biso   1.000  N
  H278     1.0000 0.09961  0.67617  0.01873  Biso   1.000  H
  H279     1.0000 0.16299  0.65842  0.11522  Biso   1.000  H
  H280     1.0000 0.20950  0.56971  0.23934  Biso   1.000  H
  H281     1.0000 0.19992  0.50130  0.30442  Biso   1.000  H
  H282     1.0000 0.16582  0.50378  0.17291  Biso   1.000  H
  N116     1.0000 0.17741  0.74831  0.34692  Biso   1.000  N
  H283     1.0000 0.21241  0.67471  0.47003  Biso   1.000  H
  H284     1.0000 0.22770  0.65639  0.37161  Biso   1.000  H
  C229     1.0000 0.03780  0.92651  0.41049  Biso   1.000  C
  O57      1.0000 0.93979  0.89630  0.99731  Biso   1.000  O
  N117     1.0000 0.02038  0.95029  0.14680  Biso   1.000  N
  C230     1.0000 0.94069  0.06819  0.24547  Biso   1.000  C
  C231     1.0000 0.03248  0.99002  0.25051  Biso   1.000  C
  C232     1.0000 0.08609  0.80422  0.08356  Biso   1.000  C
  C233     1.0000 0.17701  0.77931  0.24421  Biso   1.000  C
  C234     1.0000 0.16280  0.79988  0.40553  Biso   1.000  C
  N118     1.0000 0.06889  0.94657  0.35086  Biso   1.000  N
  O58      1.0000 0.06019  0.89630  0.50270  Biso   1.000  O
  C235     1.0000 0.06428  0.93750  0.10346  Biso   1.000  C
  H285     1.0000 0.90201  0.06363  0.24581  Biso   1.000  H
  H286     1.0000 0.96750  0.09671  0.30980  Biso   1.000  H
  H287     1.0000 0.93599  0.09361  0.17829  Biso   1.000  H
  C236     1.0000 0.05933  0.06819  0.25454  Biso   1.000  C
  O59      1.0000 0.04349  0.79728  0.99017  Biso   1.000  O
  N119     1.0000 0.10090  0.86993  0.14461  Biso   1.000  N
  C237     1.0000 0.15759  0.86457  0.24749  Biso   1.000  C
  C238     1.0000 0.23730  0.76927  0.24077  Biso   1.000  C
  N120     1.0000 0.14869  0.86672  0.34910  Biso   1.000  N
  O60      1.0000 0.16480  0.78979  0.49900  Biso   1.000  O
  C239     1.0000 0.13340  0.93339  0.39453  Biso   1.000  C
  H288     1.0000 0.04319  0.93468  0.02309  Biso   1.000  H
  H289     1.0000 0.09091  0.98022  0.12269  Biso   1.000  H
  H290     1.0000 0.09800  0.06363  0.25420  Biso   1.000  H
  H291     1.0000 0.03251  0.09671  0.19021  Biso   1.000  H
  H292     1.0000 0.06402  0.09361  0.32172  Biso   1.000  H
  C240     1.0000 0.20221  0.92319  0.24917  Biso   1.000  C
  H293     1.0000 0.24570  0.71658  0.23934  Biso   1.000  H
  H294     1.0000 0.23590  0.79328  0.17501  Biso   1.000  H
  H295     1.0000 0.26852  0.79187  0.30661  Biso   1.000  H
  H296     1.0000 0.15041  0.92831  0.47457  Biso   1.000  H
  H297     1.0000 0.15159  0.97661  0.37833  Biso   1.000  H
  H298     1.0000 0.18680  0.97261  0.25076  Biso   1.000  H
  H299     1.0000 0.23981  0.91603  0.31509  Biso   1.000  H
  H300     1.0000 0.20861  0.91800  0.18349  Biso   1.000  H
  Ne1      1.0000 0.50000  0.24653  0.25000  Biso   1.000  Ne
  He1      1.0000 0.56553  0.24851  0.51020  Biso   1.000  He
  He2      1.0000 0.43511  0.24853  0.99243  Biso   1.000  He
  Ar1      1.0000 0.49999  0.24817  0.25002  Biso   1.000  Ar
  Ne2      1.0000 0.50000  0.75347  0.75000  Biso   1.000  Ne
  He3      1.0000 0.56551  0.75148  0.01021  Biso   1.000  He
  He4      1.0000 0.43538  0.75147  0.49350  Biso   1.000  He
  Ar2      1.0000 0.50001  0.75182  0.75000  Biso   1.000  Ar
  Ne3      1.0000 1.00000  0.25347  0.75000  Biso   1.000  Ne
  He5      1.0000 0.06553  0.25150  0.01021  Biso   1.000  He
  He6      1.0000 0.93537  0.25147  0.49350  Biso   1.000  He
  Ar3      1.0000 0.00003  0.25181  0.75001  Biso   1.000  Ar
  Ne4      1.0000 1.00000  0.25347  0.75000  Biso   1.000  Ne
  He7      1.0000 0.06553  0.25150  0.01021  Biso   1.000  He
  He8      1.0000 0.93537  0.25147  0.49350  Biso   1.000  He
  Ar4      1.0000 0.00003  0.25181  0.75001  Biso   1.000  Ar
  Ne5      1.0000 1.00000  0.74653  0.25000  Biso   1.000  Ne
  He9      1.0000 0.06552  0.74850  0.51020  Biso   1.000  He
  He10     1.0000 0.93512  0.74854  0.99242  Biso   1.000  He
  Ar5      1.0000 0.00000  0.74818  0.25001  Biso   1.000  Ar
  Ne6      1.0000 1.00000  0.74653  0.25000  Biso   1.000  Ne
  He11     1.0000 0.06552  0.74850  0.51020  Biso   1.000  He
  He12     1.0000 0.93512  0.74854  0.99242  Biso   1.000  He
  Ar6      1.0000 0.00000  0.74818  0.25001  Biso   1.000  Ar
