data_image0
_cell_length_a       22.024
_cell_length_b       21.146
_cell_length_c       34.71
_cell_angle_alpha    90
_cell_angle_beta     90
_cell_angle_gamma    90

_symmetry_space_group_name_H-M    "P 1"
_symmetry_int_tables_number       1

loop_
  _symmetry_equiv_pos_as_xyz
  'x, y, z'

loop_
  _atom_site_label
  _atom_site_occupancy
  _atom_site_fract_x
  _atom_site_fract_y
  _atom_site_fract_z
  _atom_site_thermal_displace_type
  _atom_site_B_iso_or_equiv
  _atom_site_type_symbol
  O1       1.0000 0.50831  0.39298  0.51060  Biso   1.000  O
  C1       1.0000 0.51943  0.34125  0.49585  Biso   1.000  C
  N1       1.0000 0.52883  0.33297  0.45837  Biso   1.000  N
  C2       1.0000 0.52293  0.28185  0.51959  Biso   1.000  C
  C3       1.0000 0.53174  0.38594  0.43143  Biso   1.000  C
  H1       1.0000 0.53351  0.29429  0.44950  Biso   1.000  H
  N2       1.0000 0.53714  0.22898  0.50043  Biso   1.000  N
  C4       1.0000 0.51162  0.28275  0.55883  Biso   1.000  C
  C5       1.0000 0.59376  0.41762  0.43163  Biso   1.000  C
  H2       1.0000 0.52279  0.37052  0.40510  Biso   1.000  H
  H3       1.0000 0.50041  0.41738  0.43840  Biso   1.000  H
  C6       1.0000 0.54127  0.17521  0.52040  Biso   1.000  C
  C7       1.0000 0.51571  0.22661  0.57917  Biso   1.000  C
  H4       1.0000 0.50132  0.32110  0.57151  Biso   1.000  H
  N3       1.0000 0.64189  0.37875  0.41351  Biso   1.000  N
  H5       1.0000 0.60552  0.42679  0.45860  Biso   1.000  H
  H6       1.0000 0.59090  0.45848  0.41780  Biso   1.000  H
  C8       1.0000 0.55548  0.11662  0.49761  Biso   1.000  C
  C9       1.0000 0.53128  0.17176  0.55981  Biso   1.000  C
  H7       1.0000 0.50790  0.22572  0.60611  Biso   1.000  H
  C10      1.0000 0.63821  0.38792  0.37142  Biso   1.000  C
  C11      1.0000 0.70246  0.39852  0.42743  Biso   1.000  C
  N4       1.0000 0.55362  0.12423  0.45938  Biso   1.000  N
  O2       1.0000 0.56715  0.06630  0.51366  Biso   1.000  O
  H8       1.0000 0.53501  0.13270  0.57309  Biso   1.000  H
  C12      1.0000 0.67694  0.34219  0.34808  Biso   1.000  C
  H9       1.0000 0.59540  0.38329  0.36330  Biso   1.000  H
  H10      1.0000 0.65102  0.43171  0.36531  Biso   1.000  H
  H11      1.0000 0.73370  0.37742  0.41150  Biso   1.000  H
  H12      1.0000 0.70668  0.44462  0.42339  Biso   1.000  H
  C13      1.0000 0.71545  0.38400  0.46955  Biso   1.000  C
  C14      1.0000 0.55703  0.07023  0.43348  Biso   1.000  C
  H13      1.0000 0.55031  0.16249  0.44970  Biso   1.000  H
  N5       1.0000 0.66164  0.34664  0.30755  Biso   1.000  N
  H14      1.0000 0.67000  0.29850  0.35719  Biso   1.000  H
  H15      1.0000 0.72040  0.35231  0.35180  Biso   1.000  H
  H16      1.0000 0.68489  0.40580  0.48571  Biso   1.000  H
  H17      1.0000 0.75581  0.40121  0.47640  Biso   1.000  H
  N6       1.0000 0.71427  0.31642  0.47836  Biso   1.000  N
  C15      1.0000 0.49896  0.03116  0.43408  Biso   1.000  C
  H18      1.0000 0.56452  0.08541  0.40689  Biso   1.000  H
  H19      1.0000 0.59158  0.04308  0.44111  Biso   1.000  H
  C16      1.0000 0.70355  0.35061  0.27986  Biso   1.000  C
  H20      1.0000 0.62309  0.34678  0.30089  Biso   1.000  H
  H21      1.0000 0.72639  0.28951  0.46059  Biso   1.000  H
  C17      1.0000 0.69565  0.29391  0.51216  Biso   1.000  C
  N7       1.0000 0.44638  0.06550  0.41818  Biso   1.000  N
  H22      1.0000 0.48992  0.01868  0.46099  Biso   1.000  H
  H23      1.0000 0.50540  0.99201  0.41899  Biso   1.000  H
  C18      1.0000 0.67844  0.35089  0.23938  Biso   1.000  C
  O3       1.0000 0.75872  0.35349  0.28548  Biso   1.000  O
  O4       1.0000 0.67590  0.32777  0.53817  Biso   1.000  O
  C19      1.0000 0.69942  0.22349  0.51783  Biso   1.000  C
  C20      1.0000 0.38826  0.04313  0.43498  Biso   1.000  C
  C21      1.0000 0.44574  0.06370  0.37580  Biso   1.000  C
  N8       1.0000 0.61828  0.34877  0.23518  Biso   1.000  N
  C22      1.0000 0.71776  0.35269  0.20835  Biso   1.000  C
  N9       1.0000 0.70618  0.18751  0.48643  Biso   1.000  N
  C23      1.0000 0.69610  0.19867  0.55488  Biso   1.000  C
  C24      1.0000 0.37722  0.06881  0.47519  Biso   1.000  C
  H24      1.0000 0.35439  0.05618  0.41801  Biso   1.000  H
  H25      1.0000 0.38862  0.99641  0.43601  Biso   1.000  H
  H26      1.0000 0.41609  0.09548  0.36661  Biso   1.000  H
  H27      1.0000 0.48629  0.07680  0.36641  Biso   1.000  H
  C25      1.0000 0.42994  0.99972  0.35719  Biso   1.000  C
  C26      1.0000 0.59580  0.34716  0.19948  Biso   1.000  C
  C27      1.0000 0.69415  0.35066  0.17156  Biso   1.000  C
  H28      1.0000 0.76040  0.35529  0.21230  Biso   1.000  H
  C28      1.0000 0.70991  0.12456  0.49141  Biso   1.000  C
  C29      1.0000 0.70046  0.13397  0.55946  Biso   1.000  C
  H29      1.0000 0.69102  0.22562  0.57661  Biso   1.000  H
  N10      1.0000 0.36674  0.13705  0.47419  Biso   1.000  N
  H30      1.0000 0.41291  0.05959  0.49159  Biso   1.000  H
  H31      1.0000 0.34149  0.04748  0.48660  Biso   1.000  H
  N11      1.0000 0.45319  0.99830  0.31824  Biso   1.000  N
  H32      1.0000 0.38531  0.99380  0.35690  Biso   1.000  H
  H33      1.0000 0.44810  0.96491  0.37240  Biso   1.000  H
  C30      1.0000 0.52761  0.34711  0.19594  Biso   1.000  C
  C31      1.0000 0.63190  0.34763  0.16675  Biso   1.000  C
  H34      1.0000 0.72031  0.35141  0.14981  Biso   1.000  H
  C32      1.0000 0.71808  0.08437  0.45612  Biso   1.000  C
  C33      1.0000 0.70750  0.09605  0.52734  Biso   1.000  C
  H35      1.0000 0.69869  0.11572  0.58441  Biso   1.000  H
  C34      1.0000 0.37377  0.17464  0.50458  Biso   1.000  C
  H36      1.0000 0.35520  0.15421  0.45229  Biso   1.000  H
  C35      1.0000 0.42009  0.00151  0.28629  Biso   1.000  C
  H37      1.0000 0.49278  0.99499  0.31541  Biso   1.000  H
  N12      1.0000 0.49800  0.34465  0.22921  Biso   1.000  N
  O5       1.0000 0.50254  0.35037  0.16407  Biso   1.000  O
  H38      1.0000 0.61442  0.34588  0.14180  Biso   1.000  H
  N13      1.0000 0.73334  0.11572  0.42432  Biso   1.000  N
  O6       1.0000 0.71141  0.02629  0.45799  Biso   1.000  O
  H39      1.0000 0.71059  0.05140  0.52979  Biso   1.000  H
  C36      1.0000 0.36764  0.24454  0.49640  Biso   1.000  C
  O7       1.0000 0.38553  0.15629  0.53757  Biso   1.000  O
  O8       1.0000 0.36406  0.00407  0.28528  Biso   1.000  O
  C37      1.0000 0.45646  0.00203  0.24967  Biso   1.000  C
  C38      1.0000 0.43198  0.34739  0.23074  Biso   1.000  C
  H40      1.0000 0.51871  0.34129  0.25079  Biso   1.000  H
  C39      1.0000 0.74464  0.08574  0.38715  Biso   1.000  C
  H41      1.0000 0.73688  0.15710  0.42581  Biso   1.000  H
  N14      1.0000 0.36342  0.26142  0.45935  Biso   1.000  N
  C40      1.0000 0.36905  0.28833  0.52616  Biso   1.000  C
  N15      1.0000 0.51707  0.00288  0.25321  Biso   1.000  N
  C41      1.0000 0.42712  0.00307  0.21426  Biso   1.000  C
  C42      1.0000 0.40706  0.34030  0.27110  Biso   1.000  C
  H42      1.0000 0.41832  0.38830  0.21999  Biso   1.000  H
  H43      1.0000 0.41509  0.31330  0.21429  Biso   1.000  H
  C43      1.0000 0.69338  0.10205  0.35906  Biso   1.000  C
  H44      1.0000 0.78392  0.10059  0.37661  Biso   1.000  H
  H45      1.0000 0.74709  0.03930  0.39049  Biso   1.000  H
  C44      1.0000 0.35997  0.32332  0.45099  Biso   1.000  C
  C45      1.0000 0.36537  0.35212  0.51711  Biso   1.000  C
  H46      1.0000 0.37250  0.27490  0.55220  Biso   1.000  H
  C46      1.0000 0.54999  0.00596  0.22112  Biso   1.000  C
  C47      1.0000 0.46191  0.00572  0.18133  Biso   1.000  C
  H47      1.0000 0.38408  0.00199  0.21279  Biso   1.000  H
  N16      1.0000 0.41968  0.27835  0.28865  Biso   1.000  N
  H48      1.0000 0.36260  0.34692  0.27041  Biso   1.000  H
  H49      1.0000 0.42472  0.37378  0.28761  Biso   1.000  H
  N17      1.0000 0.70509  0.08891  0.31818  Biso   1.000  N
  H50      1.0000 0.68398  0.14759  0.36180  Biso   1.000  H
  H51      1.0000 0.65669  0.07831  0.36690  Biso   1.000  H
  C48      1.0000 0.35766  0.33973  0.40879  Biso   1.000  C
  C49      1.0000 0.36079  0.37000  0.47894  Biso   1.000  C
  H52      1.0000 0.36601  0.38310  0.53691  Biso   1.000  H
  C50      1.0000 0.61823  0.00761  0.22555  Biso   1.000  C
  C51      1.0000 0.52438  0.00738  0.18459  Biso   1.000  C
  H53      1.0000 0.44320  0.00638  0.15670  Biso   1.000  H
  C52      1.0000 0.38721  0.22624  0.26943  Biso   1.000  C
  C53      1.0000 0.40865  0.27878  0.33051  Biso   1.000  C
  C54      1.0000 0.75168  0.13076  0.30182  Biso   1.000  C
  C55      1.0000 0.71790  0.02185  0.31075  Biso   1.000  C
  N18      1.0000 0.34081  0.29282  0.38539  Biso   1.000  N
  O9       1.0000 0.37137  0.39308  0.39764  Biso   1.000  O
  H54      1.0000 0.35829  0.41341  0.47200  Biso   1.000  H
  N19      1.0000 0.63921  0.00643  0.26139  Biso   1.000  N
  O10      1.0000 0.65093  0.00979  0.19709  Biso   1.000  O
  H55      1.0000 0.54931  0.00941  0.16229  Biso   1.000  H
  C56      1.0000 0.42272  0.16443  0.26958  Biso   1.000  C
  H56      1.0000 0.34780  0.21952  0.28251  Biso   1.000  H
  H57      1.0000 0.37859  0.23848  0.24241  Biso   1.000  H
  H58      1.0000 0.41700  0.23579  0.34051  Biso   1.000  H
  H59      1.0000 0.43829  0.30781  0.34261  Biso   1.000  H
  C57      1.0000 0.34471  0.29835  0.34376  Biso   1.000  C
  C58      1.0000 0.72684  0.19611  0.29213  Biso   1.000  C
  H60      1.0000 0.78542  0.13520  0.32051  Biso   1.000  H
  H61      1.0000 0.76830  0.11132  0.27810  Biso   1.000  H
  H62      1.0000 0.76122  0.01329  0.31619  Biso   1.000  H
  C59      1.0000 0.70396  0.00303  0.26955  Biso   1.000  C
  H63      1.0000 0.69329  0.99560  0.32849  Biso   1.000  H
  H64      1.0000 0.32692  0.25750  0.39551  Biso   1.000  H
  H65      1.0000 0.61329  0.00771  0.28070  Biso   1.000  H
  N20      1.0000 0.47866  0.16774  0.24725  Biso   1.000  N
  H66      1.0000 0.39679  0.13038  0.25889  Biso   1.000  H
  H67      1.0000 0.43280  0.15308  0.29651  Biso   1.000  H
  H68      1.0000 0.31388  0.27069  0.33149  Biso   1.000  H
  H69      1.0000 0.33650  0.34252  0.33590  Biso   1.000  H
  N21      1.0000 0.68062  0.19389  0.26217  Biso   1.000  N
  H70      1.0000 0.76058  0.22359  0.28349  Biso   1.000  H
  H71      1.0000 0.70918  0.21522  0.31570  Biso   1.000  H
  H72      1.0000 0.72612  0.03140  0.25171  Biso   1.000  H
  H73      1.0000 0.71840  0.95928  0.26500  Biso   1.000  H
  C60      1.0000 0.47830  0.17095  0.20905  Biso   1.000  C
  H74      1.0000 0.51371  0.16760  0.25941  Biso   1.000  H
  C61      1.0000 0.69524  0.18623  0.22535  Biso   1.000  C
  H75      1.0000 0.64221  0.19772  0.26860  Biso   1.000  H
  O11      1.0000 0.43144  0.17256  0.18940  Biso   1.000  O
  C62      1.0000 0.54009  0.17261  0.19046  Biso   1.000  C
  C63      1.0000 0.64289  0.17975  0.19804  Biso   1.000  C
  O12      1.0000 0.74823  0.18443  0.21357  Biso   1.000  O
  N22      1.0000 0.58777  0.17899  0.21389  Biso   1.000  N
  C64      1.0000 0.54590  0.16651  0.15079  Biso   1.000  C
  C65      1.0000 0.65311  0.17422  0.15883  Biso   1.000  C
  C66      1.0000 0.60361  0.16731  0.13483  Biso   1.000  C
  H76      1.0000 0.51108  0.16192  0.13489  Biso   1.000  H
  H77      1.0000 0.69320  0.17512  0.14869  Biso   1.000  H
  H78      1.0000 0.60902  0.16320  0.10781  Biso   1.000  H
  O13      1.0000 0.49169  0.60702  0.48940  Biso   1.000  O
  C67      1.0000 0.48057  0.65875  0.50415  Biso   1.000  C
  N23      1.0000 0.47117  0.66703  0.54163  Biso   1.000  N
  C68      1.0000 0.47707  0.71815  0.48041  Biso   1.000  C
  C69      1.0000 0.46826  0.61406  0.56857  Biso   1.000  C
  H79      1.0000 0.46649  0.70571  0.55050  Biso   1.000  H
  N24      1.0000 0.46286  0.77102  0.49957  Biso   1.000  N
  C70      1.0000 0.48838  0.71725  0.44117  Biso   1.000  C
  C71      1.0000 0.40624  0.58238  0.56837  Biso   1.000  C
  H80      1.0000 0.47721  0.62948  0.59490  Biso   1.000  H
  H81      1.0000 0.49959  0.58262  0.56160  Biso   1.000  H
  C72      1.0000 0.45873  0.82479  0.47960  Biso   1.000  C
  C73      1.0000 0.48429  0.77339  0.42083  Biso   1.000  C
  H82      1.0000 0.49868  0.67890  0.42849  Biso   1.000  H
  N25      1.0000 0.35811  0.62125  0.58649  Biso   1.000  N
  H83      1.0000 0.39448  0.57321  0.54140  Biso   1.000  H
  H84      1.0000 0.40910  0.54152  0.58220  Biso   1.000  H
  C74      1.0000 0.44452  0.88338  0.50239  Biso   1.000  C
  C75      1.0000 0.46872  0.82824  0.44019  Biso   1.000  C
  H85      1.0000 0.49210  0.77428  0.39389  Biso   1.000  H
  C76      1.0000 0.29754  0.60148  0.57257  Biso   1.000  C
  C77      1.0000 0.36179  0.61208  0.62858  Biso   1.000  C
  O14      1.0000 0.43285  0.93370  0.48634  Biso   1.000  O
  N26      1.0000 0.44638  0.87577  0.54062  Biso   1.000  N
  H86      1.0000 0.46499  0.86730  0.42691  Biso   1.000  H
  C78      1.0000 0.28455  0.61600  0.53045  Biso   1.000  C
  H87      1.0000 0.26630  0.62258  0.58850  Biso   1.000  H
  H88      1.0000 0.29332  0.55538  0.57661  Biso   1.000  H
  C79      1.0000 0.32306  0.65781  0.65192  Biso   1.000  C
  H89      1.0000 0.40460  0.61671  0.63670  Biso   1.000  H
  H90      1.0000 0.34898  0.56829  0.63469  Biso   1.000  H
  C80      1.0000 0.44297  0.92977  0.56652  Biso   1.000  C
  H91      1.0000 0.44969  0.83751  0.55030  Biso   1.000  H
  N27      1.0000 0.28573  0.68358  0.52164  Biso   1.000  N
  H92      1.0000 0.31511  0.59420  0.51429  Biso   1.000  H
  H93      1.0000 0.24419  0.59879  0.52360  Biso   1.000  H
  N28      1.0000 0.33836  0.65336  0.69245  Biso   1.000  N
  H94      1.0000 0.33000  0.70150  0.64281  Biso   1.000  H
  H95      1.0000 0.27960  0.64769  0.64820  Biso   1.000  H
  C81      1.0000 0.50104  0.96884  0.56592  Biso   1.000  C
  H96      1.0000 0.43548  0.91459  0.59311  Biso   1.000  H
  H97      1.0000 0.40842  0.95692  0.55889  Biso   1.000  H
  C82      1.0000 0.30435  0.70609  0.48784  Biso   1.000  C
  H98      1.0000 0.27361  0.71049  0.53941  Biso   1.000  H
  C83      1.0000 0.29645  0.64939  0.72014  Biso   1.000  C
  H99      1.0000 0.37691  0.65322  0.69911  Biso   1.000  H
  N29      1.0000 0.55362  0.93450  0.58182  Biso   1.000  N
  H100     1.0000 0.51008  0.98132  0.53901  Biso   1.000  H
  H101     1.0000 0.49460  0.00799  0.58101  Biso   1.000  H
  O15      1.0000 0.32410  0.67223  0.46183  Biso   1.000  O
  C84      1.0000 0.30058  0.77651  0.48217  Biso   1.000  C
  O16      1.0000 0.24128  0.64651  0.71452  Biso   1.000  O
  C85      1.0000 0.32156  0.64911  0.76062  Biso   1.000  C
  C86      1.0000 0.61174  0.95687  0.56502  Biso   1.000  C
  C87      1.0000 0.55426  0.93630  0.62420  Biso   1.000  C
  N30      1.0000 0.29382  0.81249  0.51357  Biso   1.000  N
  C88      1.0000 0.30390  0.80133  0.44512  Biso   1.000  C
  N31      1.0000 0.38172  0.65123  0.76482  Biso   1.000  N
  C89      1.0000 0.28224  0.64731  0.79165  Biso   1.000  C
  C90      1.0000 0.62278  0.93119  0.52481  Biso   1.000  C
  H102     1.0000 0.64561  0.94382  0.58199  Biso   1.000  H
  H103     1.0000 0.61138  0.00359  0.56399  Biso   1.000  H
  H104     1.0000 0.58391  0.90452  0.63339  Biso   1.000  H
  H105     1.0000 0.51371  0.92320  0.63359  Biso   1.000  H
  C91      1.0000 0.57006  0.00028  0.64281  Biso   1.000  C
  C92      1.0000 0.29009  0.87544  0.50859  Biso   1.000  C
  H106     1.0000 0.30898  0.77438  0.42339  Biso   1.000  H
  C93      1.0000 0.29954  0.86603  0.44054  Biso   1.000  C
  C94      1.0000 0.40420  0.65284  0.80052  Biso   1.000  C
  C95      1.0000 0.30585  0.64934  0.82844  Biso   1.000  C
  H107     1.0000 0.23960  0.64471  0.78770  Biso   1.000  H
  N32      1.0000 0.63326  0.86295  0.52581  Biso   1.000  N
  H108     1.0000 0.58709  0.94041  0.50841  Biso   1.000  H
  H109     1.0000 0.65851  0.95252  0.51340  Biso   1.000  H
  N33      1.0000 0.54681  0.00170  0.68176  Biso   1.000  N
  H110     1.0000 0.61469  0.00620  0.64310  Biso   1.000  H
  H111     1.0000 0.55190  0.03509  0.62760  Biso   1.000  H
  C96      1.0000 0.29250  0.90395  0.47266  Biso   1.000  C
  C97      1.0000 0.28192  0.91563  0.54388  Biso   1.000  C
  H112     1.0000 0.30131  0.88428  0.41559  Biso   1.000  H
  C98      1.0000 0.47239  0.65289  0.80406  Biso   1.000  C
  C99      1.0000 0.36810  0.65237  0.83325  Biso   1.000  C
  H113     1.0000 0.27969  0.64859  0.85019  Biso   1.000  H
  C100     1.0000 0.62623  0.82536  0.49542  Biso   1.000  C
  H114     1.0000 0.64480  0.84579  0.54771  Biso   1.000  H
  C101     1.0000 0.57991  0.99849  0.71371  Biso   1.000  C
  H115     1.0000 0.50722  0.00501  0.68459  Biso   1.000  H
  H116     1.0000 0.28941  0.94860  0.47021  Biso   1.000  H
  O17      1.0000 0.28859  0.97371  0.54201  Biso   1.000  O
  N34      1.0000 0.26666  0.88428  0.57568  Biso   1.000  N
  O18      1.0000 0.49746  0.64963  0.83593  Biso   1.000  O
  N35      1.0000 0.50200  0.65535  0.77079  Biso   1.000  N
  H117     1.0000 0.38558  0.65412  0.85820  Biso   1.000  H
  O19      1.0000 0.61447  0.84371  0.46243  Biso   1.000  O
  C102     1.0000 0.63236  0.75546  0.50360  Biso   1.000  C
  C103     1.0000 0.54354  0.99797  0.75033  Biso   1.000  C
  O20      1.0000 0.63594  0.99593  0.71472  Biso   1.000  O
  H118     1.0000 0.26312  0.84290  0.57419  Biso   1.000  H
  C104     1.0000 0.25536  0.91426  0.61285  Biso   1.000  C
  C105     1.0000 0.56802  0.65261  0.76926  Biso   1.000  C
  H119     1.0000 0.48129  0.65871  0.74921  Biso   1.000  H
  N36      1.0000 0.63658  0.73858  0.54065  Biso   1.000  N
  C106     1.0000 0.63095  0.71167  0.47384  Biso   1.000  C
  N37      1.0000 0.48293  0.99712  0.74679  Biso   1.000  N
  C107     1.0000 0.57288  0.99693  0.78574  Biso   1.000  C
  H120     1.0000 0.21608  0.89941  0.62339  Biso   1.000  H
  H121     1.0000 0.25291  0.96070  0.60951  Biso   1.000  H
  C108     1.0000 0.30662  0.89795  0.64094  Biso   1.000  C
  C109     1.0000 0.59294  0.65970  0.72890  Biso   1.000  C
  H122     1.0000 0.58168  0.61170  0.78001  Biso   1.000  H
  H123     1.0000 0.58491  0.68670  0.78571  Biso   1.000  H
  C110     1.0000 0.64003  0.67668  0.54901  Biso   1.000  C
  C111     1.0000 0.63463  0.64788  0.48289  Biso   1.000  C
  H124     1.0000 0.62750  0.72510  0.44780  Biso   1.000  H
  C112     1.0000 0.45001  0.99404  0.77888  Biso   1.000  C
  C113     1.0000 0.53809  0.99428  0.81867  Biso   1.000  C
  H125     1.0000 0.61592  0.99801  0.78721  Biso   1.000  H
  H126     1.0000 0.31602  0.85241  0.63820  Biso   1.000  H
  H127     1.0000 0.34331  0.92169  0.63310  Biso   1.000  H
  N38      1.0000 0.29491  0.91109  0.68182  Biso   1.000  N
  N39      1.0000 0.58032  0.72165  0.71135  Biso   1.000  N
  H128     1.0000 0.63740  0.65308  0.72959  Biso   1.000  H
  H129     1.0000 0.57528  0.62622  0.71239  Biso   1.000  H
  C114     1.0000 0.64234  0.66027  0.59121  Biso   1.000  C
  C115     1.0000 0.63921  0.63000  0.52106  Biso   1.000  C
  H130     1.0000 0.63399  0.61690  0.46309  Biso   1.000  H
  C116     1.0000 0.38177  0.99239  0.77445  Biso   1.000  C
  C117     1.0000 0.47562  0.99262  0.81541  Biso   1.000  C
  H131     1.0000 0.55680  0.99362  0.84330  Biso   1.000  H
  C118     1.0000 0.24832  0.86924  0.69818  Biso   1.000  C
  C119     1.0000 0.28210  0.97815  0.68925  Biso   1.000  C
  C120     1.0000 0.61279  0.77376  0.73057  Biso   1.000  C
  C121     1.0000 0.59135  0.72122  0.66949  Biso   1.000  C
  N40      1.0000 0.65919  0.70718  0.61461  Biso   1.000  N
  O21      1.0000 0.62863  0.60692  0.60236  Biso   1.000  O
  H132     1.0000 0.64171  0.58659  0.52800  Biso   1.000  H
  N41      1.0000 0.36079  0.99357  0.73861  Biso   1.000  N
  O22      1.0000 0.34907  0.99021  0.80291  Biso   1.000  O
  H133     1.0000 0.45069  0.99059  0.83771  Biso   1.000  H
  H134     1.0000 0.21458  0.86480  0.67949  Biso   1.000  H
  H135     1.0000 0.23170  0.88868  0.72190  Biso   1.000  H
  C122     1.0000 0.27316  0.80389  0.70787  Biso   1.000  C
  H136     1.0000 0.23878  0.98671  0.68381  Biso   1.000  H
  C123     1.0000 0.29604  0.99697  0.73045  Biso   1.000  C
  H137     1.0000 0.30671  0.00440  0.67151  Biso   1.000  H
  C124     1.0000 0.57728  0.83557  0.73042  Biso   1.000  C
  H138     1.0000 0.65220  0.78048  0.71749  Biso   1.000  H
  H139     1.0000 0.62141  0.76152  0.75759  Biso   1.000  H
  H140     1.0000 0.58300  0.76421  0.65949  Biso   1.000  H
  H141     1.0000 0.56171  0.69219  0.65739  Biso   1.000  H
  C125     1.0000 0.65529  0.70165  0.65624  Biso   1.000  C
  H142     1.0000 0.67308  0.74250  0.60449  Biso   1.000  H
  H143     1.0000 0.38671  0.99229  0.71930  Biso   1.000  H
  H144     1.0000 0.23942  0.77641  0.71651  Biso   1.000  H
  H145     1.0000 0.29082  0.78478  0.68430  Biso   1.000  H
  N42      1.0000 0.31938  0.80611  0.73783  Biso   1.000  N
  H146     1.0000 0.27388  0.96860  0.74829  Biso   1.000  H
  H147     1.0000 0.28160  0.04072  0.73500  Biso   1.000  H
  N43      1.0000 0.52134  0.83226  0.75275  Biso   1.000  N
  H148     1.0000 0.60321  0.86962  0.74111  Biso   1.000  H
  H149     1.0000 0.56720  0.84692  0.70349  Biso   1.000  H
  H150     1.0000 0.68612  0.72931  0.66851  Biso   1.000  H
  H151     1.0000 0.66350  0.65748  0.66410  Biso   1.000  H
  H152     1.0000 0.35779  0.80228  0.73140  Biso   1.000  H
  C126     1.0000 0.30476  0.81377  0.77465  Biso   1.000  C
  C127     1.0000 0.52170  0.82905  0.79095  Biso   1.000  C
  H153     1.0000 0.48629  0.83240  0.74059  Biso   1.000  H
  O23      1.0000 0.25177  0.81557  0.78643  Biso   1.000  O
  C128     1.0000 0.35711  0.82025  0.80196  Biso   1.000  C
  C129     1.0000 0.45991  0.82739  0.80954  Biso   1.000  C
  O24      1.0000 0.56856  0.82744  0.81060  Biso   1.000  O
  N44      1.0000 0.41223  0.82101  0.78611  Biso   1.000  N
  C130     1.0000 0.34689  0.82578  0.84117  Biso   1.000  C
  C131     1.0000 0.45410  0.83349  0.84921  Biso   1.000  C
  H154     1.0000 0.30680  0.82488  0.85131  Biso   1.000  H
  C132     1.0000 0.39639  0.83269  0.86517  Biso   1.000  C
  H155     1.0000 0.48892  0.83808  0.86511  Biso   1.000  H
  H156     1.0000 0.39098  0.83680  0.89219  Biso   1.000  H
  C133     1.0000 0.60361  0.33269  0.63483  Biso   1.000  C
  C134     1.0000 0.54590  0.33349  0.65079  Biso   1.000  C
  C135     1.0000 0.65311  0.32578  0.65883  Biso   1.000  C
  H157     1.0000 0.60902  0.33680  0.60781  Biso   1.000  H
  H158     1.0000 0.51108  0.33808  0.63489  Biso   1.000  H
  C136     1.0000 0.54009  0.32739  0.69046  Biso   1.000  C
  C137     1.0000 0.64289  0.32025  0.69804  Biso   1.000  C
  H159     1.0000 0.69320  0.32488  0.64869  Biso   1.000  H
  N45      1.0000 0.58777  0.32101  0.71389  Biso   1.000  N
  C138     1.0000 0.47830  0.32905  0.70905  Biso   1.000  C
  C139     1.0000 0.69524  0.31377  0.72535  Biso   1.000  C
  O25      1.0000 0.43144  0.32744  0.68940  Biso   1.000  O
  N46      1.0000 0.47866  0.33226  0.74725  Biso   1.000  N
  O26      1.0000 0.74823  0.31557  0.71357  Biso   1.000  O
  N47      1.0000 0.68062  0.30611  0.76217  Biso   1.000  N
  H160     1.0000 0.51371  0.33240  0.75941  Biso   1.000  H
  C140     1.0000 0.42272  0.33557  0.76958  Biso   1.000  C
  C141     1.0000 0.72684  0.30389  0.79213  Biso   1.000  C
  H161     1.0000 0.64221  0.30228  0.76860  Biso   1.000  H
  H162     1.0000 0.39679  0.36962  0.75889  Biso   1.000  H
  H163     1.0000 0.43280  0.34692  0.79651  Biso   1.000  H
  C142     1.0000 0.38721  0.27376  0.76943  Biso   1.000  C
  C143     1.0000 0.75168  0.36924  0.80182  Biso   1.000  C
  H164     1.0000 0.76058  0.27641  0.78349  Biso   1.000  H
  H165     1.0000 0.70918  0.28478  0.81570  Biso   1.000  H
  N48      1.0000 0.41968  0.22165  0.78865  Biso   1.000  N
  H166     1.0000 0.34780  0.28048  0.78251  Biso   1.000  H
  H167     1.0000 0.37859  0.26152  0.74241  Biso   1.000  H
  N49      1.0000 0.70509  0.41109  0.81818  Biso   1.000  N
  H168     1.0000 0.78542  0.36480  0.82051  Biso   1.000  H
  H169     1.0000 0.76830  0.38868  0.77810  Biso   1.000  H
  C144     1.0000 0.40706  0.15970  0.77110  Biso   1.000  C
  C145     1.0000 0.40865  0.22122  0.83051  Biso   1.000  C
  C146     1.0000 0.69338  0.39795  0.85906  Biso   1.000  C
  C147     1.0000 0.71790  0.47815  0.81075  Biso   1.000  C
  H170     1.0000 0.36260  0.15308  0.77041  Biso   1.000  H
  H171     1.0000 0.42472  0.12622  0.78761  Biso   1.000  H
  C148     1.0000 0.43198  0.15261  0.73074  Biso   1.000  C
  H172     1.0000 0.41700  0.26421  0.84051  Biso   1.000  H
  H173     1.0000 0.43829  0.19219  0.84261  Biso   1.000  H
  C149     1.0000 0.34471  0.20165  0.84376  Biso   1.000  C
  C150     1.0000 0.74464  0.41426  0.88715  Biso   1.000  C
  H174     1.0000 0.68398  0.35241  0.86180  Biso   1.000  H
  H175     1.0000 0.65669  0.42169  0.86690  Biso   1.000  H
  H176     1.0000 0.76122  0.48671  0.81619  Biso   1.000  H
  H177     1.0000 0.69329  0.50440  0.82849  Biso   1.000  H
  C151     1.0000 0.70396  0.49697  0.76955  Biso   1.000  C
  H178     1.0000 0.41832  0.11170  0.71999  Biso   1.000  H
  H179     1.0000 0.41509  0.18670  0.71429  Biso   1.000  H
  N50      1.0000 0.49800  0.15535  0.72921  Biso   1.000  N
  H180     1.0000 0.31388  0.22931  0.83149  Biso   1.000  H
  H181     1.0000 0.33650  0.15748  0.83590  Biso   1.000  H
  N51      1.0000 0.34081  0.20718  0.88539  Biso   1.000  N
  N52      1.0000 0.73334  0.38428  0.92432  Biso   1.000  N
  H182     1.0000 0.78392  0.39941  0.87661  Biso   1.000  H
  H183     1.0000 0.74709  0.46070  0.89049  Biso   1.000  H
  H184     1.0000 0.71840  0.54072  0.76500  Biso   1.000  H
  H185     1.0000 0.72612  0.46860  0.75171  Biso   1.000  H
  N53      1.0000 0.63921  0.49357  0.76139  Biso   1.000  N
  H186     1.0000 0.51871  0.15871  0.75079  Biso   1.000  H
  C152     1.0000 0.52761  0.15289  0.69594  Biso   1.000  C
  H187     1.0000 0.32692  0.24250  0.89551  Biso   1.000  H
  C153     1.0000 0.35766  0.16027  0.90879  Biso   1.000  C
  C154     1.0000 0.71808  0.41563  0.95612  Biso   1.000  C
  H188     1.0000 0.73688  0.34290  0.92581  Biso   1.000  H
  H189     1.0000 0.61329  0.49229  0.78070  Biso   1.000  H
  C155     1.0000 0.61823  0.49239  0.72555  Biso   1.000  C
  O27      1.0000 0.50254  0.14963  0.66407  Biso   1.000  O
  C156     1.0000 0.59580  0.15284  0.69948  Biso   1.000  C
  O28      1.0000 0.37137  0.10692  0.89764  Biso   1.000  O
  C157     1.0000 0.35997  0.17668  0.95099  Biso   1.000  C
  O29      1.0000 0.71141  0.47371  0.95799  Biso   1.000  O
  C158     1.0000 0.70991  0.37544  0.99141  Biso   1.000  C
  O30      1.0000 0.65093  0.49021  0.69709  Biso   1.000  O
  C159     1.0000 0.54999  0.49404  0.72112  Biso   1.000  C
  N54      1.0000 0.61828  0.15123  0.73518  Biso   1.000  N
  C160     1.0000 0.63190  0.15237  0.66675  Biso   1.000  C
  N55      1.0000 0.36342  0.23858  0.95935  Biso   1.000  N
  C161     1.0000 0.36079  0.13000  0.97894  Biso   1.000  C
  N56      1.0000 0.70618  0.31249  0.98643  Biso   1.000  N
  C162     1.0000 0.70750  0.40395  0.02734  Biso   1.000  C
  N57      1.0000 0.51707  0.49712  0.75321  Biso   1.000  N
  C163     1.0000 0.52438  0.49262  0.68459  Biso   1.000  C
  C164     1.0000 0.67844  0.14911  0.73938  Biso   1.000  C
  H190     1.0000 0.61442  0.15412  0.64180  Biso   1.000  H
  C165     1.0000 0.69415  0.14934  0.67156  Biso   1.000  C
  C166     1.0000 0.36764  0.25546  0.99640  Biso   1.000  C
  H191     1.0000 0.35829  0.08659  0.97200  Biso   1.000  H
  C167     1.0000 0.36537  0.14788  0.01711  Biso   1.000  C
  C168     1.0000 0.69942  0.27651  0.01783  Biso   1.000  C
  C169     1.0000 0.70046  0.36603  0.05946  Biso   1.000  C
  H192     1.0000 0.71059  0.44860  0.02979  Biso   1.000  H
  C170     1.0000 0.45646  0.49797  0.74967  Biso   1.000  C
  H193     1.0000 0.54931  0.49059  0.66229  Biso   1.000  H
  C171     1.0000 0.46191  0.49428  0.68133  Biso   1.000  C
  C172     1.0000 0.71776  0.14731  0.70835  Biso   1.000  C
  C173     1.0000 0.70355  0.14939  0.77986  Biso   1.000  C
  H194     1.0000 0.72031  0.14859  0.64981  Biso   1.000  H
  C174     1.0000 0.36905  0.21167  0.02616  Biso   1.000  C
  C175     1.0000 0.37377  0.32536  0.00458  Biso   1.000  C
  H195     1.0000 0.36601  0.11690  0.03691  Biso   1.000  H
  C176     1.0000 0.69565  0.20609  0.01216  Biso   1.000  C
  C177     1.0000 0.69610  0.30133  0.05488  Biso   1.000  C
  H196     1.0000 0.69869  0.38428  0.08441  Biso   1.000  H
  C178     1.0000 0.42712  0.49693  0.71426  Biso   1.000  C
  C179     1.0000 0.42009  0.49849  0.78629  Biso   1.000  C
  H197     1.0000 0.44320  0.49362  0.65670  Biso   1.000  H
  H198     1.0000 0.76040  0.14471  0.71230  Biso   1.000  H
  O31      1.0000 0.75872  0.14651  0.78548  Biso   1.000  O
  N58      1.0000 0.66164  0.15336  0.80755  Biso   1.000  N
  H199     1.0000 0.37250  0.22510  0.05220  Biso   1.000  H
  N59      1.0000 0.36674  0.36295  0.97419  Biso   1.000  N
  O32      1.0000 0.38553  0.34371  0.03757  Biso   1.000  O
  N60      1.0000 0.71427  0.18358  0.97836  Biso   1.000  N
  O33      1.0000 0.67590  0.17223  0.03817  Biso   1.000  O
  H200     1.0000 0.69102  0.27438  0.07661  Biso   1.000  H
  H201     1.0000 0.38408  0.49801  0.71279  Biso   1.000  H
  O34      1.0000 0.36406  0.49593  0.78528  Biso   1.000  O
  N61      1.0000 0.45319  0.50170  0.81824  Biso   1.000  N
  H202     1.0000 0.62309  0.15322  0.80089  Biso   1.000  H
  C180     1.0000 0.67694  0.15781  0.84808  Biso   1.000  C
  H203     1.0000 0.35520  0.34579  0.95229  Biso   1.000  H
  C181     1.0000 0.37722  0.43119  0.97519  Biso   1.000  C
  C182     1.0000 0.71545  0.11600  0.96955  Biso   1.000  C
  H204     1.0000 0.72639  0.21049  0.96059  Biso   1.000  H
  H205     1.0000 0.49278  0.50501  0.81541  Biso   1.000  H
  C183     1.0000 0.42994  0.50028  0.85719  Biso   1.000  C
  H206     1.0000 0.67000  0.20150  0.85719  Biso   1.000  H
  H207     1.0000 0.72040  0.14769  0.85180  Biso   1.000  H
  C184     1.0000 0.63821  0.11208  0.87142  Biso   1.000  C
  H208     1.0000 0.41291  0.44041  0.99159  Biso   1.000  H
  H209     1.0000 0.34149  0.45252  0.98660  Biso   1.000  H
  C185     1.0000 0.38826  0.45687  0.93498  Biso   1.000  C
  C186     1.0000 0.70246  0.10148  0.92743  Biso   1.000  C
  H210     1.0000 0.68489  0.09420  0.98571  Biso   1.000  H
  H211     1.0000 0.75581  0.09879  0.97640  Biso   1.000  H
  H212     1.0000 0.38531  0.50620  0.85690  Biso   1.000  H
  H213     1.0000 0.44810  0.53509  0.87240  Biso   1.000  H
  C187     1.0000 0.44574  0.43630  0.87580  Biso   1.000  C
  H214     1.0000 0.59540  0.11671  0.86330  Biso   1.000  H
  H215     1.0000 0.65102  0.06829  0.86531  Biso   1.000  H
  N62      1.0000 0.64189  0.12125  0.91351  Biso   1.000  N
  H216     1.0000 0.35439  0.44382  0.91801  Biso   1.000  H
  H217     1.0000 0.38862  0.50359  0.93601  Biso   1.000  H
  N63      1.0000 0.44638  0.43450  0.91818  Biso   1.000  N
  H218     1.0000 0.73370  0.12258  0.91150  Biso   1.000  H
  H219     1.0000 0.70668  0.05538  0.92339  Biso   1.000  H
  H220     1.0000 0.41609  0.40452  0.86661  Biso   1.000  H
  H221     1.0000 0.48629  0.42320  0.86641  Biso   1.000  H
  C188     1.0000 0.59376  0.08238  0.93163  Biso   1.000  C
  C189     1.0000 0.49896  0.46884  0.93408  Biso   1.000  C
  C190     1.0000 0.53174  0.11406  0.93143  Biso   1.000  C
  H222     1.0000 0.60552  0.07321  0.95860  Biso   1.000  H
  H223     1.0000 0.59090  0.04152  0.91780  Biso   1.000  H
  H224     1.0000 0.48992  0.48132  0.96099  Biso   1.000  H
  H225     1.0000 0.50540  0.50799  0.91899  Biso   1.000  H
  C191     1.0000 0.55703  0.42977  0.93348  Biso   1.000  C
  N64      1.0000 0.52883  0.16703  0.95837  Biso   1.000  N
  H226     1.0000 0.52279  0.12948  0.90510  Biso   1.000  H
  H227     1.0000 0.50041  0.08262  0.93840  Biso   1.000  H
  H228     1.0000 0.56452  0.41459  0.90689  Biso   1.000  H
  H229     1.0000 0.59158  0.45692  0.94111  Biso   1.000  H
  N65      1.0000 0.55362  0.37577  0.95938  Biso   1.000  N
  C192     1.0000 0.51943  0.15875  0.99585  Biso   1.000  C
  H230     1.0000 0.53351  0.20571  0.94950  Biso   1.000  H
  H231     1.0000 0.55031  0.33751  0.94970  Biso   1.000  H
  C193     1.0000 0.55548  0.38338  0.99761  Biso   1.000  C
  O35      1.0000 0.50831  0.10702  0.01060  Biso   1.000  O
  C194     1.0000 0.52293  0.21815  0.01959  Biso   1.000  C
  O36      1.0000 0.56715  0.43370  0.01366  Biso   1.000  O
  C195     1.0000 0.54127  0.32479  0.02040  Biso   1.000  C
  N66      1.0000 0.53714  0.27102  0.00043  Biso   1.000  N
  C196     1.0000 0.51162  0.21725  0.05883  Biso   1.000  C
  C197     1.0000 0.53128  0.32824  0.05981  Biso   1.000  C
  C198     1.0000 0.51571  0.27339  0.07917  Biso   1.000  C
  H232     1.0000 0.50132  0.17890  0.07151  Biso   1.000  H
  H233     1.0000 0.53501  0.36730  0.07309  Biso   1.000  H
  H234     1.0000 0.50790  0.27428  0.10611  Biso   1.000  H
  C199     1.0000 0.39639  0.66731  0.36517  Biso   1.000  C
  C200     1.0000 0.34689  0.67422  0.34117  Biso   1.000  C
  C201     1.0000 0.45410  0.66651  0.34921  Biso   1.000  C
  H235     1.0000 0.39098  0.66320  0.39219  Biso   1.000  H
  C202     1.0000 0.35711  0.67975  0.30196  Biso   1.000  C
  H236     1.0000 0.30680  0.67512  0.35131  Biso   1.000  H
  C203     1.0000 0.45991  0.67261  0.30954  Biso   1.000  C
  H237     1.0000 0.48892  0.66192  0.36511  Biso   1.000  H
  C204     1.0000 0.30476  0.68623  0.27465  Biso   1.000  C
  N67      1.0000 0.41223  0.67899  0.28611  Biso   1.000  N
  C205     1.0000 0.52170  0.67095  0.29095  Biso   1.000  C
  N68      1.0000 0.31938  0.69389  0.23783  Biso   1.000  N
  O37      1.0000 0.25177  0.68443  0.28643  Biso   1.000  O
  O38      1.0000 0.56856  0.67256  0.31060  Biso   1.000  O
  N69      1.0000 0.52134  0.66774  0.25275  Biso   1.000  N
  C206     1.0000 0.27316  0.69611  0.20787  Biso   1.000  C
  H238     1.0000 0.35779  0.69772  0.23140  Biso   1.000  H
  H239     1.0000 0.48629  0.66760  0.24059  Biso   1.000  H
  C207     1.0000 0.57728  0.66443  0.23042  Biso   1.000  C
  C208     1.0000 0.24832  0.63076  0.19818  Biso   1.000  C
  H240     1.0000 0.23942  0.72359  0.21651  Biso   1.000  H
  H241     1.0000 0.29082  0.71522  0.18430  Biso   1.000  H
  H242     1.0000 0.60321  0.63038  0.24111  Biso   1.000  H
  H243     1.0000 0.56720  0.65308  0.20349  Biso   1.000  H
  C209     1.0000 0.61279  0.72624  0.23057  Biso   1.000  C
  N70      1.0000 0.29491  0.58891  0.18182  Biso   1.000  N
  H244     1.0000 0.21458  0.63520  0.17949  Biso   1.000  H
  H245     1.0000 0.23170  0.61132  0.22190  Biso   1.000  H
  N71      1.0000 0.58032  0.77835  0.21135  Biso   1.000  N
  H246     1.0000 0.65220  0.71952  0.21749  Biso   1.000  H
  H247     1.0000 0.62141  0.73848  0.25759  Biso   1.000  H
  C210     1.0000 0.28210  0.52185  0.18925  Biso   1.000  C
  C211     1.0000 0.30662  0.60205  0.14094  Biso   1.000  C
  C212     1.0000 0.59294  0.84030  0.22890  Biso   1.000  C
  C213     1.0000 0.59135  0.77878  0.16949  Biso   1.000  C
  C214     1.0000 0.29604  0.50303  0.23045  Biso   1.000  C
  H248     1.0000 0.23878  0.51329  0.18381  Biso   1.000  H
  H249     1.0000 0.30671  0.49560  0.17151  Biso   1.000  H
  C215     1.0000 0.25536  0.58574  0.11285  Biso   1.000  C
  H250     1.0000 0.31602  0.64759  0.13820  Biso   1.000  H
  H251     1.0000 0.34331  0.57831  0.13310  Biso   1.000  H
  H252     1.0000 0.63740  0.84692  0.22959  Biso   1.000  H
  H253     1.0000 0.57528  0.87378  0.21239  Biso   1.000  H
  C216     1.0000 0.56802  0.84739  0.26926  Biso   1.000  C
  H254     1.0000 0.58300  0.73579  0.15949  Biso   1.000  H
  H255     1.0000 0.56171  0.80781  0.15739  Biso   1.000  H
  C217     1.0000 0.65529  0.79835  0.15624  Biso   1.000  C
  H256     1.0000 0.28160  0.45928  0.23500  Biso   1.000  H
  H257     1.0000 0.27388  0.53140  0.24829  Biso   1.000  H
  N72      1.0000 0.36079  0.50643  0.23861  Biso   1.000  N
  N73      1.0000 0.26666  0.61572  0.07568  Biso   1.000  N
  H258     1.0000 0.21608  0.60059  0.12339  Biso   1.000  H
  H259     1.0000 0.25291  0.53930  0.10951  Biso   1.000  H
  H260     1.0000 0.58168  0.88830  0.28001  Biso   1.000  H
  H261     1.0000 0.58491  0.81330  0.28571  Biso   1.000  H
  N74      1.0000 0.50200  0.84465  0.27079  Biso   1.000  N
  H262     1.0000 0.68612  0.77069  0.16851  Biso   1.000  H
  H263     1.0000 0.66350  0.84252  0.16410  Biso   1.000  H
  N75      1.0000 0.65919  0.79282  0.11461  Biso   1.000  N
  H264     1.0000 0.38671  0.50771  0.21930  Biso   1.000  H
  C218     1.0000 0.38177  0.50761  0.27445  Biso   1.000  C
  C219     1.0000 0.28192  0.58437  0.04388  Biso   1.000  C
  H265     1.0000 0.26312  0.65710  0.07419  Biso   1.000  H
  H266     1.0000 0.48129  0.84129  0.24921  Biso   1.000  H
  C220     1.0000 0.47239  0.84711  0.30406  Biso   1.000  C
  H267     1.0000 0.67308  0.75750  0.10449  Biso   1.000  H
  C221     1.0000 0.64234  0.83973  0.09121  Biso   1.000  C
  O39      1.0000 0.34907  0.50979  0.30291  Biso   1.000  O
  C222     1.0000 0.45001  0.50596  0.27888  Biso   1.000  C
  O40      1.0000 0.28859  0.52629  0.04201  Biso   1.000  O
  C223     1.0000 0.29009  0.62456  0.00859  Biso   1.000  C
  O41      1.0000 0.49746  0.85037  0.33593  Biso   1.000  O
  C224     1.0000 0.40420  0.84716  0.30052  Biso   1.000  C
  C225     1.0000 0.64003  0.82332  0.04901  Biso   1.000  C
  O42      1.0000 0.62863  0.89308  0.10236  Biso   1.000  O
  N76      1.0000 0.48293  0.50288  0.24679  Biso   1.000  N
  C226     1.0000 0.47562  0.50738  0.31541  Biso   1.000  C
  N77      1.0000 0.29382  0.68751  0.01357  Biso   1.000  N
  C227     1.0000 0.29250  0.59605  0.97266  Biso   1.000  C
  N78      1.0000 0.38172  0.84877  0.26482  Biso   1.000  N
  C228     1.0000 0.36810  0.84763  0.33325  Biso   1.000  C
  N79      1.0000 0.63658  0.76142  0.04065  Biso   1.000  N
  C229     1.0000 0.63921  0.87000  0.02106  Biso   1.000  C
  C230     1.0000 0.54354  0.50203  0.25033  Biso   1.000  C
  H268     1.0000 0.45069  0.50941  0.33771  Biso   1.000  H
  C231     1.0000 0.53809  0.50572  0.31867  Biso   1.000  C
  C232     1.0000 0.30058  0.72349  0.98217  Biso   1.000  C
  C233     1.0000 0.29954  0.63397  0.94054  Biso   1.000  C
  H269     1.0000 0.28941  0.55140  0.97021  Biso   1.000  H
  C234     1.0000 0.32156  0.85089  0.26062  Biso   1.000  C
  C235     1.0000 0.30585  0.85066  0.32844  Biso   1.000  C
  H270     1.0000 0.38558  0.84588  0.35820  Biso   1.000  H
  C236     1.0000 0.63236  0.74454  0.00360  Biso   1.000  C
  C237     1.0000 0.63463  0.85212  0.98289  Biso   1.000  C
  H271     1.0000 0.64171  0.91341  0.02800  Biso   1.000  H
  C238     1.0000 0.57288  0.50307  0.28574  Biso   1.000  C
  C239     1.0000 0.57991  0.50151  0.21371  Biso   1.000  C
  H272     1.0000 0.55680  0.50638  0.34330  Biso   1.000  H
  C240     1.0000 0.30435  0.79391  0.98784  Biso   1.000  C
  C241     1.0000 0.30390  0.69867  0.94512  Biso   1.000  C
  H273     1.0000 0.30131  0.61572  0.91559  Biso   1.000  H
  C242     1.0000 0.29645  0.85061  0.22014  Biso   1.000  C
  C243     1.0000 0.28224  0.85269  0.29165  Biso   1.000  C
  H274     1.0000 0.27969  0.85141  0.35019  Biso   1.000  H
  C244     1.0000 0.62623  0.67464  0.99542  Biso   1.000  C
  C245     1.0000 0.63095  0.78833  0.97384  Biso   1.000  C
  H275     1.0000 0.63399  0.88310  0.96309  Biso   1.000  H
  H276     1.0000 0.61592  0.50199  0.28721  Biso   1.000  H
  O43      1.0000 0.63594  0.50407  0.21472  Biso   1.000  O
  N80      1.0000 0.54681  0.49830  0.18176  Biso   1.000  N
  N81      1.0000 0.28573  0.81642  0.02164  Biso   1.000  N
  O44      1.0000 0.32410  0.82777  0.96183  Biso   1.000  O
  H277     1.0000 0.30898  0.72562  0.92339  Biso   1.000  H
  N82      1.0000 0.33836  0.84664  0.19245  Biso   1.000  N
  O45      1.0000 0.24128  0.85349  0.21452  Biso   1.000  O
  H278     1.0000 0.23960  0.85529  0.28770  Biso   1.000  H
  N83      1.0000 0.63326  0.63705  0.02581  Biso   1.000  N
  O46      1.0000 0.61447  0.65629  0.96243  Biso   1.000  O
  H279     1.0000 0.62750  0.77490  0.94780  Biso   1.000  H
  H280     1.0000 0.50722  0.49499  0.18459  Biso   1.000  H
  C246     1.0000 0.57006  0.49972  0.14281  Biso   1.000  C
  C247     1.0000 0.28455  0.88400  0.03045  Biso   1.000  C
  H281     1.0000 0.27361  0.78951  0.03941  Biso   1.000  H
  C248     1.0000 0.32306  0.84219  0.15192  Biso   1.000  C
  H282     1.0000 0.37691  0.84678  0.19911  Biso   1.000  H
  C249     1.0000 0.62278  0.56881  0.02481  Biso   1.000  C
  H283     1.0000 0.64480  0.65421  0.04771  Biso   1.000  H
  H284     1.0000 0.61469  0.49380  0.14310  Biso   1.000  H
  H285     1.0000 0.55190  0.46491  0.12760  Biso   1.000  H
  C250     1.0000 0.55426  0.56370  0.12420  Biso   1.000  C
  C251     1.0000 0.29754  0.89852  0.07257  Biso   1.000  C
  H286     1.0000 0.31511  0.90580  0.01429  Biso   1.000  H
  H287     1.0000 0.24419  0.90121  0.02360  Biso   1.000  H
  C252     1.0000 0.36179  0.88792  0.12858  Biso   1.000  C
  H288     1.0000 0.33000  0.79850  0.14281  Biso   1.000  H
  H289     1.0000 0.27960  0.85231  0.14820  Biso   1.000  H
  C253     1.0000 0.61174  0.54313  0.06502  Biso   1.000  C
  H290     1.0000 0.58709  0.55959  0.00841  Biso   1.000  H
  H291     1.0000 0.65851  0.54748  0.01340  Biso   1.000  H
  N84      1.0000 0.55362  0.56550  0.08182  Biso   1.000  N
  H292     1.0000 0.58391  0.59548  0.13339  Biso   1.000  H
  H293     1.0000 0.51371  0.57680  0.13359  Biso   1.000  H
  N85      1.0000 0.35811  0.87875  0.08649  Biso   1.000  N
  H294     1.0000 0.26630  0.87742  0.08850  Biso   1.000  H
  H295     1.0000 0.29332  0.94462  0.07661  Biso   1.000  H
  H296     1.0000 0.40460  0.88329  0.13670  Biso   1.000  H
  H297     1.0000 0.34898  0.93171  0.13469  Biso   1.000  H
  H298     1.0000 0.64561  0.55618  0.08199  Biso   1.000  H
  H299     1.0000 0.61138  0.49641  0.06399  Biso   1.000  H
  C254     1.0000 0.50104  0.53116  0.06592  Biso   1.000  C
  C255     1.0000 0.40624  0.91762  0.06837  Biso   1.000  C
  H300     1.0000 0.51008  0.51868  0.03901  Biso   1.000  H
  H301     1.0000 0.49460  0.49201  0.08101  Biso   1.000  H
  C256     1.0000 0.44297  0.57023  0.06652  Biso   1.000  C
  C257     1.0000 0.46826  0.88594  0.06857  Biso   1.000  C
  H302     1.0000 0.39448  0.92679  0.04140  Biso   1.000  H
  H303     1.0000 0.40910  0.95848  0.08220  Biso   1.000  H
  H304     1.0000 0.43548  0.58541  0.09311  Biso   1.000  H
  H305     1.0000 0.40842  0.54308  0.05889  Biso   1.000  H
  N86      1.0000 0.44638  0.62423  0.04062  Biso   1.000  N
  N87      1.0000 0.47117  0.83297  0.04163  Biso   1.000  N
  H306     1.0000 0.47721  0.87052  0.09490  Biso   1.000  H
  H307     1.0000 0.49959  0.91738  0.06160  Biso   1.000  H
  H308     1.0000 0.44969  0.66249  0.05030  Biso   1.000  H
  C258     1.0000 0.44452  0.61662  0.00239  Biso   1.000  C
  C259     1.0000 0.48057  0.84125  0.00415  Biso   1.000  C
  H309     1.0000 0.46649  0.79429  0.05050  Biso   1.000  H
  O47      1.0000 0.43285  0.56630  0.98634  Biso   1.000  O
  C260     1.0000 0.45873  0.67521  0.97960  Biso   1.000  C
  C261     1.0000 0.47707  0.78185  0.98041  Biso   1.000  C
  O48      1.0000 0.49169  0.89298  0.98940  Biso   1.000  O
  N88      1.0000 0.46286  0.72898  0.99957  Biso   1.000  N
  C262     1.0000 0.46872  0.67176  0.94019  Biso   1.000  C
  C263     1.0000 0.48838  0.78275  0.94117  Biso   1.000  C
  H310     1.0000 0.46499  0.63270  0.92691  Biso   1.000  H
  C264     1.0000 0.48429  0.72661  0.92083  Biso   1.000  C
  H311     1.0000 0.49868  0.82110  0.92849  Biso   1.000  H
  H312     1.0000 0.49210  0.72572  0.89389  Biso   1.000  H
  O49      1.0000 0.78859  0.52629  0.45799  Biso   1.000  O
  C265     1.0000 0.78192  0.58437  0.45612  Biso   1.000  C
  N89      1.0000 0.76666  0.61572  0.42432  Biso   1.000  N
  C266     1.0000 0.79009  0.62456  0.49141  Biso   1.000  C
  C267     1.0000 0.75536  0.58574  0.38715  Biso   1.000  C
  H313     1.0000 0.76312  0.65710  0.42581  Biso   1.000  H
  N90      1.0000 0.79382  0.68751  0.48643  Biso   1.000  N
  C268     1.0000 0.79250  0.59605  0.52734  Biso   1.000  C
  C269     1.0000 0.80662  0.60205  0.35906  Biso   1.000  C
  H314     1.0000 0.71608  0.60059  0.37661  Biso   1.000  H
  H315     1.0000 0.75291  0.53930  0.39049  Biso   1.000  H
  C270     1.0000 0.80058  0.72349  0.51783  Biso   1.000  C
  C271     1.0000 0.79954  0.63397  0.55946  Biso   1.000  C
  H316     1.0000 0.78941  0.55140  0.52979  Biso   1.000  H
  N91      1.0000 0.79491  0.58891  0.31818  Biso   1.000  N
  H317     1.0000 0.81602  0.64759  0.36180  Biso   1.000  H
  H318     1.0000 0.84331  0.57831  0.36690  Biso   1.000  H
  C272     1.0000 0.80435  0.79391  0.51216  Biso   1.000  C
  C273     1.0000 0.80390  0.69867  0.55488  Biso   1.000  C
  H319     1.0000 0.80131  0.61572  0.58441  Biso   1.000  H
  C274     1.0000 0.78210  0.52185  0.31075  Biso   1.000  C
  C275     1.0000 0.74832  0.63076  0.30182  Biso   1.000  C
  O50      1.0000 0.82410  0.82777  0.53817  Biso   1.000  O
  N92      1.0000 0.78573  0.81642  0.47836  Biso   1.000  N
  H320     1.0000 0.80898  0.72562  0.57661  Biso   1.000  H
  C276     1.0000 0.79604  0.50303  0.26955  Biso   1.000  C
  H321     1.0000 0.73878  0.51329  0.31619  Biso   1.000  H
  H322     1.0000 0.80671  0.49560  0.32849  Biso   1.000  H
  H323     1.0000 0.71458  0.63520  0.32051  Biso   1.000  H
  H324     1.0000 0.73170  0.61132  0.27810  Biso   1.000  H
  C277     1.0000 0.77316  0.69611  0.29213  Biso   1.000  C
  C278     1.0000 0.78455  0.88400  0.46955  Biso   1.000  C
  H325     1.0000 0.77361  0.78951  0.46059  Biso   1.000  H
  H326     1.0000 0.78160  0.45928  0.26500  Biso   1.000  H
  H327     1.0000 0.77388  0.53140  0.25171  Biso   1.000  H
  N93      1.0000 0.86079  0.50643  0.26139  Biso   1.000  N
  H328     1.0000 0.73942  0.72359  0.28349  Biso   1.000  H
  H329     1.0000 0.79082  0.71522  0.31570  Biso   1.000  H
  N94      1.0000 0.81938  0.69389  0.26217  Biso   1.000  N
  C279     1.0000 0.79754  0.89852  0.42743  Biso   1.000  C
  H330     1.0000 0.81511  0.90580  0.48571  Biso   1.000  H
  H331     1.0000 0.74419  0.90121  0.47640  Biso   1.000  H
  H332     1.0000 0.88671  0.50771  0.28070  Biso   1.000  H
  C280     1.0000 0.88177  0.50761  0.22555  Biso   1.000  C
  H333     1.0000 0.85779  0.69772  0.26860  Biso   1.000  H
  C281     1.0000 0.80476  0.68623  0.22535  Biso   1.000  C
  N95      1.0000 0.85811  0.87875  0.41351  Biso   1.000  N
  H334     1.0000 0.76630  0.87742  0.41150  Biso   1.000  H
  H335     1.0000 0.79332  0.94462  0.42339  Biso   1.000  H
  O51      1.0000 0.84907  0.50979  0.19709  Biso   1.000  O
  C282     1.0000 0.95001  0.50596  0.22112  Biso   1.000  C
  O52      1.0000 0.75177  0.68443  0.21357  Biso   1.000  O
  C283     1.0000 0.85711  0.67975  0.19804  Biso   1.000  C
  C284     1.0000 0.86179  0.88792  0.37142  Biso   1.000  C
  C285     1.0000 0.90624  0.91762  0.43163  Biso   1.000  C
  N96      1.0000 0.98293  0.50288  0.25321  Biso   1.000  N
  C286     1.0000 0.97562  0.50738  0.18459  Biso   1.000  C
  N97      1.0000 0.91223  0.67899  0.21389  Biso   1.000  N
  C287     1.0000 0.84689  0.67422  0.15883  Biso   1.000  C
  C288     1.0000 0.82306  0.84219  0.34808  Biso   1.000  C
  H336     1.0000 0.90460  0.88329  0.36330  Biso   1.000  H
  H337     1.0000 0.84898  0.93171  0.36531  Biso   1.000  H
  C289     1.0000 0.96826  0.88594  0.43143  Biso   1.000  C
  H338     1.0000 0.89448  0.92679  0.45860  Biso   1.000  H
  H339     1.0000 0.90910  0.95848  0.41780  Biso   1.000  H
  C290     1.0000 0.04354  0.50203  0.24967  Biso   1.000  C
  H340     1.0000 0.95069  0.50941  0.16229  Biso   1.000  H
  C291     1.0000 0.03809  0.50572  0.18133  Biso   1.000  C
  C292     1.0000 0.95991  0.67261  0.19046  Biso   1.000  C
  H341     1.0000 0.80680  0.67512  0.14869  Biso   1.000  H
  C293     1.0000 0.89639  0.66731  0.13483  Biso   1.000  C
  N98      1.0000 0.83836  0.84664  0.30755  Biso   1.000  N
  H342     1.0000 0.83000  0.79850  0.35719  Biso   1.000  H
  H343     1.0000 0.77960  0.85231  0.35180  Biso   1.000  H
  N99      1.0000 0.97117  0.83297  0.45837  Biso   1.000  N
  H344     1.0000 0.97721  0.87052  0.40510  Biso   1.000  H
  H345     1.0000 0.99959  0.91738  0.43840  Biso   1.000  H
  C294     1.0000 0.07288  0.50307  0.21426  Biso   1.000  C
  C295     1.0000 0.07991  0.50151  0.28629  Biso   1.000  C
  H346     1.0000 0.05680  0.50638  0.15670  Biso   1.000  H
  C296     1.0000 0.95410  0.66651  0.15079  Biso   1.000  C
  C297     1.0000 0.02170  0.67095  0.20905  Biso   1.000  C
  H347     1.0000 0.89098  0.66320  0.10781  Biso   1.000  H
  C298     1.0000 0.79645  0.85061  0.27986  Biso   1.000  C
  H348     1.0000 0.87691  0.84678  0.30089  Biso   1.000  H
  C299     1.0000 0.98057  0.84125  0.49585  Biso   1.000  C
  H349     1.0000 0.96649  0.79429  0.44950  Biso   1.000  H
  H350     1.0000 0.11592  0.50199  0.21279  Biso   1.000  H
  O53      1.0000 0.13594  0.50407  0.28528  Biso   1.000  O
  N100     1.0000 0.04681  0.49830  0.31824  Biso   1.000  N
  H351     1.0000 0.98892  0.66192  0.13489  Biso   1.000  H
  O54      1.0000 0.06856  0.67256  0.18940  Biso   1.000  O
  N101     1.0000 0.02134  0.66774  0.24725  Biso   1.000  N
  O55      1.0000 0.74128  0.85349  0.28548  Biso   1.000  O
  C300     1.0000 0.82156  0.85089  0.23938  Biso   1.000  C
  C301     1.0000 0.97707  0.78185  0.51959  Biso   1.000  C
  O56      1.0000 0.99169  0.89298  0.51060  Biso   1.000  O
  H352     1.0000 0.00722  0.49499  0.31541  Biso   1.000  H
  C302     1.0000 0.07006  0.49972  0.35719  Biso   1.000  C
  H353     1.0000 0.98629  0.66760  0.25941  Biso   1.000  H
  C303     1.0000 0.07728  0.66443  0.26958  Biso   1.000  C
  N102     1.0000 0.88172  0.84877  0.23518  Biso   1.000  N
  C304     1.0000 0.78224  0.85269  0.20835  Biso   1.000  C
  N103     1.0000 0.96286  0.72898  0.50043  Biso   1.000  N
  C305     1.0000 0.98838  0.78275  0.55883  Biso   1.000  C
  H354     1.0000 0.11469  0.49380  0.35690  Biso   1.000  H
  H355     1.0000 0.05190  0.46491  0.37240  Biso   1.000  H
  C306     1.0000 0.05426  0.56370  0.37580  Biso   1.000  C
  H356     1.0000 0.10321  0.63038  0.25889  Biso   1.000  H
  H357     1.0000 0.06720  0.65308  0.29651  Biso   1.000  H
  C307     1.0000 0.11279  0.72624  0.26943  Biso   1.000  C
  C308     1.0000 0.90420  0.84716  0.19948  Biso   1.000  C
  C309     1.0000 0.80585  0.85066  0.17156  Biso   1.000  C
  H358     1.0000 0.73960  0.85529  0.21230  Biso   1.000  H
  C310     1.0000 0.95873  0.67521  0.52040  Biso   1.000  C
  C311     1.0000 0.98429  0.72661  0.57917  Biso   1.000  C
  H359     1.0000 0.99868  0.82110  0.57151  Biso   1.000  H
  N104     1.0000 0.05362  0.56550  0.41818  Biso   1.000  N
  H360     1.0000 0.08391  0.59548  0.36661  Biso   1.000  H
  H361     1.0000 0.01371  0.57680  0.36641  Biso   1.000  H
  N105     1.0000 0.08032  0.77835  0.28865  Biso   1.000  N
  H362     1.0000 0.15220  0.71952  0.28251  Biso   1.000  H
  H363     1.0000 0.12141  0.73848  0.24241  Biso   1.000  H
  C312     1.0000 0.97239  0.84711  0.19594  Biso   1.000  C
  C313     1.0000 0.86810  0.84763  0.16675  Biso   1.000  C
  H364     1.0000 0.77969  0.85141  0.14981  Biso   1.000  H
  C314     1.0000 0.94452  0.61662  0.49761  Biso   1.000  C
  C315     1.0000 0.96872  0.67176  0.55981  Biso   1.000  C
  H365     1.0000 0.99210  0.72572  0.60611  Biso   1.000  H
  C316     1.0000 0.11174  0.54313  0.43498  Biso   1.000  C
  C317     1.0000 0.00104  0.53116  0.43408  Biso   1.000  C
  C318     1.0000 0.09294  0.84030  0.27110  Biso   1.000  C
  C319     1.0000 0.09135  0.77878  0.33051  Biso   1.000  C
  N106     1.0000 0.00200  0.84465  0.22921  Biso   1.000  N
  O57      1.0000 0.99746  0.85037  0.16407  Biso   1.000  O
  H366     1.0000 0.88558  0.84588  0.14180  Biso   1.000  H
  N107     1.0000 0.94638  0.62423  0.45938  Biso   1.000  N
  O58      1.0000 0.93285  0.56630  0.51366  Biso   1.000  O
  H367     1.0000 0.96499  0.63270  0.57309  Biso   1.000  H
  C320     1.0000 0.12278  0.56881  0.47519  Biso   1.000  C
  H368     1.0000 0.14561  0.55618  0.41801  Biso   1.000  H
  H369     1.0000 0.11138  0.49641  0.43601  Biso   1.000  H
  H370     1.0000 0.99460  0.49201  0.41899  Biso   1.000  H
  C321     1.0000 0.94297  0.57023  0.43348  Biso   1.000  C
  H371     1.0000 0.01008  0.51868  0.46099  Biso   1.000  H
  H372     1.0000 0.13740  0.84692  0.27041  Biso   1.000  H
  H373     1.0000 0.07528  0.87378  0.28761  Biso   1.000  H
  C322     1.0000 0.06802  0.84739  0.23074  Biso   1.000  C
  H374     1.0000 0.08300  0.73579  0.34051  Biso   1.000  H
  H375     1.0000 0.06171  0.80781  0.34261  Biso   1.000  H
  C323     1.0000 0.15529  0.79835  0.34376  Biso   1.000  C
  H376     1.0000 0.98129  0.84129  0.25079  Biso   1.000  H
  H377     1.0000 0.94969  0.66249  0.44970  Biso   1.000  H
  N108     1.0000 0.13326  0.63705  0.47419  Biso   1.000  N
  H378     1.0000 0.08709  0.55959  0.49159  Biso   1.000  H
  H379     1.0000 0.15851  0.54748  0.48660  Biso   1.000  H
  H380     1.0000 0.93548  0.58541  0.40689  Biso   1.000  H
  H381     1.0000 0.90842  0.54308  0.44111  Biso   1.000  H
  H382     1.0000 0.08168  0.88830  0.21999  Biso   1.000  H
  H383     1.0000 0.08491  0.81330  0.21429  Biso   1.000  H
  H384     1.0000 0.18612  0.77069  0.33149  Biso   1.000  H
  H385     1.0000 0.16350  0.84252  0.33590  Biso   1.000  H
  N109     1.0000 0.15919  0.79282  0.38539  Biso   1.000  N
  C324     1.0000 0.12623  0.67464  0.50458  Biso   1.000  C
  H386     1.0000 0.14480  0.65421  0.45229  Biso   1.000  H
  H387     1.0000 0.17308  0.75750  0.39551  Biso   1.000  H
  C325     1.0000 0.14234  0.83973  0.40879  Biso   1.000  C
  O59      1.0000 0.11447  0.65629  0.53757  Biso   1.000  O
  C326     1.0000 0.13236  0.74454  0.49640  Biso   1.000  C
  C327     1.0000 0.14003  0.82332  0.45099  Biso   1.000  C
  O60      1.0000 0.12863  0.89308  0.39764  Biso   1.000  O
  N110     1.0000 0.13658  0.76142  0.45935  Biso   1.000  N
  C328     1.0000 0.13095  0.78833  0.52616  Biso   1.000  C
  C329     1.0000 0.13921  0.87000  0.47894  Biso   1.000  C
  C330     1.0000 0.13463  0.85212  0.51711  Biso   1.000  C
  H388     1.0000 0.12750  0.77490  0.55220  Biso   1.000  H
  H389     1.0000 0.14171  0.91341  0.47200  Biso   1.000  H
  H390     1.0000 0.13399  0.88310  0.53691  Biso   1.000  H
  O61      1.0000 0.21141  0.47371  0.54201  Biso   1.000  O
  C331     1.0000 0.21808  0.41563  0.54388  Biso   1.000  C
  C332     1.0000 0.20991  0.37544  0.50859  Biso   1.000  C
  N111     1.0000 0.23334  0.38428  0.57568  Biso   1.000  N
  N112     1.0000 0.20618  0.31249  0.51357  Biso   1.000  N
  C333     1.0000 0.20750  0.40395  0.47266  Biso   1.000  C
  H391     1.0000 0.23688  0.34290  0.57419  Biso   1.000  H
  C334     1.0000 0.24464  0.41426  0.61285  Biso   1.000  C
  C335     1.0000 0.19942  0.27651  0.48217  Biso   1.000  C
  C336     1.0000 0.20046  0.36603  0.44054  Biso   1.000  C
  H392     1.0000 0.21059  0.44860  0.47021  Biso   1.000  H
  H393     1.0000 0.28392  0.39941  0.62339  Biso   1.000  H
  H394     1.0000 0.24709  0.46070  0.60951  Biso   1.000  H
  C337     1.0000 0.19338  0.39795  0.64094  Biso   1.000  C
  C338     1.0000 0.19610  0.30133  0.44512  Biso   1.000  C
  C339     1.0000 0.19565  0.20609  0.48784  Biso   1.000  C
  H395     1.0000 0.19869  0.38428  0.41559  Biso   1.000  H
  H396     1.0000 0.18398  0.35241  0.63820  Biso   1.000  H
  H397     1.0000 0.15669  0.42169  0.63310  Biso   1.000  H
  N113     1.0000 0.20509  0.41109  0.68182  Biso   1.000  N
  H398     1.0000 0.19102  0.27438  0.42339  Biso   1.000  H
  O62      1.0000 0.17590  0.17223  0.46183  Biso   1.000  O
  N114     1.0000 0.21427  0.18358  0.52164  Biso   1.000  N
  C340     1.0000 0.25168  0.36924  0.69818  Biso   1.000  C
  C341     1.0000 0.21790  0.47815  0.68925  Biso   1.000  C
  C342     1.0000 0.21545  0.11600  0.53045  Biso   1.000  C
  H399     1.0000 0.22639  0.21049  0.53941  Biso   1.000  H
  H400     1.0000 0.28542  0.36480  0.67949  Biso   1.000  H
  H401     1.0000 0.26830  0.38868  0.72190  Biso   1.000  H
  C343     1.0000 0.22684  0.30389  0.70787  Biso   1.000  C
  H402     1.0000 0.26122  0.48671  0.68381  Biso   1.000  H
  H403     1.0000 0.19329  0.50440  0.67151  Biso   1.000  H
  C344     1.0000 0.20396  0.49697  0.73045  Biso   1.000  C
  C345     1.0000 0.20246  0.10148  0.57257  Biso   1.000  C
  H404     1.0000 0.18489  0.09420  0.51429  Biso   1.000  H
  H405     1.0000 0.25581  0.09879  0.52360  Biso   1.000  H
  H406     1.0000 0.26058  0.27641  0.71651  Biso   1.000  H
  H407     1.0000 0.20918  0.28478  0.68430  Biso   1.000  H
  N115     1.0000 0.18062  0.30611  0.73783  Biso   1.000  N
  H408     1.0000 0.21840  0.54072  0.73500  Biso   1.000  H
  H409     1.0000 0.22612  0.46860  0.74829  Biso   1.000  H
  N116     1.0000 0.13921  0.49357  0.73861  Biso   1.000  N
  N117     1.0000 0.14189  0.12125  0.58649  Biso   1.000  N
  H410     1.0000 0.23370  0.12258  0.58850  Biso   1.000  H
  H411     1.0000 0.20668  0.05538  0.57661  Biso   1.000  H
  H412     1.0000 0.14221  0.30228  0.73140  Biso   1.000  H
  C346     1.0000 0.19524  0.31377  0.77465  Biso   1.000  C
  H413     1.0000 0.11329  0.49229  0.71930  Biso   1.000  H
  C347     1.0000 0.11823  0.49239  0.77445  Biso   1.000  C
  C348     1.0000 0.13821  0.11208  0.62858  Biso   1.000  C
  C349     1.0000 0.09376  0.08238  0.56837  Biso   1.000  C
  O63      1.0000 0.24823  0.31557  0.78643  Biso   1.000  O
  C350     1.0000 0.14289  0.32025  0.80196  Biso   1.000  C
  O64      1.0000 0.15093  0.49021  0.80291  Biso   1.000  O
  C351     1.0000 0.04999  0.49404  0.77888  Biso   1.000  C
  C352     1.0000 0.17694  0.15781  0.65192  Biso   1.000  C
  H414     1.0000 0.09540  0.11671  0.63670  Biso   1.000  H
  H415     1.0000 0.15102  0.06829  0.63469  Biso   1.000  H
  C353     1.0000 0.03174  0.11406  0.56857  Biso   1.000  C
  H416     1.0000 0.10552  0.07321  0.54140  Biso   1.000  H
  H417     1.0000 0.09090  0.04152  0.58220  Biso   1.000  H
  N118     1.0000 0.08777  0.32101  0.78611  Biso   1.000  N
  C354     1.0000 0.15311  0.32578  0.84117  Biso   1.000  C
  N119     1.0000 0.01707  0.49712  0.74679  Biso   1.000  N
  C355     1.0000 0.02438  0.49262  0.81541  Biso   1.000  C
  N120     1.0000 0.16164  0.15336  0.69245  Biso   1.000  N
  H418     1.0000 0.17000  0.20150  0.64281  Biso   1.000  H
  H419     1.0000 0.22040  0.14769  0.64820  Biso   1.000  H
  N121     1.0000 0.02883  0.16703  0.54163  Biso   1.000  N
  H420     1.0000 0.02279  0.12948  0.59490  Biso   1.000  H
  H421     1.0000 0.00041  0.08262  0.56160  Biso   1.000  H
  C356     1.0000 0.04009  0.32739  0.80954  Biso   1.000  C
  H422     1.0000 0.19320  0.32488  0.85131  Biso   1.000  H
  C357     1.0000 0.10361  0.33269  0.86517  Biso   1.000  C
  C358     1.0000 0.95646  0.49797  0.75033  Biso   1.000  C
  H423     1.0000 0.04931  0.49059  0.83771  Biso   1.000  H
  C359     1.0000 0.96191  0.49428  0.81867  Biso   1.000  C
  C360     1.0000 0.20355  0.14939  0.72014  Biso   1.000  C
  H424     1.0000 0.12309  0.15322  0.69911  Biso   1.000  H
  C361     1.0000 0.01943  0.15875  0.50415  Biso   1.000  C
  H425     1.0000 0.03351  0.20571  0.55050  Biso   1.000  H
  C362     1.0000 0.04590  0.33349  0.84921  Biso   1.000  C
  C363     1.0000 0.97830  0.32905  0.79095  Biso   1.000  C
  H426     1.0000 0.10902  0.33680  0.89219  Biso   1.000  H
  C364     1.0000 0.92712  0.49693  0.78574  Biso   1.000  C
  C365     1.0000 0.92009  0.49849  0.71371  Biso   1.000  C
  H427     1.0000 0.94320  0.49362  0.84330  Biso   1.000  H
  O65      1.0000 0.25872  0.14651  0.71452  Biso   1.000  O
  C366     1.0000 0.17844  0.14911  0.76062  Biso   1.000  C
  O66      1.0000 0.00831  0.10702  0.48940  Biso   1.000  O
  C367     1.0000 0.02293  0.21815  0.48041  Biso   1.000  C
  H428     1.0000 0.01108  0.33808  0.86511  Biso   1.000  H
  O67      1.0000 0.93144  0.32744  0.81060  Biso   1.000  O
  N122     1.0000 0.97866  0.33226  0.75275  Biso   1.000  N
  H429     1.0000 0.88408  0.49801  0.78721  Biso   1.000  H
  O68      1.0000 0.86406  0.49593  0.71472  Biso   1.000  O
  N123     1.0000 0.95319  0.50170  0.68176  Biso   1.000  N
  N124     1.0000 0.11828  0.15123  0.76482  Biso   1.000  N
  C368     1.0000 0.21776  0.14731  0.79165  Biso   1.000  C
  N125     1.0000 0.03714  0.27102  0.49957  Biso   1.000  N
  C369     1.0000 0.01162  0.21725  0.44117  Biso   1.000  C
  H430     1.0000 0.01371  0.33240  0.74059  Biso   1.000  H
  C370     1.0000 0.92272  0.33557  0.73042  Biso   1.000  C
  H431     1.0000 0.99278  0.50501  0.68459  Biso   1.000  H
  C371     1.0000 0.92994  0.50028  0.64281  Biso   1.000  C
  C372     1.0000 0.09580  0.15284  0.80052  Biso   1.000  C
  C373     1.0000 0.19415  0.14934  0.82844  Biso   1.000  C
  H432     1.0000 0.26040  0.14471  0.78770  Biso   1.000  H
  C374     1.0000 0.04127  0.32479  0.47960  Biso   1.000  C
  C375     1.0000 0.01571  0.27339  0.42083  Biso   1.000  C
  H433     1.0000 0.00132  0.17890  0.42849  Biso   1.000  H
  C376     1.0000 0.88721  0.27376  0.73057  Biso   1.000  C
  H434     1.0000 0.89679  0.36962  0.74111  Biso   1.000  H
  H435     1.0000 0.93280  0.34692  0.70349  Biso   1.000  H
  C377     1.0000 0.94574  0.43630  0.62420  Biso   1.000  C
  H436     1.0000 0.88531  0.50620  0.64310  Biso   1.000  H
  H437     1.0000 0.94810  0.53509  0.62760  Biso   1.000  H
  C378     1.0000 0.02761  0.15289  0.80406  Biso   1.000  C
  C379     1.0000 0.13190  0.15237  0.83325  Biso   1.000  C
  H438     1.0000 0.22031  0.14859  0.85019  Biso   1.000  H
  C380     1.0000 0.05548  0.38338  0.50239  Biso   1.000  C
  C381     1.0000 0.03128  0.32824  0.44019  Biso   1.000  C
  H439     1.0000 0.00790  0.27428  0.39389  Biso   1.000  H
  N126     1.0000 0.91968  0.22165  0.71135  Biso   1.000  N
  H440     1.0000 0.84780  0.28048  0.71749  Biso   1.000  H
  H441     1.0000 0.87859  0.26152  0.75759  Biso   1.000  H
  N127     1.0000 0.94638  0.43450  0.58182  Biso   1.000  N
  H442     1.0000 0.91609  0.40452  0.63339  Biso   1.000  H
  H443     1.0000 0.98629  0.42320  0.63359  Biso   1.000  H
  O69      1.0000 0.00254  0.14963  0.83593  Biso   1.000  O
  N128     1.0000 0.99800  0.15535  0.77079  Biso   1.000  N
  H444     1.0000 0.11442  0.15412  0.85820  Biso   1.000  H
  O70      1.0000 0.06715  0.43370  0.48634  Biso   1.000  O
  N129     1.0000 0.05362  0.37577  0.54062  Biso   1.000  N
  H445     1.0000 0.03501  0.36730  0.42691  Biso   1.000  H
  C382     1.0000 0.90706  0.15970  0.72890  Biso   1.000  C
  C383     1.0000 0.90865  0.22122  0.66949  Biso   1.000  C
  C384     1.0000 0.99896  0.46884  0.56592  Biso   1.000  C
  C385     1.0000 0.88826  0.45687  0.56502  Biso   1.000  C
  H446     1.0000 0.01871  0.15871  0.74921  Biso   1.000  H
  C386     1.0000 0.93198  0.15261  0.76926  Biso   1.000  C
  C387     1.0000 0.05703  0.42977  0.56652  Biso   1.000  C
  H447     1.0000 0.05031  0.33751  0.55030  Biso   1.000  H
  H448     1.0000 0.86260  0.15308  0.72959  Biso   1.000  H
  H449     1.0000 0.92472  0.12622  0.71239  Biso   1.000  H
  H450     1.0000 0.91700  0.26421  0.65949  Biso   1.000  H
  H451     1.0000 0.93829  0.19219  0.65739  Biso   1.000  H
  C388     1.0000 0.84471  0.20165  0.65624  Biso   1.000  C
  H452     1.0000 0.00540  0.50799  0.58101  Biso   1.000  H
  H453     1.0000 0.98992  0.48132  0.53901  Biso   1.000  H
  C389     1.0000 0.87722  0.43119  0.52481  Biso   1.000  C
  H454     1.0000 0.85439  0.44382  0.58199  Biso   1.000  H
  H455     1.0000 0.88862  0.50359  0.56399  Biso   1.000  H
  H456     1.0000 0.91832  0.11170  0.78001  Biso   1.000  H
  H457     1.0000 0.91509  0.18670  0.78571  Biso   1.000  H
  H458     1.0000 0.06452  0.41459  0.59311  Biso   1.000  H
  H459     1.0000 0.09158  0.45692  0.55889  Biso   1.000  H
  H460     1.0000 0.81388  0.22931  0.66851  Biso   1.000  H
  H461     1.0000 0.83650  0.15748  0.66410  Biso   1.000  H
  N130     1.0000 0.84081  0.20718  0.61461  Biso   1.000  N
  N131     1.0000 0.86674  0.36295  0.52581  Biso   1.000  N
  H462     1.0000 0.91291  0.44041  0.50841  Biso   1.000  H
  H463     1.0000 0.84149  0.45252  0.51340  Biso   1.000  H
  H464     1.0000 0.82692  0.24250  0.60449  Biso   1.000  H
  C390     1.0000 0.85766  0.16027  0.59121  Biso   1.000  C
  C391     1.0000 0.87377  0.32536  0.49542  Biso   1.000  C
  H465     1.0000 0.85520  0.34579  0.54771  Biso   1.000  H
  O71      1.0000 0.87137  0.10692  0.60236  Biso   1.000  O
  C392     1.0000 0.85997  0.17668  0.54901  Biso   1.000  C
  O72      1.0000 0.88553  0.34371  0.46243  Biso   1.000  O
  C393     1.0000 0.86764  0.25546  0.50360  Biso   1.000  C
  N132     1.0000 0.86342  0.23858  0.54065  Biso   1.000  N
  C394     1.0000 0.86079  0.13000  0.52106  Biso   1.000  C
  C395     1.0000 0.86905  0.21167  0.47384  Biso   1.000  C
  H466     1.0000 0.85829  0.08659  0.52800  Biso   1.000  H
  C396     1.0000 0.86537  0.14788  0.48289  Biso   1.000  C
  H467     1.0000 0.87250  0.22510  0.44780  Biso   1.000  H
  H468     1.0000 0.86601  0.11690  0.46309  Biso   1.000  H
  C397     1.0000 0.80585  0.64934  0.67156  Biso   1.000  C
  C398     1.0000 0.86810  0.65237  0.66675  Biso   1.000  C
  H469     1.0000 0.77969  0.64859  0.64981  Biso   1.000  H
  C399     1.0000 0.78224  0.64731  0.70835  Biso   1.000  C
  C400     1.0000 0.90420  0.65284  0.69948  Biso   1.000  C
  H470     1.0000 0.88558  0.65412  0.64180  Biso   1.000  H
  H471     1.0000 0.73960  0.64471  0.71230  Biso   1.000  H
  C401     1.0000 0.82156  0.64911  0.73938  Biso   1.000  C
  C402     1.0000 0.97239  0.65289  0.69594  Biso   1.000  C
  N133     1.0000 0.88172  0.65123  0.73518  Biso   1.000  N
  C403     1.0000 0.79645  0.64939  0.77986  Biso   1.000  C
  O73      1.0000 0.99746  0.64963  0.66407  Biso   1.000  O
  N134     1.0000 0.00200  0.65535  0.72921  Biso   1.000  N
  O74      1.0000 0.74128  0.64651  0.78548  Biso   1.000  O
  N135     1.0000 0.83836  0.65336  0.80755  Biso   1.000  N
  H472     1.0000 0.98129  0.65871  0.75079  Biso   1.000  H
  C404     1.0000 0.06802  0.65261  0.73074  Biso   1.000  C
  H473     1.0000 0.87691  0.65322  0.80089  Biso   1.000  H
  C405     1.0000 0.82306  0.65781  0.84808  Biso   1.000  C
  C406     1.0000 0.09294  0.65970  0.77110  Biso   1.000  C
  H474     1.0000 0.08168  0.61170  0.71999  Biso   1.000  H
  H475     1.0000 0.08491  0.68670  0.71429  Biso   1.000  H
  H476     1.0000 0.83000  0.70150  0.85719  Biso   1.000  H
  H477     1.0000 0.77960  0.64769  0.85180  Biso   1.000  H
  C407     1.0000 0.86179  0.61208  0.87142  Biso   1.000  C
  N136     1.0000 0.08032  0.72165  0.78865  Biso   1.000  N
  H478     1.0000 0.13740  0.65308  0.77041  Biso   1.000  H
  H479     1.0000 0.07528  0.62622  0.78761  Biso   1.000  H
  H480     1.0000 0.90460  0.61671  0.86330  Biso   1.000  H
  H481     1.0000 0.84898  0.56829  0.86531  Biso   1.000  H
  N137     1.0000 0.85811  0.62125  0.91351  Biso   1.000  N
  C408     1.0000 0.11279  0.77376  0.76943  Biso   1.000  C
  C409     1.0000 0.09135  0.72122  0.83051  Biso   1.000  C
  C410     1.0000 0.79754  0.60148  0.92743  Biso   1.000  C
  C411     1.0000 0.90624  0.58238  0.93163  Biso   1.000  C
  C412     1.0000 0.07728  0.83557  0.76958  Biso   1.000  C
  H482     1.0000 0.15220  0.78048  0.78251  Biso   1.000  H
  H483     1.0000 0.12141  0.76152  0.74241  Biso   1.000  H
  H484     1.0000 0.08300  0.76421  0.84051  Biso   1.000  H
  H485     1.0000 0.06171  0.69219  0.84261  Biso   1.000  H
  C413     1.0000 0.15529  0.70165  0.84376  Biso   1.000  C
  H486     1.0000 0.76630  0.62258  0.91150  Biso   1.000  H
  H487     1.0000 0.79332  0.55538  0.92339  Biso   1.000  H
  C414     1.0000 0.78455  0.61600  0.96955  Biso   1.000  C
  C415     1.0000 0.96826  0.61406  0.93143  Biso   1.000  C
  H488     1.0000 0.89448  0.57321  0.95860  Biso   1.000  H
  H489     1.0000 0.90910  0.54152  0.91780  Biso   1.000  H
  N138     1.0000 0.02134  0.83226  0.74725  Biso   1.000  N
  H490     1.0000 0.10321  0.86962  0.75889  Biso   1.000  H
  H491     1.0000 0.06720  0.84692  0.79651  Biso   1.000  H
  H492     1.0000 0.18612  0.72931  0.83149  Biso   1.000  H
  H493     1.0000 0.16350  0.65748  0.83590  Biso   1.000  H
  N139     1.0000 0.15919  0.70718  0.88539  Biso   1.000  N
  H494     1.0000 0.81511  0.59420  0.98571  Biso   1.000  H
  H495     1.0000 0.74419  0.59879  0.97640  Biso   1.000  H
  N140     1.0000 0.78573  0.68358  0.97836  Biso   1.000  N
  N141     1.0000 0.97117  0.66703  0.95837  Biso   1.000  N
  H496     1.0000 0.97721  0.62948  0.90510  Biso   1.000  H
  H497     1.0000 0.99959  0.58262  0.93840  Biso   1.000  H
  H498     1.0000 0.98629  0.83240  0.75941  Biso   1.000  H
  C416     1.0000 0.02170  0.82905  0.70905  Biso   1.000  C
  H499     1.0000 0.17308  0.74250  0.89551  Biso   1.000  H
  C417     1.0000 0.14234  0.66027  0.90879  Biso   1.000  C
  H500     1.0000 0.77361  0.71049  0.96059  Biso   1.000  H
  C418     1.0000 0.80435  0.70609  0.01216  Biso   1.000  C
  C419     1.0000 0.98057  0.65875  0.99585  Biso   1.000  C
  H501     1.0000 0.96649  0.70571  0.94950  Biso   1.000  H
  C420     1.0000 0.95991  0.82739  0.69046  Biso   1.000  C
  O75      1.0000 0.06856  0.82744  0.68940  Biso   1.000  O
  O76      1.0000 0.12863  0.60692  0.89764  Biso   1.000  O
  C421     1.0000 0.14003  0.67668  0.95099  Biso   1.000  C
  O77      1.0000 0.82410  0.67223  0.03817  Biso   1.000  O
  C422     1.0000 0.80058  0.77651  0.01783  Biso   1.000  C
  O78      1.0000 0.99169  0.60702  0.01060  Biso   1.000  O
  C423     1.0000 0.97707  0.71815  0.01959  Biso   1.000  C
  N142     1.0000 0.91223  0.82101  0.71389  Biso   1.000  N
  C424     1.0000 0.95410  0.83349  0.65079  Biso   1.000  C
  N143     1.0000 0.13658  0.73858  0.95935  Biso   1.000  N
  C425     1.0000 0.13921  0.63000  0.97894  Biso   1.000  C
  N144     1.0000 0.79382  0.81249  0.98643  Biso   1.000  N
  C426     1.0000 0.80390  0.80133  0.05488  Biso   1.000  C
  N145     1.0000 0.96286  0.77102  0.00043  Biso   1.000  N
  C427     1.0000 0.98838  0.71725  0.05883  Biso   1.000  C
  C428     1.0000 0.85711  0.82025  0.69804  Biso   1.000  C
  C429     1.0000 0.89639  0.83269  0.63483  Biso   1.000  C
  H502     1.0000 0.98892  0.83808  0.63489  Biso   1.000  H
  C430     1.0000 0.13236  0.75546  0.99640  Biso   1.000  C
  H503     1.0000 0.14171  0.58659  0.97200  Biso   1.000  H
  C431     1.0000 0.13463  0.64788  0.01711  Biso   1.000  C
  C432     1.0000 0.79009  0.87544  0.99141  Biso   1.000  C
  H504     1.0000 0.80898  0.77438  0.07661  Biso   1.000  H
  C433     1.0000 0.79954  0.86603  0.05946  Biso   1.000  C
  C434     1.0000 0.95873  0.82479  0.02040  Biso   1.000  C
  C435     1.0000 0.98429  0.77339  0.07917  Biso   1.000  C
  H505     1.0000 0.99868  0.67890  0.07151  Biso   1.000  H
  C436     1.0000 0.80476  0.81377  0.72535  Biso   1.000  C
  C437     1.0000 0.84689  0.82578  0.65883  Biso   1.000  C
  H506     1.0000 0.89098  0.83680  0.60781  Biso   1.000  H
  C438     1.0000 0.13095  0.71167  0.02616  Biso   1.000  C
  C439     1.0000 0.12623  0.82536  0.00458  Biso   1.000  C
  H507     1.0000 0.13399  0.61690  0.03691  Biso   1.000  H
  C440     1.0000 0.78192  0.91563  0.95612  Biso   1.000  C
  C441     1.0000 0.79250  0.90395  0.02734  Biso   1.000  C
  H508     1.0000 0.80131  0.88428  0.08441  Biso   1.000  H
  C442     1.0000 0.94452  0.88338  0.99761  Biso   1.000  C
  C443     1.0000 0.96872  0.82824  0.05981  Biso   1.000  C
  H509     1.0000 0.99210  0.77428  0.10611  Biso   1.000  H
  O79      1.0000 0.75177  0.81557  0.71357  Biso   1.000  O
  N146     1.0000 0.81938  0.80611  0.76217  Biso   1.000  N
  H510     1.0000 0.80680  0.82488  0.64869  Biso   1.000  H
  H511     1.0000 0.12750  0.72510  0.05220  Biso   1.000  H
  N147     1.0000 0.13326  0.86295  0.97419  Biso   1.000  N
  O80      1.0000 0.11447  0.84371  0.03757  Biso   1.000  O
  O81      1.0000 0.78859  0.97371  0.95799  Biso   1.000  O
  N148     1.0000 0.76666  0.88428  0.92432  Biso   1.000  N
  H512     1.0000 0.78941  0.94860  0.02979  Biso   1.000  H
  N149     1.0000 0.94638  0.87577  0.95938  Biso   1.000  N
  O82      1.0000 0.93285  0.93370  0.01366  Biso   1.000  O
  H513     1.0000 0.96499  0.86730  0.07309  Biso   1.000  H
  C444     1.0000 0.77316  0.80389  0.79213  Biso   1.000  C
  H514     1.0000 0.85779  0.80228  0.76860  Biso   1.000  H
  H515     1.0000 0.14480  0.84579  0.95229  Biso   1.000  H
  C445     1.0000 0.12278  0.93119  0.97519  Biso   1.000  C
  H516     1.0000 0.76312  0.84290  0.92581  Biso   1.000  H
  C446     1.0000 0.75536  0.91426  0.88715  Biso   1.000  C
  C447     1.0000 0.94297  0.92977  0.93348  Biso   1.000  C
  H517     1.0000 0.94969  0.83751  0.94970  Biso   1.000  H
  C448     1.0000 0.74832  0.86924  0.80182  Biso   1.000  C
  H518     1.0000 0.73942  0.77641  0.78349  Biso   1.000  H
  H519     1.0000 0.79082  0.78478  0.81570  Biso   1.000  H
  H520     1.0000 0.08709  0.94041  0.99159  Biso   1.000  H
  H521     1.0000 0.15851  0.95252  0.98660  Biso   1.000  H
  C449     1.0000 0.11174  0.95687  0.93498  Biso   1.000  C
  H522     1.0000 0.71608  0.89941  0.87661  Biso   1.000  H
  H523     1.0000 0.75291  0.96070  0.89049  Biso   1.000  H
  C450     1.0000 0.80662  0.89795  0.85906  Biso   1.000  C
  H524     1.0000 0.93548  0.91459  0.90689  Biso   1.000  H
  H525     1.0000 0.90842  0.95692  0.94111  Biso   1.000  H
  C451     1.0000 0.00104  0.96884  0.93408  Biso   1.000  C
  N150     1.0000 0.79491  0.91109  0.81818  Biso   1.000  N
  H526     1.0000 0.71458  0.86480  0.82051  Biso   1.000  H
  H527     1.0000 0.73170  0.88868  0.77810  Biso   1.000  H
  H528     1.0000 0.14561  0.94382  0.91801  Biso   1.000  H
  N151     1.0000 0.05362  0.93450  0.91818  Biso   1.000  N
  H529     1.0000 0.11138  0.00359  0.93601  Biso   1.000  H
  H530     1.0000 0.81602  0.85241  0.86180  Biso   1.000  H
  H531     1.0000 0.84331  0.92169  0.86690  Biso   1.000  H
  H532     1.0000 0.99460  0.00799  0.91899  Biso   1.000  H
  H533     1.0000 0.01008  0.98132  0.96099  Biso   1.000  H
  C452     1.0000 0.78210  0.97815  0.81075  Biso   1.000  C
  C453     1.0000 0.05426  0.93630  0.87580  Biso   1.000  C
  H534     1.0000 0.73878  0.98671  0.81619  Biso   1.000  H
  C454     1.0000 0.79604  0.99697  0.76955  Biso   1.000  C
  H535     1.0000 0.80671  0.00440  0.82849  Biso   1.000  H
  H536     1.0000 0.08391  0.90452  0.86661  Biso   1.000  H
  H537     1.0000 0.01371  0.92320  0.86641  Biso   1.000  H
  C455     1.0000 0.07006  0.00028  0.85719  Biso   1.000  C
  H538     1.0000 0.77388  0.96860  0.75171  Biso   1.000  H
  N152     1.0000 0.86079  0.99357  0.76139  Biso   1.000  N
  H539     1.0000 0.78160  0.04072  0.76500  Biso   1.000  H
  N153     1.0000 0.04681  0.00170  0.81824  Biso   1.000  N
  H540     1.0000 0.11469  0.00620  0.85690  Biso   1.000  H
  H541     1.0000 0.05190  0.03509  0.87240  Biso   1.000  H
  H542     1.0000 0.88671  0.99229  0.78070  Biso   1.000  H
  C456     1.0000 0.88177  0.99239  0.72555  Biso   1.000  C
  C457     1.0000 0.07991  0.99849  0.78629  Biso   1.000  C
  H543     1.0000 0.00722  0.00501  0.81541  Biso   1.000  H
  O83      1.0000 0.84907  0.99021  0.69709  Biso   1.000  O
  C458     1.0000 0.95001  0.99404  0.72112  Biso   1.000  C
  O84      1.0000 0.13594  0.99593  0.78528  Biso   1.000  O
  C459     1.0000 0.04354  0.99797  0.74967  Biso   1.000  C
  N154     1.0000 0.98293  0.99712  0.75321  Biso   1.000  N
  C460     1.0000 0.97562  0.99262  0.68459  Biso   1.000  C
  C461     1.0000 0.07288  0.99693  0.71426  Biso   1.000  C
  H544     1.0000 0.95069  0.99059  0.66229  Biso   1.000  H
  C462     1.0000 0.03809  0.99428  0.68133  Biso   1.000  C
  H545     1.0000 0.11592  0.99801  0.71279  Biso   1.000  H
  H546     1.0000 0.05680  0.99362  0.65670  Biso   1.000  H
  C463     1.0000 0.19415  0.35066  0.32844  Biso   1.000  C
  C464     1.0000 0.13190  0.34763  0.33325  Biso   1.000  C
  C465     1.0000 0.21776  0.35269  0.29165  Biso   1.000  C
  H547     1.0000 0.22031  0.35141  0.35019  Biso   1.000  H
  C466     1.0000 0.09580  0.34716  0.30052  Biso   1.000  C
  H548     1.0000 0.11442  0.34588  0.35820  Biso   1.000  H
  C467     1.0000 0.17844  0.35089  0.26062  Biso   1.000  C
  H549     1.0000 0.26040  0.35529  0.28770  Biso   1.000  H
  C468     1.0000 0.02761  0.34711  0.30406  Biso   1.000  C
  N155     1.0000 0.11828  0.34877  0.26482  Biso   1.000  N
  C469     1.0000 0.20355  0.35061  0.22014  Biso   1.000  C
  N156     1.0000 0.99800  0.34465  0.27079  Biso   1.000  N
  O85      1.0000 0.00254  0.35037  0.33593  Biso   1.000  O
  O86      1.0000 0.25872  0.35349  0.21452  Biso   1.000  O
  N157     1.0000 0.16164  0.34664  0.19245  Biso   1.000  N
  C470     1.0000 0.93198  0.34739  0.26926  Biso   1.000  C
  H550     1.0000 0.01871  0.34129  0.24921  Biso   1.000  H
  C471     1.0000 0.17694  0.34219  0.15192  Biso   1.000  C
  H551     1.0000 0.12309  0.34678  0.19911  Biso   1.000  H
  C472     1.0000 0.90706  0.34030  0.22890  Biso   1.000  C
  H552     1.0000 0.91832  0.38830  0.28001  Biso   1.000  H
  H553     1.0000 0.91509  0.31330  0.28571  Biso   1.000  H
  C473     1.0000 0.13821  0.38792  0.12858  Biso   1.000  C
  H554     1.0000 0.17000  0.29850  0.14281  Biso   1.000  H
  H555     1.0000 0.22040  0.35231  0.14820  Biso   1.000  H
  N158     1.0000 0.91968  0.27835  0.21135  Biso   1.000  N
  H556     1.0000 0.86260  0.34692  0.22959  Biso   1.000  H
  H557     1.0000 0.92472  0.37378  0.21239  Biso   1.000  H
  N159     1.0000 0.14189  0.37875  0.08649  Biso   1.000  N
  H558     1.0000 0.09540  0.38329  0.13670  Biso   1.000  H
  H559     1.0000 0.15102  0.43171  0.13469  Biso   1.000  H
  C474     1.0000 0.88721  0.22624  0.23057  Biso   1.000  C
  C475     1.0000 0.90865  0.27878  0.16949  Biso   1.000  C
  C476     1.0000 0.20246  0.39852  0.07257  Biso   1.000  C
  C477     1.0000 0.09376  0.41762  0.06837  Biso   1.000  C
  C478     1.0000 0.92272  0.16443  0.23042  Biso   1.000  C
  H560     1.0000 0.84780  0.21952  0.21749  Biso   1.000  H
  H561     1.0000 0.87859  0.23848  0.25759  Biso   1.000  H
  H562     1.0000 0.91700  0.23579  0.15949  Biso   1.000  H
  H563     1.0000 0.93829  0.30781  0.15739  Biso   1.000  H
  C479     1.0000 0.84471  0.29835  0.15624  Biso   1.000  C
  C480     1.0000 0.21545  0.38400  0.03045  Biso   1.000  C
  H564     1.0000 0.23370  0.37742  0.08850  Biso   1.000  H
  H565     1.0000 0.20668  0.44462  0.07661  Biso   1.000  H
  C481     1.0000 0.03174  0.38594  0.06857  Biso   1.000  C
  H566     1.0000 0.10552  0.42679  0.04140  Biso   1.000  H
  H567     1.0000 0.09090  0.45848  0.08220  Biso   1.000  H
  N160     1.0000 0.97866  0.16774  0.25275  Biso   1.000  N
  H568     1.0000 0.89679  0.13038  0.24111  Biso   1.000  H
  H569     1.0000 0.93280  0.15308  0.20349  Biso   1.000  H
  H570     1.0000 0.81388  0.27069  0.16851  Biso   1.000  H
  H571     1.0000 0.83650  0.34252  0.16410  Biso   1.000  H
  N161     1.0000 0.84081  0.29282  0.11461  Biso   1.000  N
  N162     1.0000 0.21427  0.31642  0.02164  Biso   1.000  N
  H572     1.0000 0.18489  0.40580  0.01429  Biso   1.000  H
  H573     1.0000 0.25581  0.40121  0.02360  Biso   1.000  H
  N163     1.0000 0.02883  0.33297  0.04163  Biso   1.000  N
  H574     1.0000 0.02279  0.37052  0.09490  Biso   1.000  H
  H575     1.0000 0.00041  0.41738  0.06160  Biso   1.000  H
  C482     1.0000 0.97830  0.17095  0.29095  Biso   1.000  C
  H576     1.0000 0.01371  0.16760  0.24059  Biso   1.000  H
  H577     1.0000 0.82692  0.25750  0.10449  Biso   1.000  H
  C483     1.0000 0.85766  0.33973  0.09121  Biso   1.000  C
  C484     1.0000 0.19565  0.29391  0.98784  Biso   1.000  C
  H578     1.0000 0.22639  0.28951  0.03941  Biso   1.000  H
  C485     1.0000 0.01943  0.34125  0.00415  Biso   1.000  C
  H579     1.0000 0.03351  0.29429  0.05050  Biso   1.000  H
  C486     1.0000 0.04009  0.17261  0.30954  Biso   1.000  C
  O87      1.0000 0.93144  0.17256  0.31060  Biso   1.000  O
  O88      1.0000 0.87137  0.39308  0.10236  Biso   1.000  O
  C487     1.0000 0.85997  0.32332  0.04901  Biso   1.000  C
  C488     1.0000 0.19942  0.22349  0.98217  Biso   1.000  C
  O89      1.0000 0.17590  0.32777  0.96183  Biso   1.000  O
  O90      1.0000 0.00831  0.39298  0.98940  Biso   1.000  O
  C489     1.0000 0.02293  0.28185  0.98041  Biso   1.000  C
  N164     1.0000 0.08777  0.17899  0.28611  Biso   1.000  N
  C490     1.0000 0.04590  0.16651  0.34921  Biso   1.000  C
  N165     1.0000 0.86342  0.26142  0.04065  Biso   1.000  N
  C491     1.0000 0.86079  0.37000  0.02106  Biso   1.000  C
  N166     1.0000 0.20618  0.18751  0.01357  Biso   1.000  N
  C492     1.0000 0.19610  0.19867  0.94512  Biso   1.000  C
  N167     1.0000 0.03714  0.22898  0.99957  Biso   1.000  N
  C493     1.0000 0.01162  0.28275  0.94117  Biso   1.000  C
  C494     1.0000 0.14289  0.17975  0.30196  Biso   1.000  C
  C495     1.0000 0.10361  0.16731  0.36517  Biso   1.000  C
  H580     1.0000 0.01108  0.16192  0.36511  Biso   1.000  H
  C496     1.0000 0.86764  0.24454  0.00360  Biso   1.000  C
  C497     1.0000 0.86537  0.35212  0.98289  Biso   1.000  C
  H581     1.0000 0.85829  0.41341  0.02800  Biso   1.000  H
  C498     1.0000 0.20991  0.12456  0.00859  Biso   1.000  C
  C499     1.0000 0.20046  0.13397  0.94054  Biso   1.000  C
  H582     1.0000 0.19102  0.22562  0.92339  Biso   1.000  H
  C500     1.0000 0.04127  0.17521  0.97960  Biso   1.000  C
  C501     1.0000 0.01571  0.22661  0.92083  Biso   1.000  C
  H583     1.0000 0.00132  0.32110  0.92849  Biso   1.000  H
  C502     1.0000 0.19524  0.18623  0.27465  Biso   1.000  C
  C503     1.0000 0.15311  0.17422  0.34117  Biso   1.000  C
  H584     1.0000 0.10902  0.16320  0.39219  Biso   1.000  H
  C504     1.0000 0.86905  0.28833  0.97384  Biso   1.000  C
  C505     1.0000 0.87377  0.17464  0.99542  Biso   1.000  C
  H585     1.0000 0.86601  0.38310  0.96309  Biso   1.000  H
  C506     1.0000 0.21808  0.08437  0.04388  Biso   1.000  C
  C507     1.0000 0.20750  0.09605  0.97266  Biso   1.000  C
  H586     1.0000 0.19869  0.11572  0.91559  Biso   1.000  H
  C508     1.0000 0.05548  0.11662  0.00239  Biso   1.000  C
  C509     1.0000 0.03128  0.17176  0.94019  Biso   1.000  C
  H587     1.0000 0.00790  0.22572  0.89389  Biso   1.000  H
  O91      1.0000 0.24823  0.18443  0.28643  Biso   1.000  O
  N168     1.0000 0.18062  0.19389  0.23783  Biso   1.000  N
  H588     1.0000 0.19320  0.17512  0.35131  Biso   1.000  H
  H589     1.0000 0.87250  0.27490  0.94780  Biso   1.000  H
  O92      1.0000 0.88553  0.15629  0.96243  Biso   1.000  O
  N169     1.0000 0.86674  0.13705  0.02581  Biso   1.000  N
  N170     1.0000 0.23334  0.11572  0.07568  Biso   1.000  N
  O93      1.0000 0.21141  0.02629  0.04201  Biso   1.000  O
  H590     1.0000 0.21059  0.05140  0.97021  Biso   1.000  H
  N171     1.0000 0.05362  0.12423  0.04062  Biso   1.000  N
  O94      1.0000 0.06715  0.06630  0.98634  Biso   1.000  O
  H591     1.0000 0.03501  0.13270  0.92691  Biso   1.000  H
  C510     1.0000 0.22684  0.19611  0.20787  Biso   1.000  C
  H592     1.0000 0.14221  0.19772  0.23140  Biso   1.000  H
  C511     1.0000 0.87722  0.06881  0.02481  Biso   1.000  C
  H593     1.0000 0.85520  0.15421  0.04771  Biso   1.000  H
  C512     1.0000 0.24464  0.08574  0.11285  Biso   1.000  C
  H594     1.0000 0.23688  0.15710  0.07419  Biso   1.000  H
  C513     1.0000 0.05703  0.07023  0.06652  Biso   1.000  C
  H595     1.0000 0.05031  0.16249  0.05030  Biso   1.000  H
  C514     1.0000 0.25168  0.13076  0.19818  Biso   1.000  C
  H596     1.0000 0.26058  0.22359  0.21651  Biso   1.000  H
  H597     1.0000 0.20918  0.21522  0.18430  Biso   1.000  H
  C515     1.0000 0.88826  0.04313  0.06502  Biso   1.000  C
  H598     1.0000 0.91291  0.05959  0.00841  Biso   1.000  H
  H599     1.0000 0.84149  0.04748  0.01340  Biso   1.000  H
  C516     1.0000 0.19338  0.10205  0.14094  Biso   1.000  C
  H600     1.0000 0.28392  0.10059  0.12339  Biso   1.000  H
  H601     1.0000 0.24709  0.03930  0.10951  Biso   1.000  H
  C517     1.0000 0.99896  0.03116  0.06592  Biso   1.000  C
  H602     1.0000 0.06452  0.08541  0.09311  Biso   1.000  H
  H603     1.0000 0.09158  0.04308  0.05889  Biso   1.000  H
  N172     1.0000 0.20509  0.08891  0.18182  Biso   1.000  N
  H604     1.0000 0.28542  0.13520  0.17949  Biso   1.000  H
  H605     1.0000 0.26830  0.11132  0.22190  Biso   1.000  H
  N173     1.0000 0.94638  0.06550  0.08182  Biso   1.000  N
  H606     1.0000 0.88862  0.99641  0.06399  Biso   1.000  H
  H607     1.0000 0.85439  0.05618  0.08199  Biso   1.000  H
  H608     1.0000 0.18398  0.14759  0.13820  Biso   1.000  H
  H609     1.0000 0.15669  0.07831  0.13310  Biso   1.000  H
  H610     1.0000 0.98992  0.01868  0.03901  Biso   1.000  H
  H611     1.0000 0.00540  0.99201  0.08101  Biso   1.000  H
  C518     1.0000 0.21790  0.02185  0.18925  Biso   1.000  C
  C519     1.0000 0.94574  0.06370  0.12420  Biso   1.000  C
  H612     1.0000 0.26122  0.01329  0.18381  Biso   1.000  H
  C520     1.0000 0.20396  0.00303  0.23045  Biso   1.000  C
  H613     1.0000 0.19329  0.99560  0.17151  Biso   1.000  H
  C521     1.0000 0.92994  0.99972  0.14281  Biso   1.000  C
  H614     1.0000 0.91609  0.09548  0.13339  Biso   1.000  H
  H615     1.0000 0.98629  0.07680  0.13359  Biso   1.000  H
  H616     1.0000 0.22612  0.03140  0.24829  Biso   1.000  H
  N174     1.0000 0.13921  0.00643  0.23861  Biso   1.000  N
  H617     1.0000 0.21840  0.95928  0.23500  Biso   1.000  H
  N175     1.0000 0.95319  0.99830  0.18176  Biso   1.000  N
  H618     1.0000 0.88531  0.99380  0.14310  Biso   1.000  H
  H619     1.0000 0.94810  0.96491  0.12760  Biso   1.000  H
  H620     1.0000 0.11329  0.00771  0.21930  Biso   1.000  H
  C522     1.0000 0.11823  0.00761  0.27445  Biso   1.000  C
  C523     1.0000 0.92009  0.00151  0.21371  Biso   1.000  C
  H621     1.0000 0.99278  0.99499  0.18459  Biso   1.000  H
  O95      1.0000 0.15093  0.00979  0.30291  Biso   1.000  O
  C524     1.0000 0.04999  0.00596  0.27888  Biso   1.000  C
  C525     1.0000 0.95646  0.00203  0.25033  Biso   1.000  C
  O96      1.0000 0.86406  0.00407  0.21472  Biso   1.000  O
  N176     1.0000 0.01707  0.00288  0.24679  Biso   1.000  N
  C526     1.0000 0.02438  0.00738  0.31541  Biso   1.000  C
  C527     1.0000 0.92712  0.00307  0.28574  Biso   1.000  C
  H622     1.0000 0.04931  0.00941  0.33771  Biso   1.000  H
  C528     1.0000 0.96191  0.00572  0.31867  Biso   1.000  C
  H623     1.0000 0.88408  0.00199  0.28721  Biso   1.000  H
  H624     1.0000 0.94320  0.00638  0.34330  Biso   1.000  H
  Ne1      1.0000 0.05508  0.20158  0.14164  Biso   1.000  Ne
  He1      1.0000 0.02763  0.41520  0.19221  Biso   1.000  He
  He2      1.0000 0.07183  0.06909  0.17133  Biso   1.000  He
  He3      1.0000 0.94537  0.20107  0.09484  Biso   1.000  He
  He4      1.0000 0.25930  0.23653  0.12305  Biso   1.000  He
  Ar1      1.0000 0.05553  0.20562  0.14335  Biso   1.000  Ar
  Ne2      1.0000 0.55508  0.20158  0.35836  Biso   1.000  Ne
  He5      1.0000 0.79887  0.24674  0.37666  Biso   1.000  He
  He6      1.0000 0.41040  0.18859  0.40090  Biso   1.000  He
  He7      1.0000 0.57180  0.07373  0.32727  Biso   1.000  He
  He8      1.0000 0.53396  0.32598  0.32712  Biso   1.000  He
  Ar2      1.0000 0.55553  0.20562  0.35665  Biso   1.000  Ar
  Ne3      1.0000 0.44492  0.70158  0.14164  Biso   1.000  Ne
  He9      1.0000 0.47606  0.84331  0.18474  Biso   1.000  He
  He10     1.0000 0.42818  0.57103  0.17191  Biso   1.000  He
  He11     1.0000 0.69184  0.62275  0.17034  Biso   1.000  He
  He12     1.0000 0.35674  0.72486  0.08713  Biso   1.000  He
  Ar3      1.0000 0.44447  0.70562  0.14335  Biso   1.000  Ar
  Ne4      1.0000 0.05508  0.29842  0.64164  Biso   1.000  Ne
  He13     1.0000 0.02669  0.15332  0.67868  Biso   1.000  He
  He14     1.0000 0.08531  0.51886  0.63906  Biso   1.000  He
  He15     1.0000 0.94493  0.29910  0.59490  Biso   1.000  He
  He16     1.0000 0.14559  0.27352  0.58681  Biso   1.000  He
  Ar4      1.0000 0.05553  0.29438  0.64335  Biso   1.000  Ar
  Ne5      1.0000 0.44492  0.79842  0.64164  Biso   1.000  Ne
  He17     1.0000 0.46881  0.68637  0.68210  Biso   1.000  He
  He18     1.0000 0.42818  0.93000  0.67160  Biso   1.000  He
  He19     1.0000 0.70245  0.87731  0.66690  Biso   1.000  He
  He20     1.0000 0.35158  0.77156  0.58643  Biso   1.000  He
  Ar5      1.0000 0.44406  0.79363  0.64368  Biso   1.000  Ar
  Ne6      1.0000 0.94492  0.70158  0.35836  Biso   1.000  Ne
  He21     1.0000 0.85625  0.72520  0.41293  Biso   1.000  He
  He22     1.0000 0.05393  0.70134  0.40525  Biso   1.000  He
  He23     1.0000 0.91794  0.48957  0.36005  Biso   1.000  He
  He24     1.0000 0.97360  0.84750  0.32110  Biso   1.000  He
  Ar6      1.0000 0.94447  0.70562  0.35665  Biso   1.000  Ar
  Ne7      1.0000 0.55508  0.29842  0.85836  Biso   1.000  Ne
  He25     1.0000 0.64999  0.27048  0.91378  Biso   1.000  He
  He26     1.0000 0.44950  0.29733  0.90568  Biso   1.000  He
  He27     1.0000 0.53035  0.18471  0.81690  Biso   1.000  He
  He28     1.0000 0.58668  0.52334  0.86150  Biso   1.000  He
  Ar7      1.0000 0.55594  0.29363  0.85632  Biso   1.000  Ar
  Ne8      1.0000 0.94492  0.79842  0.85836  Biso   1.000  Ne
  He29     1.0000 0.85558  0.77433  0.91303  Biso   1.000  He
  He30     1.0000 0.20837  0.87732  0.83503  Biso   1.000  He
  He31     1.0000 0.91884  0.00806  0.85979  Biso   1.000  He
  He32     1.0000 0.97220  0.58369  0.80759  Biso   1.000  He
  Ar8      1.0000 0.94406  0.79363  0.85632  Biso   1.000  Ar
