data_image0
_cell_length_a       24.555
_cell_length_b       24.554
_cell_length_c       25.436
_cell_angle_alpha    90
_cell_angle_beta     90
_cell_angle_gamma    120

_symmetry_space_group_name_H-M    "P 1"
_symmetry_int_tables_number       1

loop_
  _symmetry_equiv_pos_as_xyz
  'x, y, z'

loop_
  _atom_site_label
  _atom_site_occupancy
  _atom_site_fract_x
  _atom_site_fract_y
  _atom_site_fract_z
  _atom_site_thermal_displace_type
  _atom_site_B_iso_or_equiv
  _atom_site_type_symbol
  O1       1.0000 0.83572  0.88613  0.56239  Biso   1.000  O
  C1       1.0000 0.83569  0.87329  0.61346  Biso   1.000  C
  H1       1.0000 0.82841  0.91510  0.55897  Biso   1.000  H
  H2       1.0000 0.82845  0.91510  0.55897  Biso   1.000  H
  C2       1.0000 0.81358  0.89887  0.65132  Biso   1.000  C
  C3       1.0000 0.85917  0.83440  0.62958  Biso   1.000  C
  O2       1.0000 0.83569  0.88608  0.56239  Biso   1.000  O
  C4       1.0000 0.79135  0.94157  0.63556  Biso   1.000  C
  C5       1.0000 0.79140  0.94157  0.63556  Biso   1.000  C
  C6       1.0000 0.81559  0.88538  0.70416  Biso   1.000  C
  C7       1.0000 0.88701  0.81197  0.59054  Biso   1.000  C
  C8       1.0000 0.85979  0.82203  0.68262  Biso   1.000  C
  C9       1.0000 0.88705  0.81197  0.59054  Biso   1.000  C
  C10      1.0000 0.85981  0.82208  0.68262  Biso   1.000  C
  N1       1.0000 0.79188  0.95738  0.58751  Biso   1.000  N
  H3       1.0000 0.77642  0.95780  0.66115  Biso   1.000  H
  H4       1.0000 0.77646  0.95780  0.66115  Biso   1.000  H
  H5       1.0000 0.80082  0.90268  0.72897  Biso   1.000  H
  C11      1.0000 0.83865  0.84696  0.72154  Biso   1.000  C
  H6       1.0000 0.87501  0.79579  0.69276  Biso   1.000  H
  H7       1.0000 0.87505  0.79579  0.69276  Biso   1.000  H
  N2       1.0000 0.90679  0.77439  0.59958  Biso   1.000  N
  H8       1.0000 0.89041  0.82659  0.55626  Biso   1.000  H
  H9       1.0000 0.89045  0.82659  0.55626  Biso   1.000  H
  C12      1.0000 0.76964  0.00012  0.57226  Biso   1.000  C
  C13      1.0000 0.76960  0.00012  0.57226  Biso   1.000  C
  C14      1.0000 0.84693  0.83868  0.77846  Biso   1.000  C
  C15      1.0000 0.84691  0.83863  0.77846  Biso   1.000  C
  C16      1.0000 0.93601  0.76010  0.55567  Biso   1.000  C
  C17      1.0000 0.72361  0.97054  0.52630  Biso   1.000  C
  C18      1.0000 0.82405  0.06399  0.55567  Biso   1.000  C
  H10      1.0000 0.74763  0.00586  0.60206  Biso   1.000  H
  C19      1.0000 0.82409  0.06399  0.55567  Biso   1.000  C
  H11      1.0000 0.74758  0.00586  0.60206  Biso   1.000  H
  C20      1.0000 0.82204  0.85984  0.81738  Biso   1.000  C
  C21      1.0000 0.88536  0.81559  0.79584  Biso   1.000  C
  C22      1.0000 0.99984  0.76950  0.57226  Biso   1.000  C
  H12      1.0000 0.94204  0.78869  0.52658  Biso   1.000  H
  C23      1.0000 0.89350  0.69275  0.53731  Biso   1.000  C
  H13      1.0000 0.68792  0.93109  0.53766  Biso   1.000  H
  H14      1.0000 0.74433  0.96147  0.49796  Biso   1.000  H
  H15      1.0000 0.74435  0.96151  0.49796  Biso   1.000  H
  C24      1.0000 0.70018  0.01409  0.50598  Biso   1.000  C
  C25      1.0000 0.70014  0.01409  0.50598  Biso   1.000  C
  H16      1.0000 0.84662  0.05797  0.52658  Biso   1.000  H
  C26      1.0000 0.79922  0.10645  0.53731  Biso   1.000  C
  H17      1.0000 0.84659  0.05792  0.52658  Biso   1.000  H
  N3       1.0000 0.86753  0.09319  0.59958  Biso   1.000  N
  C27      1.0000 0.79918  0.10645  0.53731  Biso   1.000  C
  H18      1.0000 0.79574  0.87508  0.80724  Biso   1.000  H
  H19      1.0000 0.79575  0.87503  0.80724  Biso   1.000  H
  C28      1.0000 0.83440  0.85923  0.87042  Biso   1.000  C
  H20      1.0000 0.79578  0.87508  0.80724  Biso   1.000  H
  C29      1.0000 0.83434  0.85918  0.87042  Biso   1.000  C
  H21      1.0000 0.90268  0.80087  0.77103  Biso   1.000  H
  C30      1.0000 0.89887  0.81361  0.84868  Biso   1.000  C
  H22      1.0000 0.99414  0.74180  0.60206  Biso   1.000  H
  C31      1.0000 0.02950  0.75314  0.52630  Biso   1.000  C
  N4       1.0000 0.04263  0.83454  0.58751  Biso   1.000  N
  C32      1.0000 0.92232  0.67634  0.49147  Biso   1.000  C
  H23      1.0000 0.85324  0.68749  0.52677  Biso   1.000  H
  C33      1.0000 0.92236  0.67634  0.49147  Biso   1.000  C
  H24      1.0000 0.88636  0.66421  0.56628  Biso   1.000  H
  H25      1.0000 0.88629  0.66416  0.56628  Biso   1.000  H
  H26      1.0000 0.67375  0.99519  0.47535  Biso   1.000  H
  H27      1.0000 0.67495  0.01884  0.53287  Biso   1.000  H
  H28      1.0000 0.67491  0.01884  0.53287  Biso   1.000  H
  C34      1.0000 0.75394  0.07762  0.49147  Biso   1.000  C
  C35      1.0000 0.92489  0.11294  0.59054  Biso   1.000  C
  H29      1.0000 0.77781  0.11365  0.56628  Biso   1.000  H
  H30      1.0000 0.83420  0.14675  0.52677  Biso   1.000  H
  C36      1.0000 0.81196  0.88707  0.90946  Biso   1.000  C
  C37      1.0000 0.87327  0.83572  0.88654  Biso   1.000  C
  C38      1.0000 0.87324  0.83567  0.88654  Biso   1.000  C
  C39      1.0000 0.94153  0.79142  0.86444  Biso   1.000  C
  C40      1.0000 0.05848  0.84987  0.63556  Biso   1.000  C
  C41      1.0000 0.98593  0.68612  0.50598  Biso   1.000  C
  H31      1.0000 0.03856  0.78291  0.49796  Biso   1.000  H
  H32      1.0000 0.06897  0.75690  0.53766  Biso   1.000  H
  H33      1.0000 0.06892  0.75690  0.53766  Biso   1.000  H
  H34      1.0000 0.03851  0.78291  0.49796  Biso   1.000  H
  H35      1.0000 0.89492  0.63280  0.48156  Biso   1.000  H
  H36      1.0000 0.92635  0.70249  0.46147  Biso   1.000  H
  H37      1.0000 0.89496  0.63280  0.48156  Biso   1.000  H
  H38      1.0000 0.73784  0.10504  0.48156  Biso   1.000  H
  H39      1.0000 0.77609  0.07363  0.46147  Biso   1.000  H
  H40      1.0000 0.73780  0.10504  0.48156  Biso   1.000  H
  H41      1.0000 0.77611  0.07367  0.46147  Biso   1.000  H
  H42      1.0000 0.93610  0.10955  0.55626  Biso   1.000  H
  C42      1.0000 0.97513  0.14078  0.62958  Biso   1.000  C
  H43      1.0000 0.82656  0.89046  0.94374  Biso   1.000  H
  N5       1.0000 0.77439  0.90682  0.90042  Biso   1.000  N
  O3       1.0000 0.88610  0.83572  0.93761  Biso   1.000  O
  H44      1.0000 0.95775  0.77646  0.83885  Biso   1.000  H
  N6       1.0000 0.95736  0.79189  0.91249  Biso   1.000  N
  H45      1.0000 0.95779  0.77646  0.83885  Biso   1.000  H
  C43      1.0000 0.10112  0.91472  0.65132  Biso   1.000  C
  H46      1.0000 0.04228  0.81869  0.66115  Biso   1.000  H
  H47      1.0000 0.98113  0.65607  0.53287  Biso   1.000  H
  H48      1.0000 0.00485  0.67860  0.47535  Biso   1.000  H
  H49      1.0000 0.00481  0.67860  0.47535  Biso   1.000  H
  C44      1.0000 0.96220  0.14017  0.68262  Biso   1.000  C
  C45      1.0000 0.03755  0.16429  0.61346  Biso   1.000  C
  C46      1.0000 0.76007  0.93603  0.94433  Biso   1.000  C
  C47      1.0000 0.76011  0.93603  0.94433  Biso   1.000  C
  H50      1.0000 0.91506  0.82847  0.94103  Biso   1.000  H
  H51      1.0000 0.91503  0.82843  0.94103  Biso   1.000  H
  C48      1.0000 0.00016  0.76964  0.92774  Biso   1.000  C
  C49      1.0000 0.00014  0.76969  0.92774  Biso   1.000  C
  C50      1.0000 0.12674  0.96245  0.61346  Biso   1.000  C
  C51      1.0000 0.11466  0.93024  0.70416  Biso   1.000  C
  C52      1.0000 0.12676  0.96241  0.61346  Biso   1.000  C
  H52      1.0000 0.92070  0.12493  0.69276  Biso   1.000  H
  C53      1.0000 0.00829  0.16133  0.72154  Biso   1.000  C
  O4       1.0000 0.05035  0.16425  0.56239  Biso   1.000  O
  C54      1.0000 0.08529  0.18640  0.65132  Biso   1.000  C
  C55      1.0000 0.76948  0.99989  0.92774  Biso   1.000  C
  C56      1.0000 0.69274  0.89356  0.96269  Biso   1.000  C
  C57      1.0000 0.76950  0.99984  0.92774  Biso   1.000  C
  H53      1.0000 0.78866  0.94204  0.97342  Biso   1.000  H
  C58      1.0000 0.69278  0.89356  0.96269  Biso   1.000  C
  C59      1.0000 0.76946  0.99984  0.92774  Biso   1.000  C
  C60      1.0000 0.97053  0.72365  0.97370  Biso   1.000  C
  C61      1.0000 0.06400  0.82410  0.94433  Biso   1.000  C
  H54      1.0000 0.00585  0.74763  0.89794  Biso   1.000  H
  H55      1.0000 0.00589  0.74763  0.89794  Biso   1.000  H
  C62      1.0000 0.16561  0.02481  0.62958  Biso   1.000  C
  C63      1.0000 0.16559  0.02476  0.62958  Biso   1.000  C
  C64      1.0000 0.16565  0.02481  0.62958  Biso   1.000  C
  O5       1.0000 0.11395  0.94966  0.56239  Biso   1.000  O
  O6       1.0000 0.11391  0.94966  0.56239  Biso   1.000  O
  C65      1.0000 0.15305  0.99171  0.72154  Biso   1.000  C
  H56      1.0000 0.09735  0.89822  0.72897  Biso   1.000  H
  H57      1.0000 0.09732  0.89817  0.72897  Biso   1.000  H
  C66      1.0000 0.99163  0.15301  0.77846  Biso   1.000  C
  C67      1.0000 0.06977  0.18442  0.70416  Biso   1.000  C
  H58      1.0000 0.08662  0.17154  0.55897  Biso   1.000  H
  C68      1.0000 0.15011  0.20859  0.63556  Biso   1.000  C
  N7       1.0000 0.83451  0.04264  0.91249  Biso   1.000  N
  H59      1.0000 0.74173  0.99415  0.89794  Biso   1.000  H
  H60      1.0000 0.74177  0.99415  0.89794  Biso   1.000  H
  C69      1.0000 0.75312  0.02947  0.97370  Biso   1.000  C
  C70      1.0000 0.75308  0.02947  0.97370  Biso   1.000  C
  H61      1.0000 0.68750  0.85326  0.97323  Biso   1.000  H
  H62      1.0000 0.66418  0.88636  0.93372  Biso   1.000  H
  C71      1.0000 0.67632  0.92239  0.00853  Biso   1.000  C
  C72      1.0000 0.67630  0.92234  0.00853  Biso   1.000  C
  H63      1.0000 0.93106  0.68796  0.96234  Biso   1.000  H
  H64      1.0000 0.96145  0.74434  0.00204  Biso   1.000  H
  C73      1.0000 0.01410  0.70018  0.99402  Biso   1.000  C
  C74      1.0000 0.01406  0.70018  0.99402  Biso   1.000  C
  N8       1.0000 0.09320  0.86760  0.90042  Biso   1.000  N
  H65      1.0000 0.05798  0.84667  0.97342  Biso   1.000  H
  C75      1.0000 0.10648  0.79927  0.96269  Biso   1.000  C
  H66      1.0000 0.05802  0.84667  0.97342  Biso   1.000  H
  C76      1.0000 0.10652  0.79927  0.96269  Biso   1.000  C
  C77      1.0000 0.18800  0.07504  0.59054  Biso   1.000  C
  C78      1.0000 0.17794  0.03774  0.68262  Biso   1.000  C
  H67      1.0000 0.08495  0.91341  0.55897  Biso   1.000  H
  C79      1.0000 0.16135  0.00831  0.77846  Biso   1.000  C
  C80      1.0000 0.93017  0.11463  0.79584  Biso   1.000  C
  C81      1.0000 0.03773  0.17793  0.81738  Biso   1.000  C
  C82      1.0000 0.03777  0.17793  0.81738  Biso   1.000  C
  H68      1.0000 0.10185  0.19914  0.72897  Biso   1.000  H
  N9       1.0000 0.16547  0.20812  0.58751  Biso   1.000  N
  H69      1.0000 0.18133  0.22355  0.66115  Biso   1.000  H
  N10      1.0000 0.16545  0.20808  0.58751  Biso   1.000  N
  C83      1.0000 0.84982  0.05844  0.86444  Biso   1.000  C
  C84      1.0000 0.68606  0.98592  0.99402  Biso   1.000  C
  C85      1.0000 0.68610  0.98592  0.99402  Biso   1.000  C
  H70      1.0000 0.75684  0.06892  0.96234  Biso   1.000  H
  H71      1.0000 0.78284  0.03850  0.00204  Biso   1.000  H
  H72      1.0000 0.70245  0.92634  0.03853  Biso   1.000  H
  H73      1.0000 0.63277  0.89497  0.01844  Biso   1.000  H
  H74      1.0000 0.99518  0.67376  0.02465  Biso   1.000  H
  H75      1.0000 0.01886  0.67493  0.96713  Biso   1.000  H
  C86      1.0000 0.07765  0.75398  0.00853  Biso   1.000  C
  C87      1.0000 0.11297  0.92497  0.90946  Biso   1.000  C
  C88      1.0000 0.11298  0.92493  0.90946  Biso   1.000  C
  H76      1.0000 0.14678  0.83426  0.97323  Biso   1.000  H
  H77      1.0000 0.11370  0.77787  0.93372  Biso   1.000  H
  H78      1.0000 0.11364  0.77783  0.93372  Biso   1.000  H
  H79      1.0000 0.14674  0.83426  0.97323  Biso   1.000  H
  H80      1.0000 0.11366  0.77787  0.93372  Biso   1.000  H
  H81      1.0000 0.11368  0.77783  0.93372  Biso   1.000  H
  N11      1.0000 0.22560  0.13241  0.59958  Biso   1.000  N
  N12      1.0000 0.22564  0.13241  0.59958  Biso   1.000  N
  H82      1.0000 0.17344  0.06384  0.55626  Biso   1.000  H
  H83      1.0000 0.20418  0.07922  0.69276  Biso   1.000  H
  H84      1.0000 0.20422  0.07922  0.69276  Biso   1.000  H
  C89      1.0000 0.14021  0.96227  0.81738  Biso   1.000  C
  C90      1.0000 0.18443  0.06977  0.79584  Biso   1.000  C
  C91      1.0000 0.18447  0.06977  0.79584  Biso   1.000  C
  C92      1.0000 0.91471  0.10114  0.84868  Biso   1.000  C
  H85      1.0000 0.89814  0.09733  0.77103  Biso   1.000  H
  H86      1.0000 0.07926  0.20422  0.80724  Biso   1.000  H
  C93      1.0000 0.02477  0.16561  0.87042  Biso   1.000  C
  C94      1.0000 0.23049  0.23032  0.57226  Biso   1.000  C
  H87      1.0000 0.81866  0.04221  0.83885  Biso   1.000  H
  H88      1.0000 0.81862  0.04221  0.83885  Biso   1.000  H
  H89      1.0000 0.65607  0.98117  0.96713  Biso   1.000  H
  H90      1.0000 0.67853  0.00483  0.02465  Biso   1.000  H
  H91      1.0000 0.10510  0.73785  0.01844  Biso   1.000  H
  H92      1.0000 0.10506  0.73785  0.01844  Biso   1.000  H
  H93      1.0000 0.07370  0.77613  0.03853  Biso   1.000  H
  C95      1.0000 0.14081  0.97520  0.87042  Biso   1.000  C
  H94      1.0000 0.10960  0.93617  0.94374  Biso   1.000  H
  C96      1.0000 0.23990  0.17591  0.55567  Biso   1.000  C
  C97      1.0000 0.23994  0.17591  0.55567  Biso   1.000  C
  H95      1.0000 0.12498  0.92074  0.80724  Biso   1.000  H
  H96      1.0000 0.12494  0.92074  0.80724  Biso   1.000  H
  C98      1.0000 0.18642  0.08524  0.84868  Biso   1.000  C
  H97      1.0000 0.19913  0.10180  0.77103  Biso   1.000  H
  H98      1.0000 0.19917  0.10180  0.77103  Biso   1.000  H
  C99      1.0000 0.96236  0.12672  0.88654  Biso   1.000  C
  C100     1.0000 0.07508  0.18804  0.90946  Biso   1.000  C
  H99      1.0000 0.25821  0.25238  0.60206  Biso   1.000  H
  C101     1.0000 0.24687  0.27636  0.52630  Biso   1.000  C
  H100     1.0000 0.25819  0.25233  0.60206  Biso   1.000  H
  H101     1.0000 0.25825  0.25238  0.60206  Biso   1.000  H
  C102     1.0000 0.24691  0.27636  0.52630  Biso   1.000  C
  H102     1.0000 0.25823  0.25233  0.60206  Biso   1.000  H
  C103     1.0000 0.16433  0.03756  0.88654  Biso   1.000  C
  H103     1.0000 0.21130  0.15334  0.52658  Biso   1.000  H
  C104     1.0000 0.30721  0.20074  0.53731  Biso   1.000  C
  H104     1.0000 0.21134  0.15334  0.52658  Biso   1.000  H
  C105     1.0000 0.30725  0.20074  0.53731  Biso   1.000  C
  C106     1.0000 0.20864  0.15014  0.86444  Biso   1.000  C
  O7       1.0000 0.94963  0.11388  0.93761  Biso   1.000  O
  O8       1.0000 0.94959  0.11388  0.93761  Biso   1.000  O
  H105     1.0000 0.06386  0.17342  0.94374  Biso   1.000  H
  N13      1.0000 0.13239  0.22562  0.90042  Biso   1.000  N
  C107     1.0000 0.31391  0.29983  0.50598  Biso   1.000  C
  C108     1.0000 0.31388  0.29978  0.50598  Biso   1.000  C
  H106     1.0000 0.21710  0.25567  0.49796  Biso   1.000  H
  H107     1.0000 0.24309  0.31205  0.53766  Biso   1.000  H
  C109     1.0000 0.31395  0.29983  0.50598  Biso   1.000  C
  O9       1.0000 0.16429  0.05035  0.93761  Biso   1.000  O
  O10      1.0000 0.16425  0.05035  0.93761  Biso   1.000  O
  H108     1.0000 0.31252  0.16575  0.52677  Biso   1.000  H
  H109     1.0000 0.33582  0.22214  0.56628  Biso   1.000  H
  H110     1.0000 0.33578  0.22214  0.56628  Biso   1.000  H
  C110     1.0000 0.32364  0.24598  0.49147  Biso   1.000  C
  H111     1.0000 0.31248  0.16575  0.52677  Biso   1.000  H
  C111     1.0000 0.32370  0.24603  0.49147  Biso   1.000  C
  N14      1.0000 0.20812  0.16547  0.91249  Biso   1.000  N
  N15      1.0000 0.20810  0.16542  0.91249  Biso   1.000  N
  H112     1.0000 0.22358  0.18132  0.83885  Biso   1.000  H
  H113     1.0000 0.91332  0.08491  0.94103  Biso   1.000  H
  H114     1.0000 0.91336  0.08491  0.94103  Biso   1.000  H
  C112     1.0000 0.17591  0.23991  0.94433  Biso   1.000  C
  C113     1.0000 0.17595  0.23991  0.94433  Biso   1.000  C
  H115     1.0000 0.34390  0.32503  0.53287  Biso   1.000  H
  H116     1.0000 0.32142  0.32625  0.47535  Biso   1.000  H
  H117     1.0000 0.34394  0.32503  0.53287  Biso   1.000  H
  H118     1.0000 0.17154  0.08661  0.94103  Biso   1.000  H
  H119     1.0000 0.36724  0.26216  0.48156  Biso   1.000  H
  H120     1.0000 0.36720  0.26216  0.48156  Biso   1.000  H
  H121     1.0000 0.29753  0.22383  0.46147  Biso   1.000  H
  C114     1.0000 0.23034  0.23051  0.92774  Biso   1.000  C
  C115     1.0000 0.23038  0.23051  0.92774  Biso   1.000  C
  C116     1.0000 0.20072  0.30721  0.96269  Biso   1.000  C
  H122     1.0000 0.15339  0.21132  0.97342  Biso   1.000  H
  H123     1.0000 0.25237  0.25821  0.89794  Biso   1.000  H
  C117     1.0000 0.27639  0.24687  0.97370  Biso   1.000  C
  H124     1.0000 0.16574  0.31252  0.97323  Biso   1.000  H
  H125     1.0000 0.22214  0.33580  0.93372  Biso   1.000  H
  H126     1.0000 0.16578  0.31252  0.97323  Biso   1.000  H
  H127     1.0000 0.22218  0.33580  0.93372  Biso   1.000  H
  C118     1.0000 0.24601  0.32367  0.00853  Biso   1.000  C
  C119     1.0000 0.29980  0.31389  0.99402  Biso   1.000  C
  H128     1.0000 0.31206  0.24311  0.96234  Biso   1.000  H
  H129     1.0000 0.31202  0.24311  0.96234  Biso   1.000  H
  H130     1.0000 0.25565  0.21711  0.00204  Biso   1.000  H
  H131     1.0000 0.25561  0.21711  0.00204  Biso   1.000  H
  H132     1.0000 0.26216  0.36722  0.01844  Biso   1.000  H
  H133     1.0000 0.22389  0.29752  0.03853  Biso   1.000  H
  H134     1.0000 0.32505  0.34394  0.96713  Biso   1.000  H
  H135     1.0000 0.32509  0.34394  0.96713  Biso   1.000  H
  H136     1.0000 0.32625  0.32141  0.02465  Biso   1.000  H
  C120     1.0000 0.96239  0.83567  0.38654  Biso   1.000  C
  C121     1.0000 0.96241  0.83572  0.38654  Biso   1.000  C
  H137     1.0000 0.91339  0.82847  0.44103  Biso   1.000  H
  H138     1.0000 0.91332  0.82843  0.44103  Biso   1.000  H
  C122     1.0000 0.91469  0.81357  0.34868  Biso   1.000  C
  O11      1.0000 0.94963  0.83572  0.43761  Biso   1.000  O
  C123     1.0000 0.02481  0.85918  0.37042  Biso   1.000  C
  C124     1.0000 0.02479  0.85923  0.37042  Biso   1.000  C
  C125     1.0000 0.84986  0.79142  0.36444  Biso   1.000  C
  C126     1.0000 0.93020  0.81559  0.29584  Biso   1.000  C
  C127     1.0000 0.93024  0.81559  0.29584  Biso   1.000  C
  C128     1.0000 0.07508  0.88707  0.40946  Biso   1.000  C
  C129     1.0000 0.03776  0.85984  0.31738  Biso   1.000  C
  C130     1.0000 0.07512  0.88707  0.40946  Biso   1.000  C
  N16      1.0000 0.83453  0.79189  0.41249  Biso   1.000  N
  H139     1.0000 0.81868  0.77646  0.33885  Biso   1.000  H
  H140     1.0000 0.89816  0.80087  0.27103  Biso   1.000  H
  H141     1.0000 0.89820  0.80087  0.27103  Biso   1.000  H
  C131     1.0000 0.99171  0.83868  0.27846  Biso   1.000  C
  C132     1.0000 0.99165  0.83863  0.27846  Biso   1.000  C
  H142     1.0000 0.07930  0.87508  0.30724  Biso   1.000  H
  H143     1.0000 0.07924  0.87503  0.30724  Biso   1.000  H
  H144     1.0000 0.07926  0.87508  0.30724  Biso   1.000  H
  H145     1.0000 0.07928  0.87503  0.30724  Biso   1.000  H
  N17      1.0000 0.13244  0.90682  0.40042  Biso   1.000  N
  N18      1.0000 0.13240  0.90682  0.40042  Biso   1.000  N
  H146     1.0000 0.06390  0.89046  0.44374  Biso   1.000  H
  C133     1.0000 0.76952  0.76969  0.42774  Biso   1.000  C
  C134     1.0000 0.76945  0.76964  0.42774  Biso   1.000  C
  C135     1.0000 0.00831  0.84696  0.22154  Biso   1.000  C
  C136     1.0000 0.17591  0.93603  0.44433  Biso   1.000  C
  C137     1.0000 0.76007  0.82410  0.44433  Biso   1.000  C
  C138     1.0000 0.76011  0.82410  0.44433  Biso   1.000  C
  H147     1.0000 0.74175  0.74763  0.39794  Biso   1.000  H
  C139     1.0000 0.75314  0.72365  0.47370  Biso   1.000  C
  C140     1.0000 0.96223  0.82208  0.18262  Biso   1.000  C
  C141     1.0000 0.96221  0.82203  0.18262  Biso   1.000  C
  C142     1.0000 0.06979  0.88538  0.20416  Biso   1.000  C
  H148     1.0000 0.15339  0.94204  0.47342  Biso   1.000  H
  C143     1.0000 0.20078  0.89356  0.46269  Biso   1.000  C
  C144     1.0000 0.23037  0.99989  0.42774  Biso   1.000  C
  H149     1.0000 0.15335  0.94204  0.47342  Biso   1.000  H
  C145     1.0000 0.23034  0.99984  0.42774  Biso   1.000  C
  C146     1.0000 0.20074  0.89356  0.46269  Biso   1.000  C
  C147     1.0000 0.69276  0.79927  0.46269  Biso   1.000  C
  H150     1.0000 0.78866  0.84667  0.47342  Biso   1.000  H
  N19      1.0000 0.77437  0.86760  0.40042  Biso   1.000  N
  N20      1.0000 0.77441  0.86760  0.40042  Biso   1.000  N
  C148     1.0000 0.68610  0.70018  0.49402  Biso   1.000  C
  H151     1.0000 0.78283  0.74434  0.50204  Biso   1.000  H
  H152     1.0000 0.78287  0.74434  0.50204  Biso   1.000  H
  H153     1.0000 0.75687  0.68796  0.46234  Biso   1.000  H
  H154     1.0000 0.92071  0.79579  0.19276  Biso   1.000  H
  C149     1.0000 0.97520  0.83440  0.12958  Biso   1.000  C
  H155     1.0000 0.92075  0.79579  0.19276  Biso   1.000  H
  C150     1.0000 0.08530  0.89887  0.15132  Biso   1.000  C
  C151     1.0000 0.08526  0.89887  0.15132  Biso   1.000  C
  H156     1.0000 0.10186  0.90268  0.22897  Biso   1.000  H
  H157     1.0000 0.16577  0.85326  0.47323  Biso   1.000  H
  H158     1.0000 0.22219  0.88636  0.43372  Biso   1.000  H
  C152     1.0000 0.24603  0.92239  0.50853  Biso   1.000  C
  H159     1.0000 0.22215  0.88636  0.43372  Biso   1.000  H
  C153     1.0000 0.24600  0.92234  0.50853  Biso   1.000  C
  H160     1.0000 0.25238  0.99415  0.39794  Biso   1.000  H
  H161     1.0000 0.25234  0.99415  0.39794  Biso   1.000  H
  N21      1.0000 0.20808  0.04264  0.41249  Biso   1.000  N
  C154     1.0000 0.27639  0.02947  0.47370  Biso   1.000  C
  H162     1.0000 0.68744  0.83426  0.47323  Biso   1.000  H
  H163     1.0000 0.66414  0.77787  0.43372  Biso   1.000  H
  C155     1.0000 0.67630  0.75398  0.50853  Biso   1.000  C
  H164     1.0000 0.68748  0.83426  0.47323  Biso   1.000  H
  H165     1.0000 0.66416  0.77783  0.43372  Biso   1.000  H
  C156     1.0000 0.67635  0.75398  0.50853  Biso   1.000  C
  H166     1.0000 0.66418  0.77787  0.43372  Biso   1.000  H
  C157     1.0000 0.81193  0.92497  0.40946  Biso   1.000  C
  C158     1.0000 0.81195  0.92493  0.40946  Biso   1.000  C
  C159     1.0000 0.81197  0.92497  0.40946  Biso   1.000  C
  H167     1.0000 0.67859  0.67376  0.52465  Biso   1.000  H
  H168     1.0000 0.65604  0.67493  0.46713  Biso   1.000  H
  C160     1.0000 0.92492  0.81197  0.09054  Biso   1.000  C
  C161     1.0000 0.03761  0.87329  0.11346  Biso   1.000  C
  C162     1.0000 0.15018  0.94157  0.13556  Biso   1.000  C
  C163     1.0000 0.15014  0.94157  0.13556  Biso   1.000  C
  H169     1.0000 0.22385  0.92634  0.53853  Biso   1.000  H
  H170     1.0000 0.26217  0.89497  0.51844  Biso   1.000  H
  C164     1.0000 0.29978  0.98592  0.49402  Biso   1.000  C
  H171     1.0000 0.22389  0.92634  0.53853  Biso   1.000  H
  H172     1.0000 0.26221  0.89497  0.51844  Biso   1.000  H
  C165     1.0000 0.20861  0.05844  0.36444  Biso   1.000  C
  C166     1.0000 0.20857  0.05844  0.36444  Biso   1.000  C
  H173     1.0000 0.25561  0.03850  0.50204  Biso   1.000  H
  H174     1.0000 0.31208  0.06892  0.46234  Biso   1.000  H
  H175     1.0000 0.63273  0.73785  0.51844  Biso   1.000  H
  H176     1.0000 0.70245  0.77613  0.53853  Biso   1.000  H
  H177     1.0000 0.63277  0.73785  0.51844  Biso   1.000  H
  H178     1.0000 0.82657  0.93617  0.44374  Biso   1.000  H
  C167     1.0000 0.83439  0.97520  0.37042  Biso   1.000  C
  H179     1.0000 0.93611  0.82659  0.05626  Biso   1.000  H
  N22      1.0000 0.86757  0.77439  0.09958  Biso   1.000  N
  H180     1.0000 0.93615  0.82659  0.05626  Biso   1.000  H
  O12      1.0000 0.05038  0.88613  0.06239  Biso   1.000  O
  O13      1.0000 0.05039  0.88608  0.06239  Biso   1.000  O
  H181     1.0000 0.18134  0.95780  0.16115  Biso   1.000  H
  N23      1.0000 0.16545  0.95738  0.08751  Biso   1.000  N
  H182     1.0000 0.32506  0.98117  0.46713  Biso   1.000  H
  H183     1.0000 0.32510  0.98117  0.46713  Biso   1.000  H
  H184     1.0000 0.32626  0.00483  0.52465  Biso   1.000  H
  H185     1.0000 0.32622  0.00483  0.52465  Biso   1.000  H
  C168     1.0000 0.18642  0.10114  0.34868  Biso   1.000  C
  H186     1.0000 0.22355  0.04221  0.33885  Biso   1.000  H
  H187     1.0000 0.22359  0.04221  0.33885  Biso   1.000  H
  C169     1.0000 0.82206  0.96227  0.31738  Biso   1.000  C
  C170     1.0000 0.87323  0.03756  0.38654  Biso   1.000  C
  C171     1.0000 0.82410  0.76010  0.05567  Biso   1.000  C
  H188     1.0000 0.08665  0.91510  0.05897  Biso   1.000  H
  H189     1.0000 0.08661  0.91510  0.05897  Biso   1.000  H
  C172     1.0000 0.23048  0.00012  0.07226  Biso   1.000  C
  C173     1.0000 0.23052  0.00012  0.07226  Biso   1.000  C
  C174     1.0000 0.16431  0.12672  0.38654  Biso   1.000  C
  C175     1.0000 0.18442  0.11463  0.29584  Biso   1.000  C
  C176     1.0000 0.18446  0.11463  0.29584  Biso   1.000  C
  H190     1.0000 0.79572  0.92074  0.30724  Biso   1.000  H
  H191     1.0000 0.79576  0.92074  0.30724  Biso   1.000  H
  C177     1.0000 0.84691  0.00831  0.27846  Biso   1.000  C
  O14      1.0000 0.88606  0.05035  0.43761  Biso   1.000  O
  C178     1.0000 0.89882  0.08524  0.34868  Biso   1.000  C
  C179     1.0000 0.76967  0.76950  0.07226  Biso   1.000  C
  H192     1.0000 0.84666  0.78869  0.02658  Biso   1.000  H
  C180     1.0000 0.79925  0.69280  0.03731  Biso   1.000  C
  C181     1.0000 0.24693  0.97054  0.02630  Biso   1.000  C
  H193     1.0000 0.25823  0.00586  0.10206  Biso   1.000  H
  C182     1.0000 0.23989  0.06399  0.05567  Biso   1.000  C
  C183     1.0000 0.23993  0.06399  0.05567  Biso   1.000  C
  C184     1.0000 0.14084  0.16561  0.37042  Biso   1.000  C
  O15      1.0000 0.16429  0.11388  0.43761  Biso   1.000  O
  C185     1.0000 0.16133  0.15301  0.27846  Biso   1.000  C
  C186     1.0000 0.16139  0.15305  0.27846  Biso   1.000  C
  H194     1.0000 0.19918  0.09733  0.27103  Biso   1.000  H
  C187     1.0000 0.83865  0.99171  0.22154  Biso   1.000  C
  C188     1.0000 0.88530  0.06977  0.29584  Biso   1.000  C
  H195     1.0000 0.91502  0.08661  0.44103  Biso   1.000  H
  C189     1.0000 0.94153  0.15014  0.36444  Biso   1.000  C
  C190     1.0000 0.94149  0.15014  0.36444  Biso   1.000  C
  N24      1.0000 0.79188  0.83454  0.08751  Biso   1.000  N
  H196     1.0000 0.74763  0.74180  0.10206  Biso   1.000  H
  C191     1.0000 0.72365  0.75314  0.02630  Biso   1.000  C
  H197     1.0000 0.83422  0.68749  0.02677  Biso   1.000  H
  C192     1.0000 0.75400  0.67634  0.99147  Biso   1.000  C
  H198     1.0000 0.77783  0.66421  0.06628  Biso   1.000  H
  H199     1.0000 0.77780  0.66416  0.06628  Biso   1.000  H
  H200     1.0000 0.21712  0.96151  0.99796  Biso   1.000  H
  H201     1.0000 0.21714  0.96147  0.99796  Biso   1.000  H
  H202     1.0000 0.24317  0.93109  0.03766  Biso   1.000  H
  C193     1.0000 0.31391  0.01409  0.00598  Biso   1.000  C
  N25      1.0000 0.22562  0.09319  0.09958  Biso   1.000  N
  H203     1.0000 0.21135  0.05797  0.02658  Biso   1.000  H
  C194     1.0000 0.30722  0.10645  0.03731  Biso   1.000  C
  H204     1.0000 0.21128  0.05792  0.02658  Biso   1.000  H
  H205     1.0000 0.21132  0.05792  0.02658  Biso   1.000  H
  C195     1.0000 0.11300  0.18804  0.40946  Biso   1.000  C
  C196     1.0000 0.14015  0.17793  0.31738  Biso   1.000  C
  H206     1.0000 0.17155  0.08491  0.44103  Biso   1.000  H
  C197     1.0000 0.15307  0.16133  0.22154  Biso   1.000  C
  C198     1.0000 0.81558  0.93024  0.20416  Biso   1.000  C
  C199     1.0000 0.85980  0.03774  0.18262  Biso   1.000  C
  H207     1.0000 0.90262  0.10180  0.27103  Biso   1.000  H
  N26      1.0000 0.95734  0.16547  0.41249  Biso   1.000  N
  H208     1.0000 0.95777  0.18132  0.33885  Biso   1.000  H
  H209     1.0000 0.95773  0.18132  0.33885  Biso   1.000  H
  N27      1.0000 0.95728  0.16542  0.41249  Biso   1.000  N
  C200     1.0000 0.79136  0.84987  0.13556  Biso   1.000  C
  C201     1.0000 0.79140  0.84987  0.13556  Biso   1.000  C
  H210     1.0000 0.74432  0.78291  0.99796  Biso   1.000  H
  H211     1.0000 0.74436  0.78291  0.99796  Biso   1.000  H
  C202     1.0000 0.70021  0.68612  0.00598  Biso   1.000  C
  H212     1.0000 0.68794  0.75690  0.03766  Biso   1.000  H
  H213     1.0000 0.77615  0.70249  0.96147  Biso   1.000  H
  H214     1.0000 0.73785  0.63280  0.98156  Biso   1.000  H
  H215     1.0000 0.32144  0.99519  0.97535  Biso   1.000  H
  H216     1.0000 0.32140  0.99519  0.97535  Biso   1.000  H
  C203     1.0000 0.32364  0.07762  0.99147  Biso   1.000  C
  C204     1.0000 0.32368  0.07762  0.99147  Biso   1.000  C
  H217     1.0000 0.34389  0.01884  0.03287  Biso   1.000  H
  H218     1.0000 0.34393  0.01884  0.03287  Biso   1.000  H
  C205     1.0000 0.18801  0.11294  0.09054  Biso   1.000  C
  C206     1.0000 0.18805  0.11294  0.09054  Biso   1.000  C
  H219     1.0000 0.31251  0.14675  0.02677  Biso   1.000  H
  H220     1.0000 0.33583  0.11365  0.06628  Biso   1.000  H
  H221     1.0000 0.33579  0.11365  0.06628  Biso   1.000  H
  H222     1.0000 0.31255  0.14675  0.02677  Biso   1.000  H
  N28      1.0000 0.09317  0.22562  0.40042  Biso   1.000  N
  N29      1.0000 0.09322  0.22562  0.40042  Biso   1.000  N
  H223     1.0000 0.10959  0.17342  0.44374  Biso   1.000  H
  H224     1.0000 0.12499  0.20422  0.30724  Biso   1.000  H
  C207     1.0000 0.11469  0.18442  0.20416  Biso   1.000  C
  C208     1.0000 0.17792  0.14017  0.18262  Biso   1.000  C
  H225     1.0000 0.80083  0.89822  0.22897  Biso   1.000  H
  C209     1.0000 0.81356  0.91472  0.15132  Biso   1.000  C
  H226     1.0000 0.80081  0.89817  0.22897  Biso   1.000  H
  H227     1.0000 0.87500  0.07922  0.19276  Biso   1.000  H
  C210     1.0000 0.85916  0.02481  0.12958  Biso   1.000  C
  C211     1.0000 0.85913  0.02476  0.12958  Biso   1.000  C
  C212     1.0000 0.00016  0.23051  0.42774  Biso   1.000  C
  H228     1.0000 0.77642  0.81869  0.16115  Biso   1.000  H
  H229     1.0000 0.67492  0.65607  0.03287  Biso   1.000  H
  H230     1.0000 0.67376  0.67860  0.97535  Biso   1.000  H
  H231     1.0000 0.29752  0.07367  0.96147  Biso   1.000  H
  H232     1.0000 0.36720  0.10504  0.98156  Biso   1.000  H
  H233     1.0000 0.29749  0.07363  0.96147  Biso   1.000  H
  H234     1.0000 0.29756  0.07367  0.96147  Biso   1.000  H
  H235     1.0000 0.36724  0.10504  0.98156  Biso   1.000  H
  H236     1.0000 0.29753  0.07363  0.96147  Biso   1.000  H
  C213     1.0000 0.16560  0.14078  0.12958  Biso   1.000  C
  H237     1.0000 0.17345  0.10955  0.05626  Biso   1.000  H
  C214     1.0000 0.06400  0.23991  0.44433  Biso   1.000  C
  C215     1.0000 0.10114  0.18640  0.15132  Biso   1.000  C
  C216     1.0000 0.10110  0.18640  0.15132  Biso   1.000  C
  H238     1.0000 0.09733  0.19914  0.22897  Biso   1.000  H
  H239     1.0000 0.20423  0.12493  0.19276  Biso   1.000  H
  H240     1.0000 0.20419  0.12493  0.19276  Biso   1.000  H
  C217     1.0000 0.83568  0.96245  0.11346  Biso   1.000  C
  C218     1.0000 0.83565  0.96241  0.11346  Biso   1.000  C
  C219     1.0000 0.88700  0.07504  0.09054  Biso   1.000  C
  C220     1.0000 0.97047  0.24687  0.47370  Biso   1.000  C
  H241     1.0000 0.00586  0.25821  0.39794  Biso   1.000  H
  H242     1.0000 0.00582  0.25821  0.39794  Biso   1.000  H
  C221     1.0000 0.12674  0.16429  0.11346  Biso   1.000  C
  C222     1.0000 0.10644  0.30721  0.46269  Biso   1.000  C
  H243     1.0000 0.05793  0.21132  0.47342  Biso   1.000  H
  C223     1.0000 0.10648  0.30721  0.46269  Biso   1.000  C
  C224     1.0000 0.05844  0.20859  0.13556  Biso   1.000  C
  C225     1.0000 0.05848  0.20859  0.13556  Biso   1.000  C
  O16      1.0000 0.83572  0.94966  0.06239  Biso   1.000  O
  N30      1.0000 0.90680  0.13241  0.09958  Biso   1.000  N
  H244     1.0000 0.89040  0.06384  0.05626  Biso   1.000  H
  N31      1.0000 0.90676  0.13241  0.09958  Biso   1.000  N
  H245     1.0000 0.96145  0.21711  0.50204  Biso   1.000  H
  H246     1.0000 0.93104  0.24311  0.46234  Biso   1.000  H
  H247     1.0000 0.96141  0.21711  0.50204  Biso   1.000  H
  C226     1.0000 0.01407  0.31389  0.49402  Biso   1.000  C
  O17      1.0000 0.11389  0.16425  0.06239  Biso   1.000  O
  O18      1.0000 0.11395  0.16429  0.06239  Biso   1.000  O
  C227     1.0000 0.07769  0.32367  0.50853  Biso   1.000  C
  H248     1.0000 0.11365  0.33580  0.43372  Biso   1.000  H
  H249     1.0000 0.14673  0.31252  0.47323  Biso   1.000  H
  N32      1.0000 0.04264  0.20812  0.08751  Biso   1.000  N
  N33      1.0000 0.04262  0.20808  0.08751  Biso   1.000  N
  N34      1.0000 0.04268  0.20812  0.08751  Biso   1.000  N
  H250     1.0000 0.04225  0.22355  0.16115  Biso   1.000  H
  H251     1.0000 0.82846  0.91341  0.05897  Biso   1.000  H
  C228     1.0000 0.93597  0.17591  0.05567  Biso   1.000  C
  C229     1.0000 0.93601  0.17591  0.05567  Biso   1.000  C
  H252     1.0000 0.99515  0.32141  0.52465  Biso   1.000  H
  H253     1.0000 0.01884  0.34394  0.46713  Biso   1.000  H
  H254     1.0000 0.08495  0.17154  0.05897  Biso   1.000  H
  H255     1.0000 0.07366  0.29752  0.53853  Biso   1.000  H
  H256     1.0000 0.10508  0.36722  0.51844  Biso   1.000  H
  C230     1.0000 0.99978  0.23032  0.07226  Biso   1.000  C
  H257     1.0000 0.94199  0.15334  0.02658  Biso   1.000  H
  C231     1.0000 0.89348  0.20074  0.03731  Biso   1.000  C
  H258     1.0000 0.99411  0.25238  0.10206  Biso   1.000  H
  H259     1.0000 0.99409  0.25233  0.10206  Biso   1.000  H
  C232     1.0000 0.02948  0.27636  0.02630  Biso   1.000  C
  C233     1.0000 0.92233  0.24598  0.99147  Biso   1.000  C
  C234     1.0000 0.92229  0.24598  0.99147  Biso   1.000  C
  H260     1.0000 0.85322  0.16575  0.02677  Biso   1.000  H
  H261     1.0000 0.88626  0.22214  0.06628  Biso   1.000  H
  H262     1.0000 0.88630  0.22214  0.06628  Biso   1.000  H
  H263     1.0000 0.85318  0.16575  0.02677  Biso   1.000  H
  C235     1.0000 0.98587  0.29983  0.00598  Biso   1.000  C
  C236     1.0000 0.98584  0.29978  0.00598  Biso   1.000  C
  H264     1.0000 0.03856  0.25567  0.99796  Biso   1.000  H
  H265     1.0000 0.06891  0.31205  0.03766  Biso   1.000  H
  H266     1.0000 0.06895  0.31205  0.03766  Biso   1.000  H
  H267     1.0000 0.92633  0.22383  0.96147  Biso   1.000  H
  H268     1.0000 0.89491  0.26216  0.98156  Biso   1.000  H
  H269     1.0000 0.92629  0.22383  0.96147  Biso   1.000  H
  H270     1.0000 0.98108  0.32503  0.03287  Biso   1.000  H
  H271     1.0000 0.00486  0.32625  0.97535  Biso   1.000  H
  C237     1.0000 0.65699  0.74434  0.65816  Biso   1.000  C
  C238     1.0000 0.64723  0.68076  0.67263  Biso   1.000  C
  C239     1.0000 0.64057  0.77317  0.70400  Biso   1.000  C
  H272     1.0000 0.63084  0.74035  0.62813  Biso   1.000  H
  H273     1.0000 0.70055  0.77176  0.64822  Biso   1.000  H
  C240     1.0000 0.58021  0.63722  0.69299  Biso   1.000  C
  H274     1.0000 0.67724  0.68556  0.69952  Biso   1.000  H
  H275     1.0000 0.65476  0.66186  0.64204  Biso   1.000  H
  C241     1.0000 0.57321  0.73066  0.72232  Biso   1.000  C
  H276     1.0000 0.64586  0.81347  0.69343  Biso   1.000  H
  H277     1.0000 0.66917  0.78037  0.73294  Biso   1.000  H
  C242     1.0000 0.56383  0.66684  0.73895  Biso   1.000  C
  H278     1.0000 0.55046  0.62814  0.66465  Biso   1.000  H
  H279     1.0000 0.57645  0.59776  0.70432  Biso   1.000  H
  N35      1.0000 0.55894  0.75986  0.76628  Biso   1.000  N
  H280     1.0000 0.54467  0.72464  0.69323  Biso   1.000  H
  N36      1.0000 0.49882  0.62405  0.75417  Biso   1.000  N
  H281     1.0000 0.59156  0.67253  0.76875  Biso   1.000  H
  C243     1.0000 0.52136  0.77966  0.75719  Biso   1.000  C
  C244     1.0000 0.48348  0.60820  0.80221  Biso   1.000  C
  C245     1.0000 0.49895  0.80750  0.79623  Biso   1.000  C
  H282     1.0000 0.50673  0.77623  0.72295  Biso   1.000  H
  C246     1.0000 0.41862  0.56555  0.81797  Biso   1.000  C
  H283     1.0000 0.51464  0.62442  0.82784  Biso   1.000  H
  C247     1.0000 0.46004  0.83101  0.78011  Biso   1.000  C
  C248     1.0000 0.51131  0.80689  0.84931  Biso   1.000  C
  C249     1.0000 0.37093  0.53996  0.78011  Biso   1.000  C
  C250     1.0000 0.40309  0.55200  0.87085  Biso   1.000  C
  C251     1.0000 0.43448  0.85312  0.81797  Biso   1.000  C
  O19      1.0000 0.44723  0.83097  0.72905  Biso   1.000  O
  H284     1.0000 0.53757  0.79165  0.85945  Biso   1.000  H
  C252     1.0000 0.48638  0.82805  0.88823  Biso   1.000  C
  C253     1.0000 0.30852  0.50107  0.79623  Biso   1.000  C
  O20      1.0000 0.38368  0.55276  0.72905  Biso   1.000  O
  C254     1.0000 0.34163  0.51363  0.88823  Biso   1.000  C
  H285     1.0000 0.43514  0.56936  0.89562  Biso   1.000  H
  C255     1.0000 0.39178  0.87531  0.80221  Biso   1.000  C
  C256     1.0000 0.44799  0.85114  0.87085  Biso   1.000  C
  H286     1.0000 0.41826  0.83826  0.72563  Biso   1.000  H
  C257     1.0000 0.49468  0.81973  0.94512  Biso   1.000  C
  C258     1.0000 0.25825  0.47864  0.75719  Biso   1.000  C
  C259     1.0000 0.29557  0.48870  0.84931  Biso   1.000  C
  H287     1.0000 0.41995  0.58172  0.72563  Biso   1.000  H
  C260     1.0000 0.32501  0.50530  0.94512  Biso   1.000  C
  N37      1.0000 0.37597  0.87480  0.75417  Biso   1.000  N
  H288     1.0000 0.37556  0.89027  0.82784  Biso   1.000  H
  H289     1.0000 0.43067  0.86586  0.89562  Biso   1.000  H
  C261     1.0000 0.47354  0.84465  0.98404  Biso   1.000  C
  C262     1.0000 0.51776  0.78135  0.96249  Biso   1.000  C
  N38      1.0000 0.20089  0.44107  0.76628  Biso   1.000  N
  H290     1.0000 0.26947  0.49327  0.72295  Biso   1.000  H
  H291     1.0000 0.25407  0.46246  0.85945  Biso   1.000  H
  C263     1.0000 0.37110  0.52647  0.98404  Biso   1.000  C
  C264     1.0000 0.26354  0.48221  0.96249  Biso   1.000  C
  C265     1.0000 0.33317  0.89704  0.73895  Biso   1.000  C
  C266     1.0000 0.47412  0.83228  0.03707  Biso   1.000  C
  H292     1.0000 0.45830  0.87094  0.97390  Biso   1.000  H
  C267     1.0000 0.51975  0.76781  0.01533  Biso   1.000  C
  H293     1.0000 0.53246  0.76400  0.93769  Biso   1.000  H
  C268     1.0000 0.15742  0.42677  0.72232  Biso   1.000  C
  H294     1.0000 0.41260  0.54170  0.97390  Biso   1.000  H
  C269     1.0000 0.35813  0.52586  0.03707  Biso   1.000  C
  H295     1.0000 0.23150  0.46750  0.93769  Biso   1.000  H
  C270     1.0000 0.24805  0.48024  0.01533  Biso   1.000  C
  C271     1.0000 0.26933  0.84258  0.72232  Biso   1.000  C
  H296     1.0000 0.32748  0.91905  0.76875  Biso   1.000  H
  C272     1.0000 0.36283  0.94308  0.69299  Biso   1.000  C
  C273     1.0000 0.44628  0.85472  0.07615  Biso   1.000  C
  C274     1.0000 0.49766  0.79344  0.05319  Biso   1.000  C
  C275     1.0000 0.54196  0.72516  0.03114  Biso   1.000  C
  C276     1.0000 0.13255  0.35943  0.70400  Biso   1.000  C
  H297     1.0000 0.17998  0.45536  0.69323  Biso   1.000  H
  C277     1.0000 0.10299  0.43618  0.73895  Biso   1.000  C
  C278     1.0000 0.29571  0.50234  0.05319  Biso   1.000  C
  C279     1.0000 0.40838  0.55370  0.07615  Biso   1.000  C
  C280     1.0000 0.18316  0.45804  0.03114  Biso   1.000  C
  N39      1.0000 0.24015  0.79913  0.76628  Biso   1.000  N
  H298     1.0000 0.27538  0.82006  0.69323  Biso   1.000  H
  C281     1.0000 0.22687  0.86746  0.70400  Biso   1.000  C
  C282     1.0000 0.31923  0.96650  0.67263  Biso   1.000  C
  H299     1.0000 0.37184  0.92234  0.66465  Biso   1.000  H
  H300     1.0000 0.40226  0.97877  0.70432  Biso   1.000  H
  N40      1.0000 0.42650  0.89229  0.06707  Biso   1.000  N
  H301     1.0000 0.44290  0.84014  0.11039  Biso   1.000  H
  O21      1.0000 0.49759  0.78060  0.10430  Biso   1.000  O
  N41      1.0000 0.54147  0.70936  0.07914  Biso   1.000  N
  H302     1.0000 0.55689  0.70893  0.00550  Biso   1.000  H
  C283     1.0000 0.08732  0.34301  0.65816  Biso   1.000  C
  H303     1.0000 0.16758  0.35416  0.69343  Biso   1.000  H
  H304     1.0000 0.11117  0.33083  0.73294  Biso   1.000  H
  C284     1.0000 0.05695  0.41976  0.69299  Biso   1.000  C
  N42      1.0000 0.12520  0.50121  0.75417  Biso   1.000  N
  H305     1.0000 0.08097  0.40843  0.76875  Biso   1.000  H
  O22      1.0000 0.28295  0.50239  0.10430  Biso   1.000  O
  N43      1.0000 0.46576  0.57349  0.06707  Biso   1.000  N
  H306     1.0000 0.39718  0.55713  0.11039  Biso   1.000  H
  N44      1.0000 0.16786  0.45856  0.07914  Biso   1.000  N
  H307     1.0000 0.15198  0.44309  0.00550  Biso   1.000  H
  C285     1.0000 0.22034  0.74176  0.75719  Biso   1.000  C
  H308     1.0000 0.18657  0.83247  0.69343  Biso   1.000  H
  H309     1.0000 0.21965  0.88886  0.73294  Biso   1.000  H
  C286     1.0000 0.25568  0.91270  0.65816  Biso   1.000  C
  H310     1.0000 0.31447  0.99175  0.69952  Biso   1.000  H
  H311     1.0000 0.33817  0.99297  0.64204  Biso   1.000  H
  C287     1.0000 0.39732  0.90659  0.11102  Biso   1.000  C
  H312     1.0000 0.50490  0.75163  0.10768  Biso   1.000  H
  C288     1.0000 0.56366  0.66651  0.09439  Biso   1.000  C
  H313     1.0000 0.10948  0.36916  0.62813  Biso   1.000  H
  H314     1.0000 0.07115  0.29942  0.64822  Biso   1.000  H
  C289     1.0000 0.03350  0.35275  0.67263  Biso   1.000  C
  H315     1.0000 0.07766  0.44953  0.66465  Biso   1.000  H
  H316     1.0000 0.02124  0.42353  0.70432  Biso   1.000  H
  C290     1.0000 0.12472  0.51654  0.80221  Biso   1.000  C
  H317     1.0000 0.24668  0.49510  0.10768  Biso   1.000  H
  C291     1.0000 0.50924  0.60270  0.11102  Biso   1.000  C
  C292     1.0000 0.10282  0.43632  0.09439  Biso   1.000  C
  C293     1.0000 0.19252  0.69148  0.79623  Biso   1.000  C
  H318     1.0000 0.22379  0.73056  0.72295  Biso   1.000  H
  H319     1.0000 0.25967  0.89055  0.62813  Biso   1.000  H
  H320     1.0000 0.22823  0.92883  0.64822  Biso   1.000  H
  C294     1.0000 0.33348  0.89718  0.09439  Biso   1.000  C
  H321     1.0000 0.39131  0.87804  0.14012  Biso   1.000  H
  C295     1.0000 0.43979  0.97393  0.12934  Biso   1.000  C
  H322     1.0000 0.58570  0.66082  0.06459  Biso   1.000  H
  C296     1.0000 0.60970  0.69619  0.14035  Biso   1.000  C
  H323     1.0000 0.00828  0.32275  0.69952  Biso   1.000  H
  H324     1.0000 0.00706  0.34523  0.64204  Biso   1.000  H
  C297     1.0000 0.14689  0.58139  0.81797  Biso   1.000  C
  H325     1.0000 0.10979  0.48537  0.82784  Biso   1.000  H
  H326     1.0000 0.48671  0.60872  0.14012  Biso   1.000  H
  C298     1.0000 0.53408  0.56019  0.12934  Biso   1.000  C
  C299     1.0000 0.09343  0.49077  0.11102  Biso   1.000  C
  H327     1.0000 0.07512  0.41431  0.06459  Biso   1.000  H
  C300     1.0000 0.08644  0.39028  0.14035  Biso   1.000  C
  C301     1.0000 0.16902  0.62908  0.78011  Biso   1.000  C
  C302     1.0000 0.19315  0.70446  0.84931  Biso   1.000  C
  N45      1.0000 0.29066  0.83214  0.07914  Biso   1.000  N
  H328     1.0000 0.33921  0.92493  0.06459  Biso   1.000  H
  C303     1.0000 0.30386  0.91359  0.14035  Biso   1.000  C
  C304     1.0000 0.41097  0.99034  0.17518  Biso   1.000  C
  H329     1.0000 0.48011  0.97924  0.13988  Biso   1.000  H
  H330     1.0000 0.44697  0.00247  0.10041  Biso   1.000  H
  C305     1.0000 0.63315  0.65259  0.16072  Biso   1.000  C
  H331     1.0000 0.58900  0.70522  0.16870  Biso   1.000  H
  H332     1.0000 0.64536  0.73560  0.12899  Biso   1.000  H
  C306     1.0000 0.14890  0.59691  0.87085  Biso   1.000  C
  H333     1.0000 0.49909  0.51993  0.13988  Biso   1.000  H
  H334     1.0000 0.55549  0.55299  0.10041  Biso   1.000  H
  C307     1.0000 0.57932  0.58901  0.17518  Biso   1.000  C
  N46      1.0000 0.10773  0.53427  0.06707  Biso   1.000  N
  H335     1.0000 0.12200  0.51330  0.14012  Biso   1.000  H
  C308     1.0000 0.02610  0.46590  0.12934  Biso   1.000  C
  C309     1.0000 0.01942  0.36686  0.16072  Biso   1.000  C
  H336     1.0000 0.11619  0.41102  0.16870  Biso   1.000  H
  H337     1.0000 0.09020  0.35463  0.12899  Biso   1.000  H
  O23      1.0000 0.16902  0.61629  0.72905  Biso   1.000  O
  C310     1.0000 0.17198  0.65838  0.88823  Biso   1.000  C
  H338     1.0000 0.20835  0.74594  0.85945  Biso   1.000  H
  C311     1.0000 0.27488  0.81686  0.03114  Biso   1.000  C
  C312     1.0000 0.34742  0.98061  0.16072  Biso   1.000  C
  H339     1.0000 0.29480  0.88383  0.16870  Biso   1.000  H
  H340     1.0000 0.26439  0.90983  0.12899  Biso   1.000  H
  H341     1.0000 0.40700  0.96424  0.20518  Biso   1.000  H
  H342     1.0000 0.43836  0.03389  0.18509  Biso   1.000  H
  H343     1.0000 0.65836  0.64780  0.13379  Biso   1.000  H
  H344     1.0000 0.65958  0.67150  0.19130  Biso   1.000  H
  H345     1.0000 0.13417  0.56484  0.89562  Biso   1.000  H
  H346     1.0000 0.55717  0.59301  0.20518  Biso   1.000  H
  H347     1.0000 0.59547  0.56160  0.18509  Biso   1.000  H
  C313     1.0000 0.14527  0.59160  0.07615  Biso   1.000  C
  H348     1.0000 0.99744  0.44450  0.10041  Biso   1.000  H
  H349     1.0000 0.02081  0.50093  0.13988  Biso   1.000  H
  C314     1.0000 0.00967  0.42066  0.17518  Biso   1.000  C
  H350     1.0000 0.98941  0.34160  0.13379  Biso   1.000  H
  H351     1.0000 0.01191  0.34043  0.19130  Biso   1.000  H
  H352     1.0000 0.16176  0.58003  0.72563  Biso   1.000  H
  C315     1.0000 0.18028  0.67498  0.94512  Biso   1.000  C
  C316     1.0000 0.23217  0.75196  0.01533  Biso   1.000  C
  H353     1.0000 0.29112  0.84804  0.00550  Biso   1.000  H
  H354     1.0000 0.32850  0.98813  0.19130  Biso   1.000  H
  H355     1.0000 0.35218  0.01056  0.13379  Biso   1.000  H
  C317     1.0000 0.16772  0.64187  0.03707  Biso   1.000  C
  H356     1.0000 0.15991  0.60279  0.11039  Biso   1.000  H
  H357     1.0000 0.96609  0.40453  0.18509  Biso   1.000  H
  H358     1.0000 0.03581  0.44281  0.20518  Biso   1.000  H
  C318     1.0000 0.15536  0.62889  0.98404  Biso   1.000  C
  C319     1.0000 0.21866  0.73644  0.96249  Biso   1.000  C
  C320     1.0000 0.20661  0.70428  0.05319  Biso   1.000  C
  H359     1.0000 0.12909  0.58741  0.97390  Biso   1.000  H
  H360     1.0000 0.23600  0.76851  0.93769  Biso   1.000  H
  O24      1.0000 0.21940  0.71707  0.10430  Biso   1.000  O
  H361     1.0000 0.24840  0.75333  0.10768  Biso   1.000  H
  C321     1.0000 0.69612  0.60970  0.35965  Biso   1.000  C
  C322     1.0000 0.66649  0.56371  0.40561  Biso   1.000  C
  C323     1.0000 0.65255  0.63317  0.33928  Biso   1.000  C
  H362     1.0000 0.70521  0.58901  0.33130  Biso   1.000  H
  H363     1.0000 0.73560  0.64540  0.37101  Biso   1.000  H
  C324     1.0000 0.60265  0.50926  0.38898  Biso   1.000  C
  N47      1.0000 0.70929  0.54147  0.42086  Biso   1.000  N
  H364     1.0000 0.66080  0.58572  0.43541  Biso   1.000  H
  C325     1.0000 0.58900  0.57937  0.32482  Biso   1.000  C
  H365     1.0000 0.64779  0.65842  0.36621  Biso   1.000  H
  H366     1.0000 0.67147  0.65960  0.30870  Biso   1.000  H
  N48      1.0000 0.57345  0.46576  0.43293  Biso   1.000  N
  H367     1.0000 0.60870  0.48673  0.35988  Biso   1.000  H
  C326     1.0000 0.56019  0.53413  0.37066  Biso   1.000  C
  C327     1.0000 0.72512  0.54194  0.46886  Biso   1.000  C
  H368     1.0000 0.59300  0.55722  0.29482  Biso   1.000  H
  H369     1.0000 0.56160  0.59550  0.31491  Biso   1.000  H
  C328     1.0000 0.55371  0.40843  0.42385  Biso   1.000  C
  H370     1.0000 0.51987  0.49910  0.36012  Biso   1.000  H
  H371     1.0000 0.55301  0.55553  0.39959  Biso   1.000  H
  C329     1.0000 0.76781  0.51979  0.48467  Biso   1.000  C
  H372     1.0000 0.70886  0.55689  0.49450  Biso   1.000  H
  C330     1.0000 0.52584  0.35816  0.46293  Biso   1.000  C
  H373     1.0000 0.55709  0.39719  0.38961  Biso   1.000  H
  C331     1.0000 0.79341  0.49769  0.44681  Biso   1.000  C
  C332     1.0000 0.78129  0.51777  0.53751  Biso   1.000  C
  C333     1.0000 0.50234  0.29575  0.44681  Biso   1.000  C
  C334     1.0000 0.52645  0.37109  0.51596  Biso   1.000  C
  O25      1.0000 0.78055  0.49764  0.39570  Biso   1.000  O
  C335     1.0000 0.83227  0.47417  0.46293  Biso   1.000  C
  C336     1.0000 0.81970  0.49472  0.55488  Biso   1.000  C
  H374     1.0000 0.76400  0.53253  0.56231  Biso   1.000  H
  O26      1.0000 0.50238  0.28296  0.39570  Biso   1.000  O
  C337     1.0000 0.48025  0.24807  0.48467  Biso   1.000  C
  H375     1.0000 0.54171  0.41261  0.52610  Biso   1.000  H
  C338     1.0000 0.50528  0.32500  0.55488  Biso   1.000  C
  H376     1.0000 0.75158  0.50493  0.39232  Biso   1.000  H
  C339     1.0000 0.84463  0.47356  0.51596  Biso   1.000  C
  C340     1.0000 0.85470  0.44629  0.42385  Biso   1.000  C
  C341     1.0000 0.82800  0.48640  0.61177  Biso   1.000  C
  H377     1.0000 0.49508  0.24670  0.39232  Biso   1.000  H
  C342     1.0000 0.48220  0.26354  0.53751  Biso   1.000  C
  C343     1.0000 0.45802  0.18317  0.46886  Biso   1.000  C
  C344     1.0000 0.51360  0.34165  0.61177  Biso   1.000  C
  H378     1.0000 0.87090  0.45832  0.52610  Biso   1.000  H
  N49      1.0000 0.89226  0.42653  0.43293  Biso   1.000  N
  H379     1.0000 0.84009  0.44290  0.38961  Biso   1.000  H
  C345     1.0000 0.80686  0.51132  0.65069  Biso   1.000  C
  C346     1.0000 0.85109  0.44803  0.62915  Biso   1.000  C
  H380     1.0000 0.46749  0.23151  0.56231  Biso   1.000  H
  N50      1.0000 0.45853  0.16789  0.42086  Biso   1.000  N
  H381     1.0000 0.44309  0.15199  0.49450  Biso   1.000  H
  C347     1.0000 0.48868  0.29556  0.65069  Biso   1.000  C
  C348     1.0000 0.55199  0.40312  0.62915  Biso   1.000  C
  C349     1.0000 0.90654  0.39733  0.38898  Biso   1.000  C
  C350     1.0000 0.80748  0.49896  0.70377  Biso   1.000  C
  H382     1.0000 0.79160  0.53757  0.64055  Biso   1.000  H
  C351     1.0000 0.85307  0.43448  0.68203  Biso   1.000  C
  H383     1.0000 0.86583  0.43067  0.60438  Biso   1.000  H
  C352     1.0000 0.43629  0.10280  0.40561  Biso   1.000  C
  C353     1.0000 0.50104  0.30854  0.70377  Biso   1.000  C
  H384     1.0000 0.46245  0.25409  0.64055  Biso   1.000  H
  C354     1.0000 0.56553  0.41863  0.68203  Biso   1.000  C
  H385     1.0000 0.56933  0.43519  0.60438  Biso   1.000  H
  C355     1.0000 0.89715  0.33352  0.40561  Biso   1.000  C
  H386     1.0000 0.87799  0.39131  0.35988  Biso   1.000  H
  C356     1.0000 0.97387  0.43980  0.37066  Biso   1.000  C
  C357     1.0000 0.77960  0.52139  0.74281  Biso   1.000  C
  C358     1.0000 0.83096  0.46006  0.71989  Biso   1.000  C
  C359     1.0000 0.87526  0.39178  0.69779  Biso   1.000  C
  C360     1.0000 0.49074  0.09344  0.38898  Biso   1.000  C
  H387     1.0000 0.41430  0.07510  0.43541  Biso   1.000  H
  C361     1.0000 0.39027  0.08644  0.35965  Biso   1.000  C
  C362     1.0000 0.53994  0.37095  0.71989  Biso   1.000  C
  C363     1.0000 0.47863  0.25827  0.74281  Biso   1.000  C
  C364     1.0000 0.60818  0.48348  0.69779  Biso   1.000  C
  N51      1.0000 0.83212  0.29067  0.42086  Biso   1.000  N
  H388     1.0000 0.92488  0.33921  0.43541  Biso   1.000  H
  C365     1.0000 0.91355  0.30384  0.35965  Biso   1.000  C
  H389     1.0000 0.97916  0.48010  0.36012  Biso   1.000  H
  C366     1.0000 0.99031  0.41102  0.32482  Biso   1.000  C
  H390     1.0000 0.00251  0.44699  0.39959  Biso   1.000  H
  N52      1.0000 0.75986  0.55896  0.73372  Biso   1.000  N
  H391     1.0000 0.77620  0.50676  0.77705  Biso   1.000  H
  O27      1.0000 0.83096  0.44727  0.77095  Biso   1.000  O
  N53      1.0000 0.87477  0.37598  0.74583  Biso   1.000  N
  H392     1.0000 0.89019  0.37556  0.67216  Biso   1.000  H
  N54      1.0000 0.53423  0.10769  0.43293  Biso   1.000  N
  H393     1.0000 0.51328  0.12199  0.35988  Biso   1.000  H
  C367     1.0000 0.46591  0.02610  0.37066  Biso   1.000  C
  C368     1.0000 0.36683  0.01942  0.33928  Biso   1.000  C
  H394     1.0000 0.41098  0.11620  0.33130  Biso   1.000  H
  H395     1.0000 0.35461  0.09020  0.37101  Biso   1.000  H
  O28      1.0000 0.55274  0.38369  0.77095  Biso   1.000  O
  N55      1.0000 0.44103  0.20090  0.73372  Biso   1.000  N
  H396     1.0000 0.49323  0.26946  0.77705  Biso   1.000  H
  N56      1.0000 0.62399  0.49882  0.74583  Biso   1.000  N
  H397     1.0000 0.62442  0.51466  0.67216  Biso   1.000  H
  C369     1.0000 0.81680  0.27487  0.46886  Biso   1.000  C
  C370     1.0000 0.98055  0.34744  0.33928  Biso   1.000  C
  H398     1.0000 0.88379  0.29481  0.33130  Biso   1.000  H
  H399     1.0000 0.90979  0.26439  0.37101  Biso   1.000  H
  H400     1.0000 0.96420  0.40702  0.29482  Biso   1.000  H
  H401     1.0000 0.03393  0.43839  0.31491  Biso   1.000  H
  C371     1.0000 0.73064  0.57326  0.77768  Biso   1.000  C
  H402     1.0000 0.83820  0.41826  0.77437  Biso   1.000  H
  C372     1.0000 0.89699  0.33319  0.76105  Biso   1.000  C
  C373     1.0000 0.59157  0.14531  0.42385  Biso   1.000  C
  H403     1.0000 0.50088  0.02079  0.36012  Biso   1.000  H
  C374     1.0000 0.42062  0.00964  0.32482  Biso   1.000  C
  H404     1.0000 0.44451  0.99755  0.39959  Biso   1.000  H
  H405     1.0000 0.34038  0.01190  0.30870  Biso   1.000  H
  H406     1.0000 0.34163  0.98947  0.36621  Biso   1.000  H
  H407     1.0000 0.58173  0.42000  0.77437  Biso   1.000  H
  C375     1.0000 0.42673  0.15740  0.77768  Biso   1.000  C
  C376     1.0000 0.66681  0.56385  0.76105  Biso   1.000  C
  C377     1.0000 0.75192  0.23217  0.48467  Biso   1.000  C
  H408     1.0000 0.84797  0.29110  0.49450  Biso   1.000  H
  H409     1.0000 0.98806  0.32848  0.30870  Biso   1.000  H
  H410     1.0000 0.01062  0.35219  0.36621  Biso   1.000  H
  H411     1.0000 0.72461  0.54467  0.80677  Biso   1.000  H
  C378     1.0000 0.77315  0.64060  0.79600  Biso   1.000  C
  C379     1.0000 0.84254  0.26932  0.77768  Biso   1.000  C
  H412     1.0000 0.91903  0.32750  0.73125  Biso   1.000  H
  C380     1.0000 0.94304  0.36281  0.80701  Biso   1.000  C
  C381     1.0000 0.64186  0.16770  0.46293  Biso   1.000  C
  H413     1.0000 0.60277  0.15989  0.38961  Biso   1.000  H
  H414     1.0000 0.44278  0.03579  0.29482  Biso   1.000  H
  H415     1.0000 0.40449  0.96614  0.31491  Biso   1.000  H
  H416     1.0000 0.45533  0.17997  0.80677  Biso   1.000  H
  C382     1.0000 0.35942  0.13257  0.79600  Biso   1.000  C
  C383     1.0000 0.43614  0.10299  0.76105  Biso   1.000  C
  H417     1.0000 0.67253  0.59160  0.73125  Biso   1.000  H
  C384     1.0000 0.63716  0.58022  0.80701  Biso   1.000  C
  C385     1.0000 0.70423  0.20659  0.44681  Biso   1.000  C
  C386     1.0000 0.73642  0.21868  0.53751  Biso   1.000  C
  C387     1.0000 0.74429  0.65701  0.84184  Biso   1.000  C
  H418     1.0000 0.81341  0.64587  0.80657  Biso   1.000  H
  H419     1.0000 0.78032  0.66919  0.76706  Biso   1.000  H
  N57      1.0000 0.79906  0.24012  0.73372  Biso   1.000  N
  H420     1.0000 0.82004  0.27539  0.80677  Biso   1.000  H
  C388     1.0000 0.86741  0.22686  0.79600  Biso   1.000  C
  C389     1.0000 0.96647  0.31927  0.82737  Biso   1.000  C
  H421     1.0000 0.92232  0.37189  0.83535  Biso   1.000  H
  H422     1.0000 0.97873  0.40227  0.79568  Biso   1.000  H
  C390     1.0000 0.62890  0.15538  0.51596  Biso   1.000  C
  H423     1.0000 0.35411  0.16756  0.80657  Biso   1.000  H
  H424     1.0000 0.33084  0.11117  0.76706  Biso   1.000  H
  C391     1.0000 0.34299  0.08733  0.84184  Biso   1.000  C
  N58      1.0000 0.50118  0.12523  0.74583  Biso   1.000  N
  H425     1.0000 0.40844  0.08098  0.73125  Biso   1.000  H
  C392     1.0000 0.41976  0.05695  0.80701  Biso   1.000  C
  C393     1.0000 0.68074  0.64728  0.82737  Biso   1.000  C
  H426     1.0000 0.62812  0.55050  0.83535  Biso   1.000  H
  H427     1.0000 0.59773  0.57646  0.79568  Biso   1.000  H
  O29      1.0000 0.71704  0.21943  0.39570  Biso   1.000  O
  C394     1.0000 0.67496  0.18030  0.55488  Biso   1.000  C
  H428     1.0000 0.76848  0.23598  0.56231  Biso   1.000  H
  H429     1.0000 0.74030  0.63087  0.87187  Biso   1.000  H
  H430     1.0000 0.77169  0.70056  0.85178  Biso   1.000  H
  C395     1.0000 0.74174  0.22037  0.74281  Biso   1.000  C
  H431     1.0000 0.83239  0.18656  0.80657  Biso   1.000  H
  H432     1.0000 0.88881  0.21966  0.76706  Biso   1.000  H
  C396     1.0000 0.91265  0.25569  0.84184  Biso   1.000  C
  H433     1.0000 0.99172  0.31447  0.80048  Biso   1.000  H
  H434     1.0000 0.99290  0.33817  0.85796  Biso   1.000  H
  H435     1.0000 0.58737  0.12909  0.52610  Biso   1.000  H
  H436     1.0000 0.36913  0.10948  0.87187  Biso   1.000  H
  H437     1.0000 0.29943  0.07115  0.85178  Biso   1.000  H
  C397     1.0000 0.35274  0.03353  0.82737  Biso   1.000  C
  C398     1.0000 0.51652  0.12472  0.69779  Biso   1.000  C
  H438     1.0000 0.44955  0.07769  0.83535  Biso   1.000  H
  H439     1.0000 0.42354  0.02126  0.79568  Biso   1.000  H
  H440     1.0000 0.68552  0.67728  0.80048  Biso   1.000  H
  H441     1.0000 0.66180  0.65476  0.85796  Biso   1.000  H
  H442     1.0000 0.75327  0.24840  0.39232  Biso   1.000  H
  C399     1.0000 0.65833  0.17198  0.61177  Biso   1.000  C
  C400     1.0000 0.69145  0.19253  0.70377  Biso   1.000  C
  H443     1.0000 0.73052  0.22375  0.77705  Biso   1.000  H
  H444     1.0000 0.89054  0.25968  0.87187  Biso   1.000  H
  H445     1.0000 0.92883  0.22827  0.85178  Biso   1.000  H
  H446     1.0000 0.32273  0.00828  0.80048  Biso   1.000  H
  H447     1.0000 0.34521  0.00705  0.85796  Biso   1.000  H
  C401     1.0000 0.58137  0.14691  0.68203  Biso   1.000  C
  H448     1.0000 0.48530  0.10976  0.67216  Biso   1.000  H
  C402     1.0000 0.70443  0.19314  0.65069  Biso   1.000  C
  C403     1.0000 0.59686  0.14889  0.62915  Biso   1.000  C
  C404     1.0000 0.62908  0.16901  0.71989  Biso   1.000  C
  H449     1.0000 0.74593  0.20838  0.64055  Biso   1.000  H
  H450     1.0000 0.56482  0.13417  0.60438  Biso   1.000  H
  O30      1.0000 0.61627  0.16906  0.77095  Biso   1.000  O
  H451     1.0000 0.58001  0.16177  0.77437  Biso   1.000  H
  C405     1.0000 0.91265  0.65701  0.34184  Biso   1.000  C
  C406     1.0000 0.86743  0.64060  0.29600  Biso   1.000  C
  H452     1.0000 0.89050  0.63087  0.37187  Biso   1.000  H
  H453     1.0000 0.92880  0.70056  0.35178  Biso   1.000  H
  C407     1.0000 0.96647  0.64728  0.32737  Biso   1.000  C
  C408     1.0000 0.84255  0.57326  0.27768  Biso   1.000  C
  H454     1.0000 0.83243  0.64587  0.30657  Biso   1.000  H
  H455     1.0000 0.88881  0.66919  0.26706  Biso   1.000  H
  C409     1.0000 0.94300  0.58022  0.30701  Biso   1.000  C
  H456     1.0000 0.99173  0.67728  0.30048  Biso   1.000  H
  H457     1.0000 0.99289  0.65476  0.35796  Biso   1.000  H
  N59      1.0000 0.79908  0.55896  0.23372  Biso   1.000  N
  H458     1.0000 0.81999  0.54467  0.30677  Biso   1.000  H
  C410     1.0000 0.89698  0.56385  0.26105  Biso   1.000  C
  H459     1.0000 0.92232  0.55050  0.33535  Biso   1.000  H
  H460     1.0000 0.97871  0.57646  0.29568  Biso   1.000  H
  C411     1.0000 0.74173  0.52139  0.24281  Biso   1.000  C
  N60      1.0000 0.87477  0.49882  0.24583  Biso   1.000  N
  H461     1.0000 0.91904  0.59160  0.23125  Biso   1.000  H
  C412     1.0000 0.69146  0.49896  0.20377  Biso   1.000  C
  H462     1.0000 0.73050  0.50676  0.27705  Biso   1.000  H
  C413     1.0000 0.87525  0.48348  0.19779  Biso   1.000  C
  C414     1.0000 0.62905  0.46006  0.21989  Biso   1.000  C
  C415     1.0000 0.70444  0.51132  0.15069  Biso   1.000  C
  C416     1.0000 0.85309  0.41863  0.18203  Biso   1.000  C
  H463     1.0000 0.89023  0.51466  0.17216  Biso   1.000  H
  C417     1.0000 0.58135  0.43448  0.18203  Biso   1.000  C
  O31      1.0000 0.61630  0.44727  0.27095  Biso   1.000  O
  C418     1.0000 0.65834  0.48640  0.11177  Biso   1.000  C
  H464     1.0000 0.74590  0.53757  0.14055  Biso   1.000  H
  C419     1.0000 0.83100  0.37095  0.21989  Biso   1.000  C
  C420     1.0000 0.85107  0.40312  0.12915  Biso   1.000  C
  C421     1.0000 0.51651  0.39178  0.19779  Biso   1.000  C
  C422     1.0000 0.59688  0.44803  0.12915  Biso   1.000  C
  H465     1.0000 0.58000  0.41826  0.27437  Biso   1.000  H
  C423     1.0000 0.67496  0.49472  0.05488  Biso   1.000  C
  C424     1.0000 0.80745  0.30854  0.20377  Biso   1.000  C
  O32      1.0000 0.83093  0.38369  0.27095  Biso   1.000  O
  C425     1.0000 0.82800  0.34165  0.11177  Biso   1.000  C
  H466     1.0000 0.86580  0.43519  0.10438  Biso   1.000  H
  N61      1.0000 0.50120  0.37598  0.24583  Biso   1.000  N
  H467     1.0000 0.48531  0.37556  0.17216  Biso   1.000  H
  H468     1.0000 0.56483  0.43067  0.10438  Biso   1.000  H
  C426     1.0000 0.62891  0.47356  0.01596  Biso   1.000  C
  C427     1.0000 0.73641  0.51777  0.03751  Biso   1.000  C
  C428     1.0000 0.77963  0.25827  0.24281  Biso   1.000  C
  C429     1.0000 0.80683  0.29556  0.15069  Biso   1.000  C
  H469     1.0000 0.83821  0.42000  0.27437  Biso   1.000  H
  C430     1.0000 0.81967  0.32500  0.05488  Biso   1.000  C
  C431     1.0000 0.43614  0.33319  0.26105  Biso   1.000  C
  H470     1.0000 0.58741  0.45832  0.02610  Biso   1.000  H
  C432     1.0000 0.64184  0.47417  0.96293  Biso   1.000  C
  H471     1.0000 0.76848  0.53253  0.06231  Biso   1.000  H
  C433     1.0000 0.75196  0.51979  0.98467  Biso   1.000  C
  N62      1.0000 0.75982  0.20090  0.23372  Biso   1.000  N
  H472     1.0000 0.77623  0.26946  0.27705  Biso   1.000  H
  H473     1.0000 0.79163  0.25409  0.14055  Biso   1.000  H
  C434     1.0000 0.84459  0.37109  0.01596  Biso   1.000  C
  C435     1.0000 0.78129  0.26354  0.03751  Biso   1.000  C
  C436     1.0000 0.41976  0.36281  0.30701  Biso   1.000  C
  H474     1.0000 0.40842  0.32750  0.23125  Biso   1.000  H
  C437     1.0000 0.42674  0.26932  0.27768  Biso   1.000  C
  C438     1.0000 0.70426  0.49769  0.94681  Biso   1.000  C
  C439     1.0000 0.59157  0.44629  0.92385  Biso   1.000  C
  C440     1.0000 0.81679  0.54194  0.96886  Biso   1.000  C
  C441     1.0000 0.73062  0.15740  0.27768  Biso   1.000  C
  C442     1.0000 0.83226  0.35816  0.96293  Biso   1.000  C
  H475     1.0000 0.87089  0.41261  0.02610  Biso   1.000  H
  C443     1.0000 0.76781  0.24807  0.98467  Biso   1.000  C
  H476     1.0000 0.76397  0.23151  0.06231  Biso   1.000  H
  C444     1.0000 0.35274  0.31927  0.32737  Biso   1.000  C
  H477     1.0000 0.44955  0.37189  0.33535  Biso   1.000  H
  H478     1.0000 0.42352  0.40227  0.29568  Biso   1.000  H
  C445     1.0000 0.35940  0.22686  0.29600  Biso   1.000  C
  N63      1.0000 0.44101  0.24012  0.23372  Biso   1.000  N
  H479     1.0000 0.45534  0.27539  0.30677  Biso   1.000  H
  O33      1.0000 0.71702  0.49764  0.89570  Biso   1.000  O
  N64      1.0000 0.53421  0.42653  0.93293  Biso   1.000  N
  H480     1.0000 0.60279  0.44290  0.88961  Biso   1.000  H
  N65      1.0000 0.83212  0.54147  0.92086  Biso   1.000  N
  H481     1.0000 0.84797  0.55689  0.99450  Biso   1.000  H
  C446     1.0000 0.66681  0.10299  0.26105  Biso   1.000  C
  H482     1.0000 0.72464  0.17997  0.30677  Biso   1.000  H
  C447     1.0000 0.77314  0.13257  0.29600  Biso   1.000  C
  C448     1.0000 0.85471  0.40843  0.92385  Biso   1.000  C
  C449     1.0000 0.79340  0.29575  0.94681  Biso   1.000  C
  C450     1.0000 0.72510  0.18317  0.96886  Biso   1.000  C
  H483     1.0000 0.32273  0.31447  0.30048  Biso   1.000  H
  H484     1.0000 0.34521  0.33817  0.35796  Biso   1.000  H
  C451     1.0000 0.34299  0.25569  0.34184  Biso   1.000  C
  H485     1.0000 0.35412  0.18656  0.30657  Biso   1.000  H
  H486     1.0000 0.33084  0.21966  0.26706  Biso   1.000  H
  C452     1.0000 0.47862  0.22037  0.24281  Biso   1.000  C
  H487     1.0000 0.75329  0.50493  0.89232  Biso   1.000  H
  C453     1.0000 0.49074  0.39733  0.88898  Biso   1.000  C
  C454     1.0000 0.89716  0.56371  0.90561  Biso   1.000  C
  N66      1.0000 0.62401  0.12523  0.24583  Biso   1.000  N
  H488     1.0000 0.67254  0.08098  0.23125  Biso   1.000  H
  C455     1.0000 0.63715  0.05695  0.30701  Biso   1.000  C
  H489     1.0000 0.81340  0.16756  0.30657  Biso   1.000  H
  H490     1.0000 0.78032  0.11117  0.26706  Biso   1.000  H
  C456     1.0000 0.74429  0.08733  0.34184  Biso   1.000  C
  N67      1.0000 0.89225  0.46576  0.93293  Biso   1.000  N
  H491     1.0000 0.84009  0.39719  0.88961  Biso   1.000  H
  O34      1.0000 0.78057  0.28296  0.89570  Biso   1.000  O
  N68      1.0000 0.70931  0.16789  0.92086  Biso   1.000  N
  H492     1.0000 0.70890  0.15199  0.99450  Biso   1.000  H
  H493     1.0000 0.36914  0.25968  0.37187  Biso   1.000  H
  H494     1.0000 0.29943  0.22827  0.35178  Biso   1.000  H
  C457     1.0000 0.50103  0.19253  0.20377  Biso   1.000  C
  H495     1.0000 0.49322  0.22375  0.27705  Biso   1.000  H
  H496     1.0000 0.51330  0.39131  0.85988  Biso   1.000  H
  C458     1.0000 0.46587  0.43980  0.87066  Biso   1.000  C
  C459     1.0000 0.43631  0.33352  0.90561  Biso   1.000  C
  C460     1.0000 0.90654  0.50926  0.88898  Biso   1.000  C
  H497     1.0000 0.92490  0.58572  0.93541  Biso   1.000  H
  C461     1.0000 0.91351  0.60970  0.85965  Biso   1.000  C
  C462     1.0000 0.60819  0.12472  0.19779  Biso   1.000  C
  C463     1.0000 0.68074  0.03353  0.32737  Biso   1.000  C
  H498     1.0000 0.62813  0.07769  0.33535  Biso   1.000  H
  H499     1.0000 0.59772  0.02126  0.29568  Biso   1.000  H
  H500     1.0000 0.74034  0.10948  0.37187  Biso   1.000  H
  H501     1.0000 0.77172  0.07115  0.35178  Biso   1.000  H
  H502     1.0000 0.75157  0.24670  0.89232  Biso   1.000  H
  C464     1.0000 0.66647  0.10280  0.90561  Biso   1.000  C
  C465     1.0000 0.53993  0.16901  0.21989  Biso   1.000  C
  C466     1.0000 0.48871  0.19314  0.15069  Biso   1.000  C
  H503     1.0000 0.50088  0.48010  0.86012  Biso   1.000  H
  H504     1.0000 0.44450  0.44699  0.89959  Biso   1.000  H
  C467     1.0000 0.42065  0.41102  0.82482  Biso   1.000  C
  N69      1.0000 0.45855  0.29067  0.92086  Biso   1.000  N
  H505     1.0000 0.41427  0.33921  0.93541  Biso   1.000  H
  C468     1.0000 0.39028  0.30384  0.85965  Biso   1.000  C
  H506     1.0000 0.87801  0.48673  0.85988  Biso   1.000  H
  C469     1.0000 0.97392  0.53413  0.87066  Biso   1.000  C
  C470     1.0000 0.98055  0.63317  0.83928  Biso   1.000  C
  H507     1.0000 0.88378  0.58901  0.83130  Biso   1.000  H
  H508     1.0000 0.90978  0.64540  0.87101  Biso   1.000  H
  C471     1.0000 0.56553  0.14691  0.18203  Biso   1.000  C
  H509     1.0000 0.62442  0.10976  0.17216  Biso   1.000  H
  H510     1.0000 0.68551  0.00828  0.30048  Biso   1.000  H
  H511     1.0000 0.66180  0.00705  0.35796  Biso   1.000  H
  C472     1.0000 0.60266  0.09344  0.88898  Biso   1.000  C
  H512     1.0000 0.66080  0.07510  0.93541  Biso   1.000  H
  C473     1.0000 0.69612  0.08644  0.85965  Biso   1.000  C
  O35      1.0000 0.55274  0.16906  0.27095  Biso   1.000  O
  H513     1.0000 0.46244  0.20838  0.14055  Biso   1.000  H
  C474     1.0000 0.51360  0.17198  0.11177  Biso   1.000  C
  H514     1.0000 0.44280  0.40702  0.79482  Biso   1.000  H
  H515     1.0000 0.40448  0.43839  0.81491  Biso   1.000  H
  C475     1.0000 0.36683  0.34744  0.83928  Biso   1.000  C
  C476     1.0000 0.45806  0.27487  0.96886  Biso   1.000  C
  H516     1.0000 0.41101  0.29481  0.83130  Biso   1.000  H
  H517     1.0000 0.35459  0.26439  0.87101  Biso   1.000  H
  H518     1.0000 0.97917  0.49910  0.86012  Biso   1.000  H
  C477     1.0000 0.99031  0.57937  0.82482  Biso   1.000  C
  H519     1.0000 0.00253  0.55553  0.89959  Biso   1.000  H
  H520     1.0000 0.98806  0.65960  0.80870  Biso   1.000  H
  H521     1.0000 0.01061  0.65842  0.86621  Biso   1.000  H
  C478     1.0000 0.55198  0.14889  0.12915  Biso   1.000  C
  N70      1.0000 0.57345  0.10769  0.93293  Biso   1.000  N
  H522     1.0000 0.60866  0.12199  0.85988  Biso   1.000  H
  C479     1.0000 0.56019  0.02610  0.87066  Biso   1.000  C
  C480     1.0000 0.65255  0.01942  0.83928  Biso   1.000  C
  H523     1.0000 0.70518  0.11620  0.83130  Biso   1.000  H
  H524     1.0000 0.73559  0.09020  0.87101  Biso   1.000  H
  H525     1.0000 0.58172  0.16177  0.27437  Biso   1.000  H
  C481     1.0000 0.50530  0.18030  0.05488  Biso   1.000  C
  H526     1.0000 0.34159  0.35219  0.86621  Biso   1.000  H
  H527     1.0000 0.34037  0.32848  0.80870  Biso   1.000  H
  C482     1.0000 0.48020  0.23217  0.98467  Biso   1.000  C
  H528     1.0000 0.44308  0.29110  0.99450  Biso   1.000  H
  H529     1.0000 0.96420  0.55722  0.79482  Biso   1.000  H
  H530     1.0000 0.03388  0.59550  0.81491  Biso   1.000  H
  H531     1.0000 0.56930  0.13417  0.10438  Biso   1.000  H
  C483     1.0000 0.55370  0.14531  0.92385  Biso   1.000  C
  H532     1.0000 0.55300  0.99755  0.89959  Biso   1.000  H
  H533     1.0000 0.51990  0.02079  0.86012  Biso   1.000  H
  C484     1.0000 0.58898  0.00964  0.82482  Biso   1.000  C
  H534     1.0000 0.64784  0.98947  0.86621  Biso   1.000  H
  H535     1.0000 0.67148  0.01190  0.80870  Biso   1.000  H
  C485     1.0000 0.52647  0.15538  0.01596  Biso   1.000  C
  C486     1.0000 0.48221  0.21868  0.03751  Biso   1.000  C
  C487     1.0000 0.50231  0.20659  0.94681  Biso   1.000  C
  C488     1.0000 0.52583  0.16770  0.96293  Biso   1.000  C
  H536     1.0000 0.55708  0.15989  0.88961  Biso   1.000  H
  H537     1.0000 0.56161  0.96614  0.81491  Biso   1.000  H
  H538     1.0000 0.59297  0.03579  0.79482  Biso   1.000  H
  H539     1.0000 0.54167  0.12909  0.02610  Biso   1.000  H
  H540     1.0000 0.46749  0.23598  0.06231  Biso   1.000  H
  O36      1.0000 0.50238  0.21943  0.89570  Biso   1.000  O
  H541     1.0000 0.49507  0.24840  0.89232  Biso   1.000  H
  C489     1.0000 0.54195  0.81686  0.53114  Biso   1.000  C
  C490     1.0000 0.51977  0.75196  0.51533  Biso   1.000  C
  N71      1.0000 0.54145  0.83214  0.57914  Biso   1.000  N
  H542     1.0000 0.55689  0.84804  0.50550  Biso   1.000  H
  C491     1.0000 0.51775  0.73644  0.46249  Biso   1.000  C
  C492     1.0000 0.49763  0.70428  0.55319  Biso   1.000  C
  C493     1.0000 0.56366  0.89718  0.59439  Biso   1.000  C
  C494     1.0000 0.49467  0.67498  0.44512  Biso   1.000  C
  H543     1.0000 0.53248  0.76851  0.43769  Biso   1.000  H
  C495     1.0000 0.47413  0.64187  0.53707  Biso   1.000  C
  O37      1.0000 0.49764  0.71707  0.60430  Biso   1.000  O
  C496     1.0000 0.50923  0.90659  0.61102  Biso   1.000  C
  H544     1.0000 0.58568  0.92493  0.56459  Biso   1.000  H
  C497     1.0000 0.60970  0.91359  0.64035  Biso   1.000  C
  C498     1.0000 0.48637  0.65838  0.38823  Biso   1.000  C
  C499     1.0000 0.47350  0.62889  0.48404  Biso   1.000  C
  C500     1.0000 0.44631  0.59160  0.57615  Biso   1.000  C
  H545     1.0000 0.50489  0.75333  0.60768  Biso   1.000  H
  N72      1.0000 0.46576  0.89229  0.56707  Biso   1.000  N
  H546     1.0000 0.48669  0.87804  0.64012  Biso   1.000  H
  C501     1.0000 0.53410  0.97393  0.62934  Biso   1.000  C
  C502     1.0000 0.63315  0.98061  0.66072  Biso   1.000  C
  H547     1.0000 0.58899  0.88383  0.66870  Biso   1.000  H
  H548     1.0000 0.64541  0.90983  0.62899  Biso   1.000  H
  C503     1.0000 0.44799  0.59691  0.37085  Biso   1.000  C
  C504     1.0000 0.51129  0.70446  0.34931  Biso   1.000  C
  H549     1.0000 0.45831  0.58741  0.47390  Biso   1.000  H
  N73      1.0000 0.42652  0.53427  0.56707  Biso   1.000  N
  H550     1.0000 0.44286  0.60279  0.61039  Biso   1.000  H
  C505     1.0000 0.40840  0.85472  0.57615  Biso   1.000  C
  H551     1.0000 0.49909  0.97924  0.63988  Biso   1.000  H
  C506     1.0000 0.57933  0.99034  0.67518  Biso   1.000  C
  H552     1.0000 0.55546  0.00247  0.60041  Biso   1.000  H
  H553     1.0000 0.65959  0.98813  0.69130  Biso   1.000  H
  H554     1.0000 0.65835  0.01056  0.63379  Biso   1.000  H
  C507     1.0000 0.43449  0.58139  0.31797  Biso   1.000  C
  H555     1.0000 0.43065  0.56484  0.39562  Biso   1.000  H
  C508     1.0000 0.49894  0.69148  0.29623  Biso   1.000  C
  H556     1.0000 0.53757  0.74594  0.35945  Biso   1.000  H
  C509     1.0000 0.39732  0.49077  0.61102  Biso   1.000  C
  C510     1.0000 0.35813  0.83228  0.53707  Biso   1.000  C
  H557     1.0000 0.39720  0.84014  0.61039  Biso   1.000  H
  H558     1.0000 0.55720  0.96424  0.70518  Biso   1.000  H
  H559     1.0000 0.59548  0.03389  0.68509  Biso   1.000  H
  C511     1.0000 0.39180  0.51654  0.30221  Biso   1.000  C
  C512     1.0000 0.46004  0.62908  0.28011  Biso   1.000  C
  C513     1.0000 0.52138  0.74176  0.25719  Biso   1.000  C
  H560     1.0000 0.39128  0.51330  0.64012  Biso   1.000  H
  C514     1.0000 0.43978  0.46590  0.62934  Biso   1.000  C
  C515     1.0000 0.33348  0.43632  0.59439  Biso   1.000  C
  C516     1.0000 0.37108  0.84465  0.48404  Biso   1.000  C
  C517     1.0000 0.29575  0.79344  0.55319  Biso   1.000  C
  N74      1.0000 0.37599  0.50121  0.25417  Biso   1.000  N
  H561     1.0000 0.37556  0.48537  0.32784  Biso   1.000  H
  O38      1.0000 0.44725  0.61629  0.22905  Biso   1.000  O
  N75      1.0000 0.55895  0.79913  0.26628  Biso   1.000  N
  H562     1.0000 0.50675  0.73056  0.22295  Biso   1.000  H
  H563     1.0000 0.48010  0.50093  0.63988  Biso   1.000  H
  H564     1.0000 0.44700  0.44450  0.60041  Biso   1.000  H
  C518     1.0000 0.41097  0.42066  0.67518  Biso   1.000  C
  N76      1.0000 0.29068  0.45856  0.57914  Biso   1.000  N
  H565     1.0000 0.33918  0.41431  0.56459  Biso   1.000  H
  C519     1.0000 0.30383  0.39028  0.64035  Biso   1.000  C
  C520     1.0000 0.32502  0.81973  0.44512  Biso   1.000  C
  H566     1.0000 0.41261  0.87094  0.47390  Biso   1.000  H
  C521     1.0000 0.24803  0.76781  0.51533  Biso   1.000  C
  O39      1.0000 0.28297  0.78060  0.60430  Biso   1.000  O
  C522     1.0000 0.33317  0.43618  0.23895  Biso   1.000  C
  H567     1.0000 0.41825  0.58003  0.22563  Biso   1.000  H
  C523     1.0000 0.57322  0.84258  0.22232  Biso   1.000  C
  H568     1.0000 0.40698  0.44281  0.70518  Biso   1.000  H
  H569     1.0000 0.43842  0.40453  0.68509  Biso   1.000  H
  C524     1.0000 0.34742  0.36686  0.66072  Biso   1.000  C
  C525     1.0000 0.27487  0.45804  0.53114  Biso   1.000  C
  H570     1.0000 0.29481  0.41102  0.66870  Biso   1.000  H
  H571     1.0000 0.26442  0.35463  0.62899  Biso   1.000  H
  C526     1.0000 0.34164  0.82805  0.38823  Biso   1.000  C
  C527     1.0000 0.26356  0.78135  0.46249  Biso   1.000  C
  C528     1.0000 0.18317  0.72516  0.53114  Biso   1.000  C
  H572     1.0000 0.24670  0.75163  0.60768  Biso   1.000  H
  C529     1.0000 0.36279  0.41976  0.19299  Biso   1.000  C
  H573     1.0000 0.32744  0.40843  0.26875  Biso   1.000  H
  C530     1.0000 0.26933  0.42677  0.22232  Biso   1.000  C
  H574     1.0000 0.54465  0.82006  0.19323  Biso   1.000  H
  C531     1.0000 0.64055  0.86746  0.20400  Biso   1.000  C
  C532     1.0000 0.56383  0.89704  0.23895  Biso   1.000  C
  H575     1.0000 0.35218  0.34160  0.63379  Biso   1.000  H
  H576     1.0000 0.32850  0.34043  0.69130  Biso   1.000  H
  C533     1.0000 0.23217  0.48024  0.51533  Biso   1.000  C
  H577     1.0000 0.29109  0.44309  0.50550  Biso   1.000  H
  C534     1.0000 0.40311  0.85114  0.37085  Biso   1.000  C
  C535     1.0000 0.29555  0.80689  0.34931  Biso   1.000  C
  H578     1.0000 0.23151  0.76400  0.43769  Biso   1.000  H
  N77      1.0000 0.16786  0.70936  0.57914  Biso   1.000  N
  H579     1.0000 0.15201  0.70893  0.50550  Biso   1.000  H
  C536     1.0000 0.31923  0.35275  0.17263  Biso   1.000  C
  H580     1.0000 0.37185  0.44953  0.16465  Biso   1.000  H
  H581     1.0000 0.40226  0.42353  0.20432  Biso   1.000  H
  C537     1.0000 0.22687  0.35943  0.20400  Biso   1.000  C
  N78      1.0000 0.24015  0.44107  0.26628  Biso   1.000  N
  H582     1.0000 0.27536  0.45536  0.19323  Biso   1.000  H
  H583     1.0000 0.64587  0.83247  0.19343  Biso   1.000  H
  H584     1.0000 0.66917  0.88886  0.23294  Biso   1.000  H
  C538     1.0000 0.65698  0.91270  0.15816  Biso   1.000  C
  N79      1.0000 0.49879  0.87480  0.25417  Biso   1.000  N
  H585     1.0000 0.59154  0.91905  0.26875  Biso   1.000  H
  C539     1.0000 0.58022  0.94308  0.19299  Biso   1.000  C
  C540     1.0000 0.21866  0.48221  0.46249  Biso   1.000  C
  C541     1.0000 0.20661  0.50234  0.55319  Biso   1.000  C
  C542     1.0000 0.41860  0.85312  0.31797  Biso   1.000  C
  H586     1.0000 0.43515  0.86586  0.39562  Biso   1.000  H
  C543     1.0000 0.30852  0.80750  0.29623  Biso   1.000  C
  H587     1.0000 0.25405  0.79165  0.35945  Biso   1.000  H
  C544     1.0000 0.10282  0.66651  0.59439  Biso   1.000  C
  H588     1.0000 0.31445  0.32275  0.19952  Biso   1.000  H
  H589     1.0000 0.33815  0.34523  0.14204  Biso   1.000  H
  C545     1.0000 0.25568  0.34301  0.15816  Biso   1.000  C
  H590     1.0000 0.18656  0.35416  0.19343  Biso   1.000  H
  H591     1.0000 0.21966  0.33083  0.23294  Biso   1.000  H
  C546     1.0000 0.22037  0.47864  0.25719  Biso   1.000  C
  H592     1.0000 0.63084  0.89055  0.12813  Biso   1.000  H
  H593     1.0000 0.70056  0.92883  0.14822  Biso   1.000  H
  C547     1.0000 0.64723  0.96650  0.17263  Biso   1.000  C
  C548     1.0000 0.48350  0.87531  0.30221  Biso   1.000  C
  H594     1.0000 0.55046  0.92234  0.16465  Biso   1.000  H
  H595     1.0000 0.57648  0.97877  0.20432  Biso   1.000  H
  C549     1.0000 0.18027  0.50530  0.44512  Biso   1.000  C
  H596     1.0000 0.23598  0.46750  0.43769  Biso   1.000  H
  C550     1.0000 0.16770  0.52586  0.53707  Biso   1.000  C
  O40      1.0000 0.21942  0.50239  0.60430  Biso   1.000  O
  C551     1.0000 0.37094  0.83101  0.28011  Biso   1.000  C
  C552     1.0000 0.25827  0.77966  0.25719  Biso   1.000  C
  C553     1.0000 0.09344  0.60270  0.61102  Biso   1.000  C
  H597     1.0000 0.07509  0.66082  0.56459  Biso   1.000  H
  C554     1.0000 0.08646  0.69619  0.64035  Biso   1.000  C
  H598     1.0000 0.25967  0.36916  0.12813  Biso   1.000  H
  H599     1.0000 0.22826  0.29942  0.14822  Biso   1.000  H
  C555     1.0000 0.19253  0.50107  0.29623  Biso   1.000  C
  H600     1.0000 0.22378  0.49327  0.22295  Biso   1.000  H
  H601     1.0000 0.67724  0.99175  0.19952  Biso   1.000  H
  H602     1.0000 0.65476  0.99297  0.14204  Biso   1.000  H
  H603     1.0000 0.51467  0.89027  0.32784  Biso   1.000  H
  C556     1.0000 0.17197  0.51363  0.38823  Biso   1.000  C
  C557     1.0000 0.15534  0.52647  0.48404  Biso   1.000  C
  C558     1.0000 0.14530  0.55370  0.57615  Biso   1.000  C
  H604     1.0000 0.24840  0.49510  0.60768  Biso   1.000  H
  O41      1.0000 0.38370  0.83097  0.22905  Biso   1.000  O
  N80      1.0000 0.20089  0.75986  0.26628  Biso   1.000  N
  H605     1.0000 0.26947  0.77623  0.22295  Biso   1.000  H
  N81      1.0000 0.10771  0.57349  0.56707  Biso   1.000  N
  H606     1.0000 0.12198  0.60872  0.64012  Biso   1.000  H
  C559     1.0000 0.02608  0.56019  0.62934  Biso   1.000  C
  C560     1.0000 0.01942  0.65259  0.66072  Biso   1.000  C
  H607     1.0000 0.11619  0.70522  0.66870  Biso   1.000  H
  H608     1.0000 0.09020  0.73560  0.62899  Biso   1.000  H
  C561     1.0000 0.16901  0.53996  0.28011  Biso   1.000  C
  C562     1.0000 0.19311  0.48870  0.34931  Biso   1.000  C
  C563     1.0000 0.14889  0.55200  0.37085  Biso   1.000  C
  H609     1.0000 0.12908  0.54170  0.47390  Biso   1.000  H
  H610     1.0000 0.15992  0.55713  0.61039  Biso   1.000  H
  H611     1.0000 0.41997  0.83826  0.22563  Biso   1.000  H
  C564     1.0000 0.15741  0.73066  0.22232  Biso   1.000  C
  H612     1.0000 0.02082  0.51993  0.63988  Biso   1.000  H
  C565     1.0000 0.00966  0.58901  0.67518  Biso   1.000  C
  H613     1.0000 0.99748  0.55299  0.60041  Biso   1.000  H
  H614     1.0000 0.01189  0.67150  0.69130  Biso   1.000  H
  H615     1.0000 0.98941  0.64780  0.63379  Biso   1.000  H
  O42      1.0000 0.16906  0.55276  0.22905  Biso   1.000  O
  C566     1.0000 0.14690  0.56555  0.31797  Biso   1.000  C
  H616     1.0000 0.20838  0.46246  0.35945  Biso   1.000  H
  H617     1.0000 0.13419  0.56936  0.39562  Biso   1.000  H
  C567     1.0000 0.10299  0.66684  0.23895  Biso   1.000  C
  H618     1.0000 0.17994  0.72464  0.19323  Biso   1.000  H
  C568     1.0000 0.13257  0.77317  0.20400  Biso   1.000  C
  H619     1.0000 0.03581  0.59301  0.70518  Biso   1.000  H
  H620     1.0000 0.96611  0.56160  0.68509  Biso   1.000  H
  H621     1.0000 0.16175  0.58172  0.22563  Biso   1.000  H
  C569     1.0000 0.12469  0.60820  0.30221  Biso   1.000  C
  N82      1.0000 0.12521  0.62405  0.25417  Biso   1.000  N
  H622     1.0000 0.08095  0.67253  0.26875  Biso   1.000  H
  C570     1.0000 0.05698  0.63722  0.19299  Biso   1.000  C
  H623     1.0000 0.16758  0.81347  0.19343  Biso   1.000  H
  H624     1.0000 0.11116  0.78037  0.23294  Biso   1.000  H
  C571     1.0000 0.08733  0.74434  0.15816  Biso   1.000  C
  H625     1.0000 0.10976  0.62442  0.32784  Biso   1.000  H
  C572     1.0000 0.03351  0.68076  0.17263  Biso   1.000  C
  H626     1.0000 0.07765  0.62814  0.16465  Biso   1.000  H
  H627     1.0000 0.02129  0.59776  0.20432  Biso   1.000  H
  H628     1.0000 0.10948  0.74035  0.12813  Biso   1.000  H
  H629     1.0000 0.07118  0.77176  0.14822  Biso   1.000  H
  H630     1.0000 0.00829  0.68556  0.19952  Biso   1.000  H
  H631     1.0000 0.00707  0.66186  0.14204  Biso   1.000  H
  Ne1      1.0000 0.66665  0.33334  0.08333  Biso   1.000  Ne
  He1      1.0000 0.66667  0.33335  0.22690  Biso   1.000  He
  He2      1.0000 0.46083  0.34379  0.07985  Biso   1.000  He
  He3      1.0000 0.78604  0.46975  0.11347  Biso   1.000  He
  He4      1.0000 0.65685  0.11822  0.08007  Biso   1.000  He
  He5      1.0000 0.66665  0.33334  0.94067  Biso   1.000  He
  Ar1      1.0000 0.66665  0.33335  0.08333  Biso   1.000  Ar
  Ne2      1.0000 0.33333  0.66668  0.41667  Biso   1.000  Ne
  He6      1.0000 0.33331  0.66669  0.56021  Biso   1.000  He
  He7      1.0000 0.12750  0.67709  0.41321  Biso   1.000  He
  He8      1.0000 0.45274  0.80313  0.44684  Biso   1.000  He
  He9      1.0000 0.32358  0.45163  0.41343  Biso   1.000  He
  He10     1.0000 0.33333  0.66669  0.27398  Biso   1.000  He
  Ar2      1.0000 0.33333  0.66668  0.41667  Biso   1.000  Ar
  Ne3      1.0000 0.66665  0.33334  0.58333  Biso   1.000  Ne
  He11     1.0000 0.66665  0.33333  0.72475  Biso   1.000  He
  He12     1.0000 0.65646  0.48248  0.55922  Biso   1.000  He
  He13     1.0000 0.81801  0.32388  0.60645  Biso   1.000  He
  He14     1.0000 0.51291  0.17082  0.56118  Biso   1.000  He
  He15     1.0000 0.66667  0.33336  0.44257  Biso   1.000  He
  Ar3      1.0000 0.66665  0.33335  0.58333  Biso   1.000  Ar
  Ne4      1.0000 0.33333  0.66668  0.91667  Biso   1.000  Ne
  He16     1.0000 0.33335  0.66669  0.05806  Biso   1.000  He
  He17     1.0000 0.32316  0.81581  0.89257  Biso   1.000  He
  He18     1.0000 0.48465  0.65719  0.93984  Biso   1.000  He
  He19     1.0000 0.17584  0.52018  0.94188  Biso   1.000  He
  He20     1.0000 0.33333  0.66669  0.77588  Biso   1.000  He
  Ar4      1.0000 0.33333  0.66668  0.91667  Biso   1.000  Ar
  Ne5      1.0000 0.00708  0.00459  0.24894  Biso   1.000  Ne
  He21     1.0000 0.99999  0.00003  0.39141  Biso   1.000  He
  He22     1.0000 0.84621  0.83750  0.22789  Biso   1.000  He
  He23     1.0000 0.15136  0.99051  0.27314  Biso   1.000  He
  He24     1.0000 0.98288  0.12170  0.21883  Biso   1.000  He
  He25     1.0000 0.99998  0.99999  0.10923  Biso   1.000  He
  Ar5      1.0000 0.99996  0.00000  0.25061  Biso   1.000  Ar
  Ne6      1.0000 0.00125  0.00442  0.74740  Biso   1.000  Ne
  He26     1.0000 0.00003  0.00003  0.89355  Biso   1.000  He
  He27     1.0000 0.79413  0.01042  0.74654  Biso   1.000  He
  He28     1.0000 0.11940  0.13640  0.78018  Biso   1.000  He
  He29     1.0000 0.99026  0.78494  0.74675  Biso   1.000  He
  He30     1.0000 0.99999  1.00000  0.60732  Biso   1.000  He
  Ar6      1.0000 0.00003  0.00001  0.75000  Biso   1.000  Ar
