data_image0
_cell_length_a       24.555
_cell_length_b       24.554
_cell_length_c       25.436
_cell_angle_alpha    90
_cell_angle_beta     90
_cell_angle_gamma    120

_symmetry_space_group_name_H-M    "P 1"
_symmetry_int_tables_number       1

loop_
  _symmetry_equiv_pos_as_xyz
  'x, y, z'

loop_
  _atom_site_label
  _atom_site_occupancy
  _atom_site_fract_x
  _atom_site_fract_y
  _atom_site_fract_z
  _atom_site_thermal_displace_type
  _atom_site_B_iso_or_equiv
  _atom_site_type_symbol
  O1       1.0000 0.83572  0.88613  0.56239  Biso   1.000  O
  C1       1.0000 0.83565  0.87329  0.61346  Biso   1.000  C
  C2       1.0000 0.83569  0.87329  0.61346  Biso   1.000  C
  H1       1.0000 0.82841  0.91510  0.55897  Biso   1.000  H
  H2       1.0000 0.82845  0.91510  0.55897  Biso   1.000  H
  C3       1.0000 0.85917  0.83440  0.62958  Biso   1.000  C
  C4       1.0000 0.81354  0.89887  0.65132  Biso   1.000  C
  O2       1.0000 0.83569  0.88608  0.56239  Biso   1.000  O
  C5       1.0000 0.81358  0.89887  0.65132  Biso   1.000  C
  C6       1.0000 0.88701  0.81197  0.59054  Biso   1.000  C
  C7       1.0000 0.88705  0.81197  0.59054  Biso   1.000  C
  C8       1.0000 0.85977  0.82208  0.68262  Biso   1.000  C
  C9       1.0000 0.85979  0.82203  0.68262  Biso   1.000  C
  C10      1.0000 0.85981  0.82208  0.68262  Biso   1.000  C
  C11      1.0000 0.81555  0.88538  0.70416  Biso   1.000  C
  C12      1.0000 0.79135  0.94157  0.63556  Biso   1.000  C
  C13      1.0000 0.81559  0.88538  0.70416  Biso   1.000  C
  C14      1.0000 0.79140  0.94157  0.63556  Biso   1.000  C
  N1       1.0000 0.90679  0.77439  0.59958  Biso   1.000  N
  H3       1.0000 0.89041  0.82659  0.55626  Biso   1.000  H
  H4       1.0000 0.89045  0.82659  0.55626  Biso   1.000  H
  H5       1.0000 0.87501  0.79579  0.69276  Biso   1.000  H
  C15      1.0000 0.83861  0.84696  0.72154  Biso   1.000  C
  H6       1.0000 0.87505  0.79579  0.69276  Biso   1.000  H
  C16      1.0000 0.83865  0.84696  0.72154  Biso   1.000  C
  H7       1.0000 0.80082  0.90268  0.72897  Biso   1.000  H
  N2       1.0000 0.79184  0.95738  0.58751  Biso   1.000  N
  H8       1.0000 0.77642  0.95780  0.66115  Biso   1.000  H
  N3       1.0000 0.79188  0.95738  0.58751  Biso   1.000  N
  H9       1.0000 0.77646  0.95780  0.66115  Biso   1.000  H
  C17      1.0000 0.93597  0.76010  0.55567  Biso   1.000  C
  C18      1.0000 0.93601  0.76010  0.55567  Biso   1.000  C
  C19      1.0000 0.84693  0.83868  0.77846  Biso   1.000  C
  C20      1.0000 0.84695  0.83863  0.77846  Biso   1.000  C
  C21      1.0000 0.84691  0.83863  0.77846  Biso   1.000  C
  C22      1.0000 0.76964  0.00012  0.57226  Biso   1.000  C
  C23      1.0000 0.76960  0.00012  0.57226  Biso   1.000  C
  C24      1.0000 0.89353  0.69280  0.53731  Biso   1.000  C
  C25      1.0000 0.89350  0.69275  0.53731  Biso   1.000  C
  C26      1.0000 0.99980  0.76950  0.57226  Biso   1.000  C
  C27      1.0000 0.99984  0.76950  0.57226  Biso   1.000  C
  H10      1.0000 0.94200  0.78869  0.52658  Biso   1.000  H
  H11      1.0000 0.94204  0.78869  0.52658  Biso   1.000  H
  C28      1.0000 0.82200  0.85984  0.81738  Biso   1.000  C
  C29      1.0000 0.88532  0.81559  0.79584  Biso   1.000  C
  C30      1.0000 0.82204  0.85984  0.81738  Biso   1.000  C
  C31      1.0000 0.88536  0.81559  0.79584  Biso   1.000  C
  C32      1.0000 0.72361  0.97054  0.52630  Biso   1.000  C
  C33      1.0000 0.82405  0.06399  0.55567  Biso   1.000  C
  H12      1.0000 0.74763  0.00586  0.60206  Biso   1.000  H
  C34      1.0000 0.82409  0.06399  0.55567  Biso   1.000  C
  H13      1.0000 0.74758  0.00586  0.60206  Biso   1.000  H
  C35      1.0000 0.92232  0.67634  0.49147  Biso   1.000  C
  C36      1.0000 0.92236  0.67634  0.49147  Biso   1.000  C
  H14      1.0000 0.85320  0.68749  0.52677  Biso   1.000  H
  H15      1.0000 0.88632  0.66421  0.56628  Biso   1.000  H
  H16      1.0000 0.85324  0.68749  0.52677  Biso   1.000  H
  H17      1.0000 0.88633  0.66416  0.56628  Biso   1.000  H
  H18      1.0000 0.88636  0.66421  0.56628  Biso   1.000  H
  H19      1.0000 0.88629  0.66416  0.56628  Biso   1.000  H
  C37      1.0000 0.02950  0.75314  0.52630  Biso   1.000  C
  H20      1.0000 0.99410  0.74180  0.60206  Biso   1.000  H
  H21      1.0000 0.99414  0.74180  0.60206  Biso   1.000  H
  N4       1.0000 0.04267  0.83454  0.58751  Biso   1.000  N
  N5       1.0000 0.04263  0.83454  0.58751  Biso   1.000  N
  C38      1.0000 0.83436  0.85923  0.87042  Biso   1.000  C
  H22      1.0000 0.79574  0.87508  0.80724  Biso   1.000  H
  C39      1.0000 0.83438  0.85918  0.87042  Biso   1.000  C
  H23      1.0000 0.79575  0.87503  0.80724  Biso   1.000  H
  C40      1.0000 0.83440  0.85923  0.87042  Biso   1.000  C
  H24      1.0000 0.79578  0.87508  0.80724  Biso   1.000  H
  C41      1.0000 0.83434  0.85918  0.87042  Biso   1.000  C
  C42      1.0000 0.89883  0.81361  0.84868  Biso   1.000  C
  H25      1.0000 0.90264  0.80087  0.77103  Biso   1.000  H
  C43      1.0000 0.89885  0.81357  0.84868  Biso   1.000  C
  H26      1.0000 0.90268  0.80087  0.77103  Biso   1.000  H
  C44      1.0000 0.89887  0.81361  0.84868  Biso   1.000  C
  H27      1.0000 0.74431  0.96151  0.49796  Biso   1.000  H
  H28      1.0000 0.68792  0.93109  0.53766  Biso   1.000  H
  H29      1.0000 0.74433  0.96147  0.49796  Biso   1.000  H
  H30      1.0000 0.74435  0.96151  0.49796  Biso   1.000  H
  C45      1.0000 0.70018  0.01409  0.50598  Biso   1.000  C
  C46      1.0000 0.70014  0.01409  0.50598  Biso   1.000  C
  N6       1.0000 0.86757  0.09319  0.59958  Biso   1.000  N
  H31      1.0000 0.84662  0.05797  0.52658  Biso   1.000  H
  C47      1.0000 0.79922  0.10645  0.53731  Biso   1.000  C
  H32      1.0000 0.84659  0.05792  0.52658  Biso   1.000  H
  N7       1.0000 0.86753  0.09319  0.59958  Biso   1.000  N
  C48      1.0000 0.79918  0.10645  0.53731  Biso   1.000  C
  C49      1.0000 0.98589  0.68612  0.50598  Biso   1.000  C
  H33      1.0000 0.92631  0.70249  0.46147  Biso   1.000  H
  H34      1.0000 0.89492  0.63280  0.48156  Biso   1.000  H
  C50      1.0000 0.98593  0.68612  0.50598  Biso   1.000  C
  H35      1.0000 0.92635  0.70249  0.46147  Biso   1.000  H
  H36      1.0000 0.89496  0.63280  0.48156  Biso   1.000  H
  H37      1.0000 0.03856  0.78291  0.49796  Biso   1.000  H
  H38      1.0000 0.06897  0.75690  0.53766  Biso   1.000  H
  H39      1.0000 0.06892  0.75690  0.53766  Biso   1.000  H
  H40      1.0000 0.03851  0.78291  0.49796  Biso   1.000  H
  C51      1.0000 0.05848  0.84987  0.63556  Biso   1.000  C
  C52      1.0000 0.87327  0.83572  0.88654  Biso   1.000  C
  C53      1.0000 0.81196  0.88707  0.90946  Biso   1.000  C
  C54      1.0000 0.87324  0.83567  0.88654  Biso   1.000  C
  C55      1.0000 0.94153  0.79142  0.86444  Biso   1.000  C
  H41      1.0000 0.67371  0.99519  0.47535  Biso   1.000  H
  H42      1.0000 0.67375  0.99519  0.47535  Biso   1.000  H
  C56      1.0000 0.75398  0.07762  0.49147  Biso   1.000  C
  H43      1.0000 0.67495  0.01884  0.53287  Biso   1.000  H
  H44      1.0000 0.67491  0.01884  0.53287  Biso   1.000  H
  C57      1.0000 0.75394  0.07762  0.49147  Biso   1.000  C
  C58      1.0000 0.92493  0.11294  0.59054  Biso   1.000  C
  C59      1.0000 0.92489  0.11294  0.59054  Biso   1.000  C
  H45      1.0000 0.83424  0.14675  0.52677  Biso   1.000  H
  H46      1.0000 0.77781  0.11365  0.56628  Biso   1.000  H
  H47      1.0000 0.83420  0.14675  0.52677  Biso   1.000  H
  H48      1.0000 0.98109  0.65607  0.53287  Biso   1.000  H
  H49      1.0000 0.98113  0.65607  0.53287  Biso   1.000  H
  H50      1.0000 0.00485  0.67860  0.47535  Biso   1.000  H
  H51      1.0000 0.00481  0.67860  0.47535  Biso   1.000  H
  C60      1.0000 0.10116  0.91472  0.65132  Biso   1.000  C
  H52      1.0000 0.04224  0.81869  0.66115  Biso   1.000  H
  C61      1.0000 0.10112  0.91472  0.65132  Biso   1.000  C
  H53      1.0000 0.04228  0.81869  0.66115  Biso   1.000  H
  O3       1.0000 0.88606  0.83572  0.93761  Biso   1.000  O
  O4       1.0000 0.88610  0.83572  0.93761  Biso   1.000  O
  N8       1.0000 0.77435  0.90682  0.90042  Biso   1.000  N
  H54      1.0000 0.82656  0.89046  0.94374  Biso   1.000  H
  N9       1.0000 0.77439  0.90682  0.90042  Biso   1.000  N
  N10      1.0000 0.95732  0.79189  0.91249  Biso   1.000  N
  H55      1.0000 0.95775  0.77646  0.83885  Biso   1.000  H
  N11      1.0000 0.95736  0.79189  0.91249  Biso   1.000  N
  H56      1.0000 0.95779  0.77646  0.83885  Biso   1.000  H
  H57      1.0000 0.77615  0.07367  0.46147  Biso   1.000  H
  H58      1.0000 0.73784  0.10504  0.48156  Biso   1.000  H
  H59      1.0000 0.77609  0.07363  0.46147  Biso   1.000  H
  H60      1.0000 0.73780  0.10504  0.48156  Biso   1.000  H
  H61      1.0000 0.77611  0.07367  0.46147  Biso   1.000  H
  C62      1.0000 0.97517  0.14078  0.62958  Biso   1.000  C
  H62      1.0000 0.93614  0.10955  0.55626  Biso   1.000  H
  H63      1.0000 0.93610  0.10955  0.55626  Biso   1.000  H
  C63      1.0000 0.97513  0.14078  0.62958  Biso   1.000  C
  C64      1.0000 0.12674  0.96245  0.61346  Biso   1.000  C
  C65      1.0000 0.11466  0.93024  0.70416  Biso   1.000  C
  C66      1.0000 0.12671  0.96241  0.61346  Biso   1.000  C
  C67      1.0000 0.12676  0.96241  0.61346  Biso   1.000  C
  H64      1.0000 0.91506  0.82847  0.94103  Biso   1.000  H
  H65      1.0000 0.91507  0.82843  0.94103  Biso   1.000  H
  H66      1.0000 0.91503  0.82843  0.94103  Biso   1.000  H
  C68      1.0000 0.76007  0.93603  0.94433  Biso   1.000  C
  C69      1.0000 0.76011  0.93603  0.94433  Biso   1.000  C
  C70      1.0000 0.00018  0.76969  0.92774  Biso   1.000  C
  C71      1.0000 0.00016  0.76964  0.92774  Biso   1.000  C
  C72      1.0000 0.00014  0.76969  0.92774  Biso   1.000  C
  C73      1.0000 0.96216  0.14017  0.68262  Biso   1.000  C
  C74      1.0000 0.96220  0.14017  0.68262  Biso   1.000  C
  C75      1.0000 0.03759  0.16429  0.61346  Biso   1.000  C
  C76      1.0000 0.03755  0.16429  0.61346  Biso   1.000  C
  O5       1.0000 0.11395  0.94966  0.56239  Biso   1.000  O
  O6       1.0000 0.11391  0.94966  0.56239  Biso   1.000  O
  C77      1.0000 0.16561  0.02481  0.62958  Biso   1.000  C
  C78      1.0000 0.16559  0.02476  0.62958  Biso   1.000  C
  C79      1.0000 0.16565  0.02481  0.62958  Biso   1.000  C
  C80      1.0000 0.15305  0.99171  0.72154  Biso   1.000  C
  H67      1.0000 0.09735  0.89822  0.72897  Biso   1.000  H
  H68      1.0000 0.09732  0.89817  0.72897  Biso   1.000  H
  C81      1.0000 0.76948  0.99989  0.92774  Biso   1.000  C
  H69      1.0000 0.78862  0.94204  0.97342  Biso   1.000  H
  C82      1.0000 0.69274  0.89356  0.96269  Biso   1.000  C
  C83      1.0000 0.76950  0.99984  0.92774  Biso   1.000  C
  H70      1.0000 0.78866  0.94204  0.97342  Biso   1.000  H
  C84      1.0000 0.69278  0.89356  0.96269  Biso   1.000  C
  C85      1.0000 0.76946  0.99984  0.92774  Biso   1.000  C
  C86      1.0000 0.06400  0.82410  0.94433  Biso   1.000  C
  C87      1.0000 0.97049  0.72365  0.97370  Biso   1.000  C
  C88      1.0000 0.97053  0.72365  0.97370  Biso   1.000  C
  H71      1.0000 0.00585  0.74763  0.89794  Biso   1.000  H
  H72      1.0000 0.00589  0.74763  0.89794  Biso   1.000  H
  H73      1.0000 0.92070  0.12493  0.69276  Biso   1.000  H
  C89      1.0000 0.00829  0.16133  0.72154  Biso   1.000  C
  C90      1.0000 0.08525  0.18640  0.65132  Biso   1.000  C
  C91      1.0000 0.08529  0.18640  0.65132  Biso   1.000  C
  O7       1.0000 0.05038  0.16429  0.56239  Biso   1.000  O
  O8       1.0000 0.05035  0.16425  0.56239  Biso   1.000  O
  H74      1.0000 0.08495  0.91341  0.55897  Biso   1.000  H
  C92      1.0000 0.17794  0.03774  0.68262  Biso   1.000  C
  C93      1.0000 0.18804  0.07504  0.59054  Biso   1.000  C
  C94      1.0000 0.18800  0.07504  0.59054  Biso   1.000  C
  C95      1.0000 0.16135  0.00831  0.77846  Biso   1.000  C
  H75      1.0000 0.74173  0.99415  0.89794  Biso   1.000  H
  H76      1.0000 0.74177  0.99415  0.89794  Biso   1.000  H
  N12      1.0000 0.83451  0.04264  0.91249  Biso   1.000  N
  C96      1.0000 0.75312  0.02947  0.97370  Biso   1.000  C
  C97      1.0000 0.75308  0.02947  0.97370  Biso   1.000  C
  H77      1.0000 0.68745  0.85326  0.97323  Biso   1.000  H
  H78      1.0000 0.66414  0.88636  0.93372  Biso   1.000  H
  H79      1.0000 0.68750  0.85326  0.97323  Biso   1.000  H
  H80      1.0000 0.66418  0.88636  0.93372  Biso   1.000  H
  C98      1.0000 0.67632  0.92239  0.00853  Biso   1.000  C
  C99      1.0000 0.67634  0.92234  0.00853  Biso   1.000  C
  C100     1.0000 0.67630  0.92234  0.00853  Biso   1.000  C
  N13      1.0000 0.09320  0.86760  0.90042  Biso   1.000  N
  H81      1.0000 0.05798  0.84667  0.97342  Biso   1.000  H
  C101     1.0000 0.10648  0.79927  0.96269  Biso   1.000  C
  H82      1.0000 0.05802  0.84667  0.97342  Biso   1.000  H
  C102     1.0000 0.10652  0.79927  0.96269  Biso   1.000  C
  H83      1.0000 0.93106  0.68796  0.96234  Biso   1.000  H
  H84      1.0000 0.96145  0.74434  0.00204  Biso   1.000  H
  C103     1.0000 0.01410  0.70018  0.99402  Biso   1.000  C
  C104     1.0000 0.01406  0.70018  0.99402  Biso   1.000  C
  C105     1.0000 0.06977  0.18442  0.70416  Biso   1.000  C
  C106     1.0000 0.99169  0.15305  0.77846  Biso   1.000  C
  C107     1.0000 0.99167  0.15301  0.77846  Biso   1.000  C
  C108     1.0000 0.99165  0.15305  0.77846  Biso   1.000  C
  C109     1.0000 0.99163  0.15301  0.77846  Biso   1.000  C
  C110     1.0000 0.15015  0.20859  0.63556  Biso   1.000  C
  C111     1.0000 0.15011  0.20859  0.63556  Biso   1.000  C
  H85      1.0000 0.08662  0.17154  0.55897  Biso   1.000  H
  H86      1.0000 0.20424  0.07927  0.69276  Biso   1.000  H
  H87      1.0000 0.20418  0.07922  0.69276  Biso   1.000  H
  H88      1.0000 0.20422  0.07922  0.69276  Biso   1.000  H
  N14      1.0000 0.22560  0.13241  0.59958  Biso   1.000  N
  H89      1.0000 0.17340  0.06384  0.55626  Biso   1.000  H
  N15      1.0000 0.22564  0.13241  0.59958  Biso   1.000  N
  H90      1.0000 0.17344  0.06384  0.55626  Biso   1.000  H
  C112     1.0000 0.14021  0.96227  0.81738  Biso   1.000  C
  C113     1.0000 0.18443  0.06977  0.79584  Biso   1.000  C
  C114     1.0000 0.18447  0.06977  0.79584  Biso   1.000  C
  C115     1.0000 0.84982  0.05844  0.86444  Biso   1.000  C
  C116     1.0000 0.68606  0.98592  0.99402  Biso   1.000  C
  C117     1.0000 0.68610  0.98592  0.99402  Biso   1.000  C
  H91      1.0000 0.75684  0.06892  0.96234  Biso   1.000  H
  H92      1.0000 0.78284  0.03850  0.00204  Biso   1.000  H
  H93      1.0000 0.70245  0.92634  0.03853  Biso   1.000  H
  H94      1.0000 0.63277  0.89497  0.01844  Biso   1.000  H
  C118     1.0000 0.11301  0.92497  0.90946  Biso   1.000  C
  C119     1.0000 0.11294  0.92493  0.90946  Biso   1.000  C
  C120     1.0000 0.11297  0.92497  0.90946  Biso   1.000  C
  C121     1.0000 0.11298  0.92493  0.90946  Biso   1.000  C
  H95      1.0000 0.14678  0.83426  0.97323  Biso   1.000  H
  H96      1.0000 0.11370  0.77787  0.93372  Biso   1.000  H
  H97      1.0000 0.11364  0.77783  0.93372  Biso   1.000  H
  H98      1.0000 0.14674  0.83426  0.97323  Biso   1.000  H
  H99      1.0000 0.11366  0.77787  0.93372  Biso   1.000  H
  H100     1.0000 0.11368  0.77783  0.93372  Biso   1.000  H
  C122     1.0000 0.07765  0.75398  0.00853  Biso   1.000  C
  H101     1.0000 0.99514  0.67376  0.02465  Biso   1.000  H
  H102     1.0000 0.99518  0.67376  0.02465  Biso   1.000  H
  H103     1.0000 0.01888  0.67498  0.96713  Biso   1.000  H
  H104     1.0000 0.01886  0.67493  0.96713  Biso   1.000  H
  H105     1.0000 0.10181  0.19914  0.72897  Biso   1.000  H
  H106     1.0000 0.10185  0.19914  0.72897  Biso   1.000  H
  C123     1.0000 0.93021  0.11463  0.79584  Biso   1.000  C
  C124     1.0000 0.93017  0.11463  0.79584  Biso   1.000  C
  C125     1.0000 0.03773  0.17793  0.81738  Biso   1.000  C
  C126     1.0000 0.03777  0.17793  0.81738  Biso   1.000  C
  N16      1.0000 0.16547  0.20812  0.58751  Biso   1.000  N
  N17      1.0000 0.16545  0.20808  0.58751  Biso   1.000  N
  H107     1.0000 0.18133  0.22355  0.66115  Biso   1.000  H
  C127     1.0000 0.23990  0.17591  0.55567  Biso   1.000  C
  C128     1.0000 0.23994  0.17591  0.55567  Biso   1.000  C
  C129     1.0000 0.14081  0.97520  0.87042  Biso   1.000  C
  H108     1.0000 0.12498  0.92074  0.80724  Biso   1.000  H
  H109     1.0000 0.12494  0.92074  0.80724  Biso   1.000  H
  C130     1.0000 0.18644  0.08529  0.84868  Biso   1.000  C
  H110     1.0000 0.19913  0.10180  0.77103  Biso   1.000  H
  C131     1.0000 0.18638  0.08524  0.84868  Biso   1.000  C
  H111     1.0000 0.19917  0.10180  0.77103  Biso   1.000  H
  C132     1.0000 0.18642  0.08524  0.84868  Biso   1.000  C
  C133     1.0000 0.91467  0.10114  0.84868  Biso   1.000  C
  H112     1.0000 0.81866  0.04221  0.83885  Biso   1.000  H
  C134     1.0000 0.91471  0.10114  0.84868  Biso   1.000  C
  H113     1.0000 0.81862  0.04221  0.83885  Biso   1.000  H
  H114     1.0000 0.65607  0.98117  0.96713  Biso   1.000  H
  H115     1.0000 0.67857  0.00483  0.02465  Biso   1.000  H
  H116     1.0000 0.67853  0.00483  0.02465  Biso   1.000  H
  H117     1.0000 0.10956  0.93617  0.94374  Biso   1.000  H
  H118     1.0000 0.10960  0.93617  0.94374  Biso   1.000  H
  H119     1.0000 0.07368  0.77618  0.03853  Biso   1.000  H
  H120     1.0000 0.10510  0.73785  0.01844  Biso   1.000  H
  H121     1.0000 0.07365  0.77613  0.03853  Biso   1.000  H
  H122     1.0000 0.10506  0.73785  0.01844  Biso   1.000  H
  H123     1.0000 0.07370  0.77613  0.03853  Biso   1.000  H
  H124     1.0000 0.89818  0.09733  0.77103  Biso   1.000  H
  H125     1.0000 0.89814  0.09733  0.77103  Biso   1.000  H
  C135     1.0000 0.02481  0.16561  0.87042  Biso   1.000  C
  C136     1.0000 0.02477  0.16561  0.87042  Biso   1.000  C
  H126     1.0000 0.07926  0.20422  0.80724  Biso   1.000  H
  C137     1.0000 0.23049  0.23032  0.57226  Biso   1.000  C
  H127     1.0000 0.21130  0.15334  0.52658  Biso   1.000  H
  C138     1.0000 0.30721  0.20074  0.53731  Biso   1.000  C
  H128     1.0000 0.21134  0.15334  0.52658  Biso   1.000  H
  C139     1.0000 0.30725  0.20074  0.53731  Biso   1.000  C
  C140     1.0000 0.16429  0.03756  0.88654  Biso   1.000  C
  C141     1.0000 0.16433  0.03756  0.88654  Biso   1.000  C
  C142     1.0000 0.20860  0.15014  0.86444  Biso   1.000  C
  C143     1.0000 0.20864  0.15014  0.86444  Biso   1.000  C
  C144     1.0000 0.96240  0.12672  0.88654  Biso   1.000  C
  C145     1.0000 0.96236  0.12672  0.88654  Biso   1.000  C
  C146     1.0000 0.07508  0.18804  0.90946  Biso   1.000  C
  H129     1.0000 0.25821  0.25238  0.60206  Biso   1.000  H
  C147     1.0000 0.24687  0.27636  0.52630  Biso   1.000  C
  H130     1.0000 0.25819  0.25233  0.60206  Biso   1.000  H
  H131     1.0000 0.25825  0.25238  0.60206  Biso   1.000  H
  C148     1.0000 0.24691  0.27636  0.52630  Biso   1.000  C
  H132     1.0000 0.25823  0.25233  0.60206  Biso   1.000  H
  H133     1.0000 0.31252  0.16575  0.52677  Biso   1.000  H
  H134     1.0000 0.33582  0.22214  0.56628  Biso   1.000  H
  C149     1.0000 0.32366  0.24603  0.49147  Biso   1.000  C
  H135     1.0000 0.33578  0.22214  0.56628  Biso   1.000  H
  C150     1.0000 0.32364  0.24598  0.49147  Biso   1.000  C
  H136     1.0000 0.31248  0.16575  0.52677  Biso   1.000  H
  C151     1.0000 0.32370  0.24603  0.49147  Biso   1.000  C
  O9       1.0000 0.16429  0.05035  0.93761  Biso   1.000  O
  O10      1.0000 0.16425  0.05035  0.93761  Biso   1.000  O
  N18      1.0000 0.20812  0.16547  0.91249  Biso   1.000  N
  H137     1.0000 0.22354  0.18132  0.83885  Biso   1.000  H
  N19      1.0000 0.20810  0.16542  0.91249  Biso   1.000  N
  H138     1.0000 0.22358  0.18132  0.83885  Biso   1.000  H
  O11      1.0000 0.94963  0.11388  0.93761  Biso   1.000  O
  O12      1.0000 0.94959  0.11388  0.93761  Biso   1.000  O
  N20      1.0000 0.13243  0.22562  0.90042  Biso   1.000  N
  N21      1.0000 0.13239  0.22562  0.90042  Biso   1.000  N
  H139     1.0000 0.06386  0.17342  0.94374  Biso   1.000  H
  C152     1.0000 0.31391  0.29983  0.50598  Biso   1.000  C
  C153     1.0000 0.31388  0.29978  0.50598  Biso   1.000  C
  C154     1.0000 0.31395  0.29983  0.50598  Biso   1.000  C
  H140     1.0000 0.21714  0.25567  0.49796  Biso   1.000  H
  H141     1.0000 0.24313  0.31205  0.53766  Biso   1.000  H
  H142     1.0000 0.21710  0.25567  0.49796  Biso   1.000  H
  H143     1.0000 0.24309  0.31205  0.53766  Biso   1.000  H
  H144     1.0000 0.29749  0.22383  0.46147  Biso   1.000  H
  H145     1.0000 0.36724  0.26216  0.48156  Biso   1.000  H
  H146     1.0000 0.36720  0.26216  0.48156  Biso   1.000  H
  H147     1.0000 0.29753  0.22383  0.46147  Biso   1.000  H
  H148     1.0000 0.17154  0.08661  0.94103  Biso   1.000  H
  C155     1.0000 0.23034  0.23051  0.92774  Biso   1.000  C
  C156     1.0000 0.23038  0.23051  0.92774  Biso   1.000  C
  H149     1.0000 0.91332  0.08491  0.94103  Biso   1.000  H
  H150     1.0000 0.91336  0.08491  0.94103  Biso   1.000  H
  C157     1.0000 0.17591  0.23991  0.94433  Biso   1.000  C
  C158     1.0000 0.17595  0.23991  0.94433  Biso   1.000  C
  H151     1.0000 0.34390  0.32503  0.53287  Biso   1.000  H
  H152     1.0000 0.32142  0.32625  0.47535  Biso   1.000  H
  H153     1.0000 0.34394  0.32503  0.53287  Biso   1.000  H
  H154     1.0000 0.25233  0.25821  0.89794  Biso   1.000  H
  C159     1.0000 0.27635  0.24687  0.97370  Biso   1.000  C
  H155     1.0000 0.25237  0.25821  0.89794  Biso   1.000  H
  C160     1.0000 0.27639  0.24687  0.97370  Biso   1.000  C
  H156     1.0000 0.15335  0.21132  0.97342  Biso   1.000  H
  C161     1.0000 0.20076  0.30721  0.96269  Biso   1.000  C
  C162     1.0000 0.20072  0.30721  0.96269  Biso   1.000  C
  H157     1.0000 0.15339  0.21132  0.97342  Biso   1.000  H
  C163     1.0000 0.29980  0.31389  0.99402  Biso   1.000  C
  H158     1.0000 0.31206  0.24311  0.96234  Biso   1.000  H
  H159     1.0000 0.31202  0.24311  0.96234  Biso   1.000  H
  H160     1.0000 0.25565  0.21711  0.00204  Biso   1.000  H
  H161     1.0000 0.25561  0.21711  0.00204  Biso   1.000  H
  H162     1.0000 0.16574  0.31252  0.97323  Biso   1.000  H
  H163     1.0000 0.22214  0.33580  0.93372  Biso   1.000  H
  H164     1.0000 0.16578  0.31252  0.97323  Biso   1.000  H
  H165     1.0000 0.22218  0.33580  0.93372  Biso   1.000  H
  C164     1.0000 0.24601  0.32367  0.00853  Biso   1.000  C
  H166     1.0000 0.32505  0.34394  0.96713  Biso   1.000  H
  H167     1.0000 0.32509  0.34394  0.96713  Biso   1.000  H
  H168     1.0000 0.32625  0.32141  0.02465  Biso   1.000  H
  H169     1.0000 0.22385  0.29752  0.03853  Biso   1.000  H
  H170     1.0000 0.26216  0.36722  0.01844  Biso   1.000  H
  H171     1.0000 0.22389  0.29752  0.03853  Biso   1.000  H
  O13      1.0000 0.83572  0.88613  0.56239  Biso   1.000  O
  C165     1.0000 0.83565  0.87329  0.61346  Biso   1.000  C
  C166     1.0000 0.83569  0.87329  0.61346  Biso   1.000  C
  H172     1.0000 0.82845  0.91510  0.55897  Biso   1.000  H
  H173     1.0000 0.82841  0.91510  0.55897  Biso   1.000  H
  C167     1.0000 0.85917  0.83440  0.62958  Biso   1.000  C
  C168     1.0000 0.81358  0.89887  0.65132  Biso   1.000  C
  O14      1.0000 0.83569  0.88608  0.56239  Biso   1.000  O
  C169     1.0000 0.81354  0.89887  0.65132  Biso   1.000  C
  C170     1.0000 0.88701  0.81197  0.59054  Biso   1.000  C
  C171     1.0000 0.88705  0.81197  0.59054  Biso   1.000  C
  C172     1.0000 0.85979  0.82203  0.68262  Biso   1.000  C
  C173     1.0000 0.85977  0.82208  0.68262  Biso   1.000  C
  C174     1.0000 0.85981  0.82208  0.68262  Biso   1.000  C
  C175     1.0000 0.81555  0.88538  0.70416  Biso   1.000  C
  C176     1.0000 0.79140  0.94157  0.63556  Biso   1.000  C
  C177     1.0000 0.79135  0.94157  0.63556  Biso   1.000  C
  C178     1.0000 0.81559  0.88538  0.70416  Biso   1.000  C
  N22      1.0000 0.90679  0.77439  0.59958  Biso   1.000  N
  H174     1.0000 0.89041  0.82659  0.55626  Biso   1.000  H
  H175     1.0000 0.89045  0.82659  0.55626  Biso   1.000  H
  H176     1.0000 0.87501  0.79579  0.69276  Biso   1.000  H
  C179     1.0000 0.83861  0.84696  0.72154  Biso   1.000  C
  H177     1.0000 0.87505  0.79579  0.69276  Biso   1.000  H
  C180     1.0000 0.83865  0.84696  0.72154  Biso   1.000  C
  H178     1.0000 0.80082  0.90268  0.72897  Biso   1.000  H
  N23      1.0000 0.79188  0.95738  0.58751  Biso   1.000  N
  H179     1.0000 0.77642  0.95780  0.66115  Biso   1.000  H
  N24      1.0000 0.79184  0.95738  0.58751  Biso   1.000  N
  H180     1.0000 0.77646  0.95780  0.66115  Biso   1.000  H
  C181     1.0000 0.93601  0.76010  0.55567  Biso   1.000  C
  C182     1.0000 0.93597  0.76010  0.55567  Biso   1.000  C
  C183     1.0000 0.84693  0.83868  0.77846  Biso   1.000  C
  C184     1.0000 0.84695  0.83863  0.77846  Biso   1.000  C
  C185     1.0000 0.84691  0.83863  0.77846  Biso   1.000  C
  C186     1.0000 0.76964  0.00012  0.57226  Biso   1.000  C
  C187     1.0000 0.76960  0.00012  0.57226  Biso   1.000  C
  C188     1.0000 0.89353  0.69280  0.53731  Biso   1.000  C
  C189     1.0000 0.89350  0.69275  0.53731  Biso   1.000  C
  C190     1.0000 0.99984  0.76950  0.57226  Biso   1.000  C
  C191     1.0000 0.99980  0.76950  0.57226  Biso   1.000  C
  H181     1.0000 0.94204  0.78869  0.52658  Biso   1.000  H
  H182     1.0000 0.94200  0.78869  0.52658  Biso   1.000  H
  C192     1.0000 0.82204  0.85984  0.81738  Biso   1.000  C
  C193     1.0000 0.88532  0.81559  0.79584  Biso   1.000  C
  C194     1.0000 0.82200  0.85984  0.81738  Biso   1.000  C
  C195     1.0000 0.88536  0.81559  0.79584  Biso   1.000  C
  C196     1.0000 0.72361  0.97054  0.52630  Biso   1.000  C
  C197     1.0000 0.82405  0.06399  0.55567  Biso   1.000  C
  H183     1.0000 0.74763  0.00586  0.60206  Biso   1.000  H
  C198     1.0000 0.82409  0.06399  0.55567  Biso   1.000  C
  H184     1.0000 0.74758  0.00586  0.60206  Biso   1.000  H
  C199     1.0000 0.92232  0.67634  0.49147  Biso   1.000  C
  C200     1.0000 0.92236  0.67634  0.49147  Biso   1.000  C
  H185     1.0000 0.85324  0.68749  0.52677  Biso   1.000  H
  H186     1.0000 0.85320  0.68749  0.52677  Biso   1.000  H
  H187     1.0000 0.88632  0.66421  0.56628  Biso   1.000  H
  H188     1.0000 0.88633  0.66416  0.56628  Biso   1.000  H
  H189     1.0000 0.88636  0.66421  0.56628  Biso   1.000  H
  H190     1.0000 0.88629  0.66416  0.56628  Biso   1.000  H
  C201     1.0000 0.02950  0.75314  0.52630  Biso   1.000  C
  H191     1.0000 0.99414  0.74180  0.60206  Biso   1.000  H
  H192     1.0000 0.99410  0.74180  0.60206  Biso   1.000  H
  N25      1.0000 0.04267  0.83454  0.58751  Biso   1.000  N
  N26      1.0000 0.04263  0.83454  0.58751  Biso   1.000  N
  H193     1.0000 0.79575  0.87503  0.80724  Biso   1.000  H
  C202     1.0000 0.83436  0.85923  0.87042  Biso   1.000  C
  H194     1.0000 0.79574  0.87508  0.80724  Biso   1.000  H
  C203     1.0000 0.83438  0.85918  0.87042  Biso   1.000  C
  C204     1.0000 0.83440  0.85923  0.87042  Biso   1.000  C
  H195     1.0000 0.79578  0.87508  0.80724  Biso   1.000  H
  C205     1.0000 0.83434  0.85918  0.87042  Biso   1.000  C
  H196     1.0000 0.90268  0.80087  0.77103  Biso   1.000  H
  C206     1.0000 0.89885  0.81357  0.84868  Biso   1.000  C
  H197     1.0000 0.90264  0.80087  0.77103  Biso   1.000  H
  C207     1.0000 0.89883  0.81361  0.84868  Biso   1.000  C
  C208     1.0000 0.89887  0.81361  0.84868  Biso   1.000  C
  H198     1.0000 0.68792  0.93109  0.53766  Biso   1.000  H
  H199     1.0000 0.74433  0.96147  0.49796  Biso   1.000  H
  H200     1.0000 0.74431  0.96151  0.49796  Biso   1.000  H
  H201     1.0000 0.74435  0.96151  0.49796  Biso   1.000  H
  C209     1.0000 0.70018  0.01409  0.50598  Biso   1.000  C
  C210     1.0000 0.70014  0.01409  0.50598  Biso   1.000  C
  N27      1.0000 0.86757  0.09319  0.59958  Biso   1.000  N
  H202     1.0000 0.84662  0.05797  0.52658  Biso   1.000  H
  C211     1.0000 0.79922  0.10645  0.53731  Biso   1.000  C
  H203     1.0000 0.84659  0.05792  0.52658  Biso   1.000  H
  N28      1.0000 0.86753  0.09319  0.59958  Biso   1.000  N
  C212     1.0000 0.79918  0.10645  0.53731  Biso   1.000  C
  C213     1.0000 0.98589  0.68612  0.50598  Biso   1.000  C
  H204     1.0000 0.92635  0.70249  0.46147  Biso   1.000  H
  H205     1.0000 0.89492  0.63280  0.48156  Biso   1.000  H
  H206     1.0000 0.92631  0.70249  0.46147  Biso   1.000  H
  C214     1.0000 0.98593  0.68612  0.50598  Biso   1.000  C
  H207     1.0000 0.89496  0.63280  0.48156  Biso   1.000  H
  H208     1.0000 0.03856  0.78291  0.49796  Biso   1.000  H
  H209     1.0000 0.06897  0.75690  0.53766  Biso   1.000  H
  H210     1.0000 0.06892  0.75690  0.53766  Biso   1.000  H
  H211     1.0000 0.03851  0.78291  0.49796  Biso   1.000  H
  C215     1.0000 0.05848  0.84987  0.63556  Biso   1.000  C
  C216     1.0000 0.81196  0.88707  0.90946  Biso   1.000  C
  C217     1.0000 0.87327  0.83572  0.88654  Biso   1.000  C
  C218     1.0000 0.87324  0.83567  0.88654  Biso   1.000  C
  C219     1.0000 0.94153  0.79142  0.86444  Biso   1.000  C
  H212     1.0000 0.67375  0.99519  0.47535  Biso   1.000  H
  H213     1.0000 0.67371  0.99519  0.47535  Biso   1.000  H
  C220     1.0000 0.75398  0.07762  0.49147  Biso   1.000  C
  H214     1.0000 0.67495  0.01884  0.53287  Biso   1.000  H
  H215     1.0000 0.67491  0.01884  0.53287  Biso   1.000  H
  C221     1.0000 0.75394  0.07762  0.49147  Biso   1.000  C
  C222     1.0000 0.92493  0.11294  0.59054  Biso   1.000  C
  C223     1.0000 0.92489  0.11294  0.59054  Biso   1.000  C
  H216     1.0000 0.83424  0.14675  0.52677  Biso   1.000  H
  H217     1.0000 0.77781  0.11365  0.56628  Biso   1.000  H
  H218     1.0000 0.83420  0.14675  0.52677  Biso   1.000  H
  H219     1.0000 0.98113  0.65607  0.53287  Biso   1.000  H
  H220     1.0000 0.98109  0.65607  0.53287  Biso   1.000  H
  H221     1.0000 0.00485  0.67860  0.47535  Biso   1.000  H
  H222     1.0000 0.00481  0.67860  0.47535  Biso   1.000  H
  C224     1.0000 0.10116  0.91472  0.65132  Biso   1.000  C
  H223     1.0000 0.04224  0.81869  0.66115  Biso   1.000  H
  C225     1.0000 0.10112  0.91472  0.65132  Biso   1.000  C
  H224     1.0000 0.04228  0.81869  0.66115  Biso   1.000  H
  H225     1.0000 0.82656  0.89046  0.94374  Biso   1.000  H
  N29      1.0000 0.77439  0.90682  0.90042  Biso   1.000  N
  N30      1.0000 0.77435  0.90682  0.90042  Biso   1.000  N
  O15      1.0000 0.88606  0.83572  0.93761  Biso   1.000  O
  O16      1.0000 0.88610  0.83572  0.93761  Biso   1.000  O
  N31      1.0000 0.95732  0.79189  0.91249  Biso   1.000  N
  H226     1.0000 0.95775  0.77646  0.83885  Biso   1.000  H
  N32      1.0000 0.95736  0.79189  0.91249  Biso   1.000  N
  H227     1.0000 0.95779  0.77646  0.83885  Biso   1.000  H
  H228     1.0000 0.77615  0.07367  0.46147  Biso   1.000  H
  H229     1.0000 0.73784  0.10504  0.48156  Biso   1.000  H
  H230     1.0000 0.77609  0.07363  0.46147  Biso   1.000  H
  H231     1.0000 0.73780  0.10504  0.48156  Biso   1.000  H
  H232     1.0000 0.77611  0.07367  0.46147  Biso   1.000  H
  C226     1.0000 0.97517  0.14078  0.62958  Biso   1.000  C
  H233     1.0000 0.93614  0.10955  0.55626  Biso   1.000  H
  H234     1.0000 0.93610  0.10955  0.55626  Biso   1.000  H
  C227     1.0000 0.97513  0.14078  0.62958  Biso   1.000  C
  C228     1.0000 0.12674  0.96245  0.61346  Biso   1.000  C
  C229     1.0000 0.11466  0.93024  0.70416  Biso   1.000  C
  C230     1.0000 0.12671  0.96241  0.61346  Biso   1.000  C
  C231     1.0000 0.12676  0.96241  0.61346  Biso   1.000  C
  C232     1.0000 0.76007  0.93603  0.94433  Biso   1.000  C
  C233     1.0000 0.76011  0.93603  0.94433  Biso   1.000  C
  H235     1.0000 0.91506  0.82847  0.94103  Biso   1.000  H
  H236     1.0000 0.91507  0.82843  0.94103  Biso   1.000  H
  H237     1.0000 0.91503  0.82843  0.94103  Biso   1.000  H
  C234     1.0000 0.00018  0.76969  0.92774  Biso   1.000  C
  C235     1.0000 0.00016  0.76964  0.92774  Biso   1.000  C
  C236     1.0000 0.00014  0.76969  0.92774  Biso   1.000  C
  C237     1.0000 0.96216  0.14017  0.68262  Biso   1.000  C
  C238     1.0000 0.96220  0.14017  0.68262  Biso   1.000  C
  C239     1.0000 0.03759  0.16429  0.61346  Biso   1.000  C
  C240     1.0000 0.03755  0.16429  0.61346  Biso   1.000  C
  O17      1.0000 0.11395  0.94966  0.56239  Biso   1.000  O
  O18      1.0000 0.11391  0.94966  0.56239  Biso   1.000  O
  C241     1.0000 0.16561  0.02481  0.62958  Biso   1.000  C
  C242     1.0000 0.16559  0.02476  0.62958  Biso   1.000  C
  C243     1.0000 0.16565  0.02481  0.62958  Biso   1.000  C
  C244     1.0000 0.15305  0.99171  0.72154  Biso   1.000  C
  H238     1.0000 0.09735  0.89822  0.72897  Biso   1.000  H
  H239     1.0000 0.09732  0.89817  0.72897  Biso   1.000  H
  C245     1.0000 0.76948  0.99989  0.92774  Biso   1.000  C
  H240     1.0000 0.78866  0.94204  0.97342  Biso   1.000  H
  C246     1.0000 0.69278  0.89356  0.96269  Biso   1.000  C
  C247     1.0000 0.69274  0.89356  0.96269  Biso   1.000  C
  H241     1.0000 0.78862  0.94204  0.97342  Biso   1.000  H
  C248     1.0000 0.76950  0.99984  0.92774  Biso   1.000  C
  C249     1.0000 0.76946  0.99984  0.92774  Biso   1.000  C
  C250     1.0000 0.06400  0.82410  0.94433  Biso   1.000  C
  C251     1.0000 0.97053  0.72365  0.97370  Biso   1.000  C
  C252     1.0000 0.97049  0.72365  0.97370  Biso   1.000  C
  H242     1.0000 0.00585  0.74763  0.89794  Biso   1.000  H
  H243     1.0000 0.00589  0.74763  0.89794  Biso   1.000  H
  H244     1.0000 0.92070  0.12493  0.69276  Biso   1.000  H
  C253     1.0000 0.00829  0.16133  0.72154  Biso   1.000  C
  C254     1.0000 0.08525  0.18640  0.65132  Biso   1.000  C
  C255     1.0000 0.08529  0.18640  0.65132  Biso   1.000  C
  O19      1.0000 0.05038  0.16429  0.56239  Biso   1.000  O
  O20      1.0000 0.05035  0.16425  0.56239  Biso   1.000  O
  H245     1.0000 0.08495  0.91341  0.55897  Biso   1.000  H
  C256     1.0000 0.17794  0.03774  0.68262  Biso   1.000  C
  C257     1.0000 0.18804  0.07504  0.59054  Biso   1.000  C
  C258     1.0000 0.18800  0.07504  0.59054  Biso   1.000  C
  C259     1.0000 0.16135  0.00831  0.77846  Biso   1.000  C
  H246     1.0000 0.74177  0.99415  0.89794  Biso   1.000  H
  H247     1.0000 0.74173  0.99415  0.89794  Biso   1.000  H
  N33      1.0000 0.83451  0.04264  0.91249  Biso   1.000  N
  C260     1.0000 0.75312  0.02947  0.97370  Biso   1.000  C
  C261     1.0000 0.75308  0.02947  0.97370  Biso   1.000  C
  H248     1.0000 0.68745  0.85326  0.97323  Biso   1.000  H
  H249     1.0000 0.66418  0.88636  0.93372  Biso   1.000  H
  H250     1.0000 0.66414  0.88636  0.93372  Biso   1.000  H
  H251     1.0000 0.68750  0.85326  0.97323  Biso   1.000  H
  C262     1.0000 0.67632  0.92239  0.00853  Biso   1.000  C
  C263     1.0000 0.67634  0.92234  0.00853  Biso   1.000  C
  C264     1.0000 0.67630  0.92234  0.00853  Biso   1.000  C
  N34      1.0000 0.09320  0.86760  0.90042  Biso   1.000  N
  H252     1.0000 0.05798  0.84667  0.97342  Biso   1.000  H
  C265     1.0000 0.10648  0.79927  0.96269  Biso   1.000  C
  H253     1.0000 0.05802  0.84667  0.97342  Biso   1.000  H
  C266     1.0000 0.10652  0.79927  0.96269  Biso   1.000  C
  H254     1.0000 0.93106  0.68796  0.96234  Biso   1.000  H
  H255     1.0000 0.96145  0.74434  0.00204  Biso   1.000  H
  C267     1.0000 0.01410  0.70018  0.99402  Biso   1.000  C
  C268     1.0000 0.01406  0.70018  0.99402  Biso   1.000  C
  C269     1.0000 0.06977  0.18442  0.70416  Biso   1.000  C
  C270     1.0000 0.99169  0.15305  0.77846  Biso   1.000  C
  C271     1.0000 0.99167  0.15301  0.77846  Biso   1.000  C
  C272     1.0000 0.99165  0.15305  0.77846  Biso   1.000  C
  C273     1.0000 0.99163  0.15301  0.77846  Biso   1.000  C
  C274     1.0000 0.15015  0.20859  0.63556  Biso   1.000  C
  C275     1.0000 0.15011  0.20859  0.63556  Biso   1.000  C
  H256     1.0000 0.08662  0.17154  0.55897  Biso   1.000  H
  H257     1.0000 0.20424  0.07927  0.69276  Biso   1.000  H
  H258     1.0000 0.20418  0.07922  0.69276  Biso   1.000  H
  H259     1.0000 0.20422  0.07922  0.69276  Biso   1.000  H
  N35      1.0000 0.22560  0.13241  0.59958  Biso   1.000  N
  H260     1.0000 0.17340  0.06384  0.55626  Biso   1.000  H
  N36      1.0000 0.22564  0.13241  0.59958  Biso   1.000  N
  H261     1.0000 0.17344  0.06384  0.55626  Biso   1.000  H
  C276     1.0000 0.14021  0.96227  0.81738  Biso   1.000  C
  C277     1.0000 0.18443  0.06977  0.79584  Biso   1.000  C
  C278     1.0000 0.18447  0.06977  0.79584  Biso   1.000  C
  C279     1.0000 0.84982  0.05844  0.86444  Biso   1.000  C
  C280     1.0000 0.68610  0.98592  0.99402  Biso   1.000  C
  C281     1.0000 0.68606  0.98592  0.99402  Biso   1.000  C
  H262     1.0000 0.75684  0.06892  0.96234  Biso   1.000  H
  H263     1.0000 0.78284  0.03850  0.00204  Biso   1.000  H
  H264     1.0000 0.70245  0.92634  0.03853  Biso   1.000  H
  H265     1.0000 0.63277  0.89497  0.01844  Biso   1.000  H
  C282     1.0000 0.11301  0.92497  0.90946  Biso   1.000  C
  C283     1.0000 0.11294  0.92493  0.90946  Biso   1.000  C
  C284     1.0000 0.11297  0.92497  0.90946  Biso   1.000  C
  C285     1.0000 0.11298  0.92493  0.90946  Biso   1.000  C
  H266     1.0000 0.14678  0.83426  0.97323  Biso   1.000  H
  H267     1.0000 0.11370  0.77787  0.93372  Biso   1.000  H
  H268     1.0000 0.11364  0.77783  0.93372  Biso   1.000  H
  H269     1.0000 0.14674  0.83426  0.97323  Biso   1.000  H
  H270     1.0000 0.11366  0.77787  0.93372  Biso   1.000  H
  H271     1.0000 0.11368  0.77783  0.93372  Biso   1.000  H
  C286     1.0000 0.07765  0.75398  0.00853  Biso   1.000  C
  H272     1.0000 0.99514  0.67376  0.02465  Biso   1.000  H
  H273     1.0000 0.99518  0.67376  0.02465  Biso   1.000  H
  H274     1.0000 0.01888  0.67498  0.96713  Biso   1.000  H
  H275     1.0000 0.01886  0.67493  0.96713  Biso   1.000  H
  H276     1.0000 0.10181  0.19914  0.72897  Biso   1.000  H
  H277     1.0000 0.10185  0.19914  0.72897  Biso   1.000  H
  C287     1.0000 0.93021  0.11463  0.79584  Biso   1.000  C
  C288     1.0000 0.93017  0.11463  0.79584  Biso   1.000  C
  C289     1.0000 0.03773  0.17793  0.81738  Biso   1.000  C
  C290     1.0000 0.03777  0.17793  0.81738  Biso   1.000  C
  N37      1.0000 0.16547  0.20812  0.58751  Biso   1.000  N
  N38      1.0000 0.16545  0.20808  0.58751  Biso   1.000  N
  H278     1.0000 0.18133  0.22355  0.66115  Biso   1.000  H
  C291     1.0000 0.23990  0.17591  0.55567  Biso   1.000  C
  C292     1.0000 0.23994  0.17591  0.55567  Biso   1.000  C
  C293     1.0000 0.14081  0.97520  0.87042  Biso   1.000  C
  H279     1.0000 0.12498  0.92074  0.80724  Biso   1.000  H
  H280     1.0000 0.12494  0.92074  0.80724  Biso   1.000  H
  C294     1.0000 0.18644  0.08529  0.84868  Biso   1.000  C
  H281     1.0000 0.19913  0.10180  0.77103  Biso   1.000  H
  C295     1.0000 0.18638  0.08524  0.84868  Biso   1.000  C
  H282     1.0000 0.19917  0.10180  0.77103  Biso   1.000  H
  C296     1.0000 0.18642  0.08524  0.84868  Biso   1.000  C
  C297     1.0000 0.91467  0.10114  0.84868  Biso   1.000  C
  H283     1.0000 0.81866  0.04221  0.83885  Biso   1.000  H
  C298     1.0000 0.91471  0.10114  0.84868  Biso   1.000  C
  H284     1.0000 0.81862  0.04221  0.83885  Biso   1.000  H
  H285     1.0000 0.65607  0.98117  0.96713  Biso   1.000  H
  H286     1.0000 0.67857  0.00483  0.02465  Biso   1.000  H
  H287     1.0000 0.67853  0.00483  0.02465  Biso   1.000  H
  H288     1.0000 0.10956  0.93617  0.94374  Biso   1.000  H
  H289     1.0000 0.10960  0.93617  0.94374  Biso   1.000  H
  H290     1.0000 0.07368  0.77618  0.03853  Biso   1.000  H
  H291     1.0000 0.10510  0.73785  0.01844  Biso   1.000  H
  H292     1.0000 0.07365  0.77613  0.03853  Biso   1.000  H
  H293     1.0000 0.10506  0.73785  0.01844  Biso   1.000  H
  H294     1.0000 0.07370  0.77613  0.03853  Biso   1.000  H
  H295     1.0000 0.89818  0.09733  0.77103  Biso   1.000  H
  H296     1.0000 0.89814  0.09733  0.77103  Biso   1.000  H
  C299     1.0000 0.02481  0.16561  0.87042  Biso   1.000  C
  C300     1.0000 0.02477  0.16561  0.87042  Biso   1.000  C
  H297     1.0000 0.07926  0.20422  0.80724  Biso   1.000  H
  C301     1.0000 0.23049  0.23032  0.57226  Biso   1.000  C
  H298     1.0000 0.21130  0.15334  0.52658  Biso   1.000  H
  C302     1.0000 0.30721  0.20074  0.53731  Biso   1.000  C
  H299     1.0000 0.21134  0.15334  0.52658  Biso   1.000  H
  C303     1.0000 0.30725  0.20074  0.53731  Biso   1.000  C
  C304     1.0000 0.16429  0.03756  0.88654  Biso   1.000  C
  C305     1.0000 0.16433  0.03756  0.88654  Biso   1.000  C
  C306     1.0000 0.20860  0.15014  0.86444  Biso   1.000  C
  C307     1.0000 0.20864  0.15014  0.86444  Biso   1.000  C
  C308     1.0000 0.96240  0.12672  0.88654  Biso   1.000  C
  C309     1.0000 0.96236  0.12672  0.88654  Biso   1.000  C
  C310     1.0000 0.07508  0.18804  0.90946  Biso   1.000  C
  H300     1.0000 0.25821  0.25238  0.60206  Biso   1.000  H
  C311     1.0000 0.24687  0.27636  0.52630  Biso   1.000  C
  H301     1.0000 0.25819  0.25233  0.60206  Biso   1.000  H
  H302     1.0000 0.25825  0.25238  0.60206  Biso   1.000  H
  C312     1.0000 0.24691  0.27636  0.52630  Biso   1.000  C
  H303     1.0000 0.25823  0.25233  0.60206  Biso   1.000  H
  H304     1.0000 0.31252  0.16575  0.52677  Biso   1.000  H
  H305     1.0000 0.33582  0.22214  0.56628  Biso   1.000  H
  C313     1.0000 0.32366  0.24603  0.49147  Biso   1.000  C
  H306     1.0000 0.33578  0.22214  0.56628  Biso   1.000  H
  C314     1.0000 0.32364  0.24598  0.49147  Biso   1.000  C
  H307     1.0000 0.31248  0.16575  0.52677  Biso   1.000  H
  C315     1.0000 0.32370  0.24603  0.49147  Biso   1.000  C
  O21      1.0000 0.16429  0.05035  0.93761  Biso   1.000  O
  O22      1.0000 0.16425  0.05035  0.93761  Biso   1.000  O
  N39      1.0000 0.20812  0.16547  0.91249  Biso   1.000  N
  H308     1.0000 0.22354  0.18132  0.83885  Biso   1.000  H
  N40      1.0000 0.20810  0.16542  0.91249  Biso   1.000  N
  H309     1.0000 0.22358  0.18132  0.83885  Biso   1.000  H
  O23      1.0000 0.94963  0.11388  0.93761  Biso   1.000  O
  O24      1.0000 0.94959  0.11388  0.93761  Biso   1.000  O
  N41      1.0000 0.13243  0.22562  0.90042  Biso   1.000  N
  N42      1.0000 0.13239  0.22562  0.90042  Biso   1.000  N
  H310     1.0000 0.06386  0.17342  0.94374  Biso   1.000  H
  C316     1.0000 0.31391  0.29983  0.50598  Biso   1.000  C
  C317     1.0000 0.31388  0.29978  0.50598  Biso   1.000  C
  C318     1.0000 0.31395  0.29983  0.50598  Biso   1.000  C
  H311     1.0000 0.21714  0.25567  0.49796  Biso   1.000  H
  H312     1.0000 0.24313  0.31205  0.53766  Biso   1.000  H
  H313     1.0000 0.21710  0.25567  0.49796  Biso   1.000  H
  H314     1.0000 0.24309  0.31205  0.53766  Biso   1.000  H
  H315     1.0000 0.29749  0.22383  0.46147  Biso   1.000  H
  H316     1.0000 0.36724  0.26216  0.48156  Biso   1.000  H
  H317     1.0000 0.36720  0.26216  0.48156  Biso   1.000  H
  H318     1.0000 0.29753  0.22383  0.46147  Biso   1.000  H
  H319     1.0000 0.17154  0.08661  0.94103  Biso   1.000  H
  C319     1.0000 0.23034  0.23051  0.92774  Biso   1.000  C
  C320     1.0000 0.23038  0.23051  0.92774  Biso   1.000  C
  H320     1.0000 0.91332  0.08491  0.94103  Biso   1.000  H
  H321     1.0000 0.91336  0.08491  0.94103  Biso   1.000  H
  C321     1.0000 0.17591  0.23991  0.94433  Biso   1.000  C
  C322     1.0000 0.17595  0.23991  0.94433  Biso   1.000  C
  H322     1.0000 0.34390  0.32503  0.53287  Biso   1.000  H
  H323     1.0000 0.32142  0.32625  0.47535  Biso   1.000  H
  H324     1.0000 0.34394  0.32503  0.53287  Biso   1.000  H
  H325     1.0000 0.25233  0.25821  0.89794  Biso   1.000  H
  C323     1.0000 0.27635  0.24687  0.97370  Biso   1.000  C
  H326     1.0000 0.25237  0.25821  0.89794  Biso   1.000  H
  C324     1.0000 0.27639  0.24687  0.97370  Biso   1.000  C
  H327     1.0000 0.15335  0.21132  0.97342  Biso   1.000  H
  C325     1.0000 0.20076  0.30721  0.96269  Biso   1.000  C
  C326     1.0000 0.20072  0.30721  0.96269  Biso   1.000  C
  H328     1.0000 0.15339  0.21132  0.97342  Biso   1.000  H
  C327     1.0000 0.29980  0.31389  0.99402  Biso   1.000  C
  H329     1.0000 0.31206  0.24311  0.96234  Biso   1.000  H
  H330     1.0000 0.31202  0.24311  0.96234  Biso   1.000  H
  H331     1.0000 0.25565  0.21711  0.00204  Biso   1.000  H
  H332     1.0000 0.25561  0.21711  0.00204  Biso   1.000  H
  H333     1.0000 0.16574  0.31252  0.97323  Biso   1.000  H
  H334     1.0000 0.22214  0.33580  0.93372  Biso   1.000  H
  H335     1.0000 0.16578  0.31252  0.97323  Biso   1.000  H
  H336     1.0000 0.22218  0.33580  0.93372  Biso   1.000  H
  C328     1.0000 0.24601  0.32367  0.00853  Biso   1.000  C
  H337     1.0000 0.32505  0.34394  0.96713  Biso   1.000  H
  H338     1.0000 0.32509  0.34394  0.96713  Biso   1.000  H
  H339     1.0000 0.32625  0.32141  0.02465  Biso   1.000  H
  H340     1.0000 0.22385  0.29752  0.03853  Biso   1.000  H
  H341     1.0000 0.26216  0.36722  0.01844  Biso   1.000  H
  H342     1.0000 0.22389  0.29752  0.03853  Biso   1.000  H
  O25      1.0000 0.83572  0.88613  0.56239  Biso   1.000  O
  C329     1.0000 0.83565  0.87329  0.61346  Biso   1.000  C
  C330     1.0000 0.83569  0.87329  0.61346  Biso   1.000  C
  H343     1.0000 0.82841  0.91510  0.55897  Biso   1.000  H
  H344     1.0000 0.82845  0.91510  0.55897  Biso   1.000  H
  C331     1.0000 0.85917  0.83440  0.62958  Biso   1.000  C
  C332     1.0000 0.81354  0.89887  0.65132  Biso   1.000  C
  O26      1.0000 0.83569  0.88608  0.56239  Biso   1.000  O
  C333     1.0000 0.81358  0.89887  0.65132  Biso   1.000  C
  C334     1.0000 0.88701  0.81197  0.59054  Biso   1.000  C
  C335     1.0000 0.88705  0.81197  0.59054  Biso   1.000  C
  C336     1.0000 0.85977  0.82208  0.68262  Biso   1.000  C
  C337     1.0000 0.85979  0.82203  0.68262  Biso   1.000  C
  C338     1.0000 0.85981  0.82208  0.68262  Biso   1.000  C
  C339     1.0000 0.81555  0.88538  0.70416  Biso   1.000  C
  C340     1.0000 0.79140  0.94157  0.63556  Biso   1.000  C
  C341     1.0000 0.79135  0.94157  0.63556  Biso   1.000  C
  C342     1.0000 0.81559  0.88538  0.70416  Biso   1.000  C
  N43      1.0000 0.90679  0.77439  0.59958  Biso   1.000  N
  H345     1.0000 0.89041  0.82659  0.55626  Biso   1.000  H
  H346     1.0000 0.89045  0.82659  0.55626  Biso   1.000  H
  H347     1.0000 0.87501  0.79579  0.69276  Biso   1.000  H
  C343     1.0000 0.83861  0.84696  0.72154  Biso   1.000  C
  H348     1.0000 0.87505  0.79579  0.69276  Biso   1.000  H
  C344     1.0000 0.83865  0.84696  0.72154  Biso   1.000  C
  H349     1.0000 0.80082  0.90268  0.72897  Biso   1.000  H
  N44      1.0000 0.79188  0.95738  0.58751  Biso   1.000  N
  H350     1.0000 0.77642  0.95780  0.66115  Biso   1.000  H
  N45      1.0000 0.79184  0.95738  0.58751  Biso   1.000  N
  H351     1.0000 0.77646  0.95780  0.66115  Biso   1.000  H
  C345     1.0000 0.93597  0.76010  0.55567  Biso   1.000  C
  C346     1.0000 0.93601  0.76010  0.55567  Biso   1.000  C
  C347     1.0000 0.84693  0.83868  0.77846  Biso   1.000  C
  C348     1.0000 0.84695  0.83863  0.77846  Biso   1.000  C
  C349     1.0000 0.84691  0.83863  0.77846  Biso   1.000  C
  C350     1.0000 0.76964  0.00012  0.57226  Biso   1.000  C
  C351     1.0000 0.76960  0.00012  0.57226  Biso   1.000  C
  C352     1.0000 0.89353  0.69280  0.53731  Biso   1.000  C
  C353     1.0000 0.89350  0.69275  0.53731  Biso   1.000  C
  C354     1.0000 0.99980  0.76950  0.57226  Biso   1.000  C
  C355     1.0000 0.99984  0.76950  0.57226  Biso   1.000  C
  H352     1.0000 0.94200  0.78869  0.52658  Biso   1.000  H
  H353     1.0000 0.94204  0.78869  0.52658  Biso   1.000  H
  C356     1.0000 0.82204  0.85984  0.81738  Biso   1.000  C
  C357     1.0000 0.88532  0.81559  0.79584  Biso   1.000  C
  C358     1.0000 0.82200  0.85984  0.81738  Biso   1.000  C
  C359     1.0000 0.88536  0.81559  0.79584  Biso   1.000  C
  C360     1.0000 0.72361  0.97054  0.52630  Biso   1.000  C
  C361     1.0000 0.82405  0.06399  0.55567  Biso   1.000  C
  H354     1.0000 0.74763  0.00586  0.60206  Biso   1.000  H
  C362     1.0000 0.82409  0.06399  0.55567  Biso   1.000  C
  H355     1.0000 0.74758  0.00586  0.60206  Biso   1.000  H
  C363     1.0000 0.92232  0.67634  0.49147  Biso   1.000  C
  C364     1.0000 0.92236  0.67634  0.49147  Biso   1.000  C
  H356     1.0000 0.85324  0.68749  0.52677  Biso   1.000  H
  H357     1.0000 0.85320  0.68749  0.52677  Biso   1.000  H
  H358     1.0000 0.88632  0.66421  0.56628  Biso   1.000  H
  H359     1.0000 0.88633  0.66416  0.56628  Biso   1.000  H
  H360     1.0000 0.88636  0.66421  0.56628  Biso   1.000  H
  H361     1.0000 0.88629  0.66416  0.56628  Biso   1.000  H
  C365     1.0000 0.02950  0.75314  0.52630  Biso   1.000  C
  H362     1.0000 0.99414  0.74180  0.60206  Biso   1.000  H
  H363     1.0000 0.99410  0.74180  0.60206  Biso   1.000  H
  N46      1.0000 0.04267  0.83454  0.58751  Biso   1.000  N
  N47      1.0000 0.04263  0.83454  0.58751  Biso   1.000  N
  C366     1.0000 0.83436  0.85923  0.87042  Biso   1.000  C
  H364     1.0000 0.79574  0.87508  0.80724  Biso   1.000  H
  C367     1.0000 0.83438  0.85918  0.87042  Biso   1.000  C
  H365     1.0000 0.79575  0.87503  0.80724  Biso   1.000  H
  C368     1.0000 0.83440  0.85923  0.87042  Biso   1.000  C
  H366     1.0000 0.79578  0.87508  0.80724  Biso   1.000  H
  C369     1.0000 0.83434  0.85918  0.87042  Biso   1.000  C
  C370     1.0000 0.89883  0.81361  0.84868  Biso   1.000  C
  H367     1.0000 0.90264  0.80087  0.77103  Biso   1.000  H
  C371     1.0000 0.89885  0.81357  0.84868  Biso   1.000  C
  H368     1.0000 0.90268  0.80087  0.77103  Biso   1.000  H
  C372     1.0000 0.89887  0.81361  0.84868  Biso   1.000  C
  H369     1.0000 0.68792  0.93109  0.53766  Biso   1.000  H
  H370     1.0000 0.74431  0.96151  0.49796  Biso   1.000  H
  H371     1.0000 0.74433  0.96147  0.49796  Biso   1.000  H
  H372     1.0000 0.74435  0.96151  0.49796  Biso   1.000  H
  C373     1.0000 0.70018  0.01409  0.50598  Biso   1.000  C
  C374     1.0000 0.70014  0.01409  0.50598  Biso   1.000  C
  N48      1.0000 0.86757  0.09319  0.59958  Biso   1.000  N
  H373     1.0000 0.84662  0.05797  0.52658  Biso   1.000  H
  C375     1.0000 0.79922  0.10645  0.53731  Biso   1.000  C
  H374     1.0000 0.84659  0.05792  0.52658  Biso   1.000  H
  N49      1.0000 0.86753  0.09319  0.59958  Biso   1.000  N
  C376     1.0000 0.79918  0.10645  0.53731  Biso   1.000  C
  C377     1.0000 0.98589  0.68612  0.50598  Biso   1.000  C
  H375     1.0000 0.89492  0.63280  0.48156  Biso   1.000  H
  H376     1.0000 0.92631  0.70249  0.46147  Biso   1.000  H
  C378     1.0000 0.98593  0.68612  0.50598  Biso   1.000  C
  H377     1.0000 0.92635  0.70249  0.46147  Biso   1.000  H
  H378     1.0000 0.89496  0.63280  0.48156  Biso   1.000  H
  H379     1.0000 0.03856  0.78291  0.49796  Biso   1.000  H
  H380     1.0000 0.06897  0.75690  0.53766  Biso   1.000  H
  H381     1.0000 0.06892  0.75690  0.53766  Biso   1.000  H
  H382     1.0000 0.03851  0.78291  0.49796  Biso   1.000  H
  C379     1.0000 0.05848  0.84987  0.63556  Biso   1.000  C
  C380     1.0000 0.81196  0.88707  0.90946  Biso   1.000  C
  C381     1.0000 0.87327  0.83572  0.88654  Biso   1.000  C
  C382     1.0000 0.87324  0.83567  0.88654  Biso   1.000  C
  C383     1.0000 0.94153  0.79142  0.86444  Biso   1.000  C
  H383     1.0000 0.67371  0.99519  0.47535  Biso   1.000  H
  H384     1.0000 0.67375  0.99519  0.47535  Biso   1.000  H
  C384     1.0000 0.75398  0.07762  0.49147  Biso   1.000  C
  H385     1.0000 0.67495  0.01884  0.53287  Biso   1.000  H
  H386     1.0000 0.67491  0.01884  0.53287  Biso   1.000  H
  C385     1.0000 0.75394  0.07762  0.49147  Biso   1.000  C
  C386     1.0000 0.92493  0.11294  0.59054  Biso   1.000  C
  C387     1.0000 0.92489  0.11294  0.59054  Biso   1.000  C
  H387     1.0000 0.83424  0.14675  0.52677  Biso   1.000  H
  H388     1.0000 0.77781  0.11365  0.56628  Biso   1.000  H
  H389     1.0000 0.83420  0.14675  0.52677  Biso   1.000  H
  H390     1.0000 0.98113  0.65607  0.53287  Biso   1.000  H
  H391     1.0000 0.98109  0.65607  0.53287  Biso   1.000  H
  H392     1.0000 0.00485  0.67860  0.47535  Biso   1.000  H
  H393     1.0000 0.00481  0.67860  0.47535  Biso   1.000  H
  C388     1.0000 0.10116  0.91472  0.65132  Biso   1.000  C
  H394     1.0000 0.04224  0.81869  0.66115  Biso   1.000  H
  C389     1.0000 0.10112  0.91472  0.65132  Biso   1.000  C
  H395     1.0000 0.04228  0.81869  0.66115  Biso   1.000  H
  H396     1.0000 0.82656  0.89046  0.94374  Biso   1.000  H
  N50      1.0000 0.77435  0.90682  0.90042  Biso   1.000  N
  N51      1.0000 0.77439  0.90682  0.90042  Biso   1.000  N
  O27      1.0000 0.88606  0.83572  0.93761  Biso   1.000  O
  O28      1.0000 0.88610  0.83572  0.93761  Biso   1.000  O
  N52      1.0000 0.95732  0.79189  0.91249  Biso   1.000  N
  H397     1.0000 0.95775  0.77646  0.83885  Biso   1.000  H
  N53      1.0000 0.95736  0.79189  0.91249  Biso   1.000  N
  H398     1.0000 0.95779  0.77646  0.83885  Biso   1.000  H
  H399     1.0000 0.77615  0.07367  0.46147  Biso   1.000  H
  H400     1.0000 0.73784  0.10504  0.48156  Biso   1.000  H
  H401     1.0000 0.77609  0.07363  0.46147  Biso   1.000  H
  H402     1.0000 0.73780  0.10504  0.48156  Biso   1.000  H
  H403     1.0000 0.77611  0.07367  0.46147  Biso   1.000  H
  C390     1.0000 0.97517  0.14078  0.62958  Biso   1.000  C
  H404     1.0000 0.93614  0.10955  0.55626  Biso   1.000  H
  H405     1.0000 0.93610  0.10955  0.55626  Biso   1.000  H
  C391     1.0000 0.97513  0.14078  0.62958  Biso   1.000  C
  C392     1.0000 0.12674  0.96245  0.61346  Biso   1.000  C
  C393     1.0000 0.11466  0.93024  0.70416  Biso   1.000  C
  C394     1.0000 0.12671  0.96241  0.61346  Biso   1.000  C
  C395     1.0000 0.12676  0.96241  0.61346  Biso   1.000  C
  C396     1.0000 0.76007  0.93603  0.94433  Biso   1.000  C
  C397     1.0000 0.76011  0.93603  0.94433  Biso   1.000  C
  H406     1.0000 0.91506  0.82847  0.94103  Biso   1.000  H
  H407     1.0000 0.91507  0.82843  0.94103  Biso   1.000  H
  H408     1.0000 0.91503  0.82843  0.94103  Biso   1.000  H
  C398     1.0000 0.00018  0.76969  0.92774  Biso   1.000  C
  C399     1.0000 0.00016  0.76964  0.92774  Biso   1.000  C
  C400     1.0000 0.00014  0.76969  0.92774  Biso   1.000  C
  C401     1.0000 0.96216  0.14017  0.68262  Biso   1.000  C
  C402     1.0000 0.96220  0.14017  0.68262  Biso   1.000  C
  C403     1.0000 0.03759  0.16429  0.61346  Biso   1.000  C
  C404     1.0000 0.03755  0.16429  0.61346  Biso   1.000  C
  O29      1.0000 0.11395  0.94966  0.56239  Biso   1.000  O
  O30      1.0000 0.11391  0.94966  0.56239  Biso   1.000  O
  C405     1.0000 0.16561  0.02481  0.62958  Biso   1.000  C
  C406     1.0000 0.16559  0.02476  0.62958  Biso   1.000  C
  C407     1.0000 0.16565  0.02481  0.62958  Biso   1.000  C
  C408     1.0000 0.15305  0.99171  0.72154  Biso   1.000  C
  H409     1.0000 0.09735  0.89822  0.72897  Biso   1.000  H
  H410     1.0000 0.09732  0.89817  0.72897  Biso   1.000  H
  H411     1.0000 0.78866  0.94204  0.97342  Biso   1.000  H
  C409     1.0000 0.76948  0.99989  0.92774  Biso   1.000  C
  H412     1.0000 0.78862  0.94204  0.97342  Biso   1.000  H
  C410     1.0000 0.69274  0.89356  0.96269  Biso   1.000  C
  C411     1.0000 0.76950  0.99984  0.92774  Biso   1.000  C
  C412     1.0000 0.69278  0.89356  0.96269  Biso   1.000  C
  C413     1.0000 0.76946  0.99984  0.92774  Biso   1.000  C
  C414     1.0000 0.06400  0.82410  0.94433  Biso   1.000  C
  C415     1.0000 0.97049  0.72365  0.97370  Biso   1.000  C
  C416     1.0000 0.97053  0.72365  0.97370  Biso   1.000  C
  H413     1.0000 0.00585  0.74763  0.89794  Biso   1.000  H
  H414     1.0000 0.00589  0.74763  0.89794  Biso   1.000  H
  H415     1.0000 0.92070  0.12493  0.69276  Biso   1.000  H
  C417     1.0000 0.00829  0.16133  0.72154  Biso   1.000  C
  C418     1.0000 0.08525  0.18640  0.65132  Biso   1.000  C
  C419     1.0000 0.08529  0.18640  0.65132  Biso   1.000  C
  O31      1.0000 0.05038  0.16429  0.56239  Biso   1.000  O
  O32      1.0000 0.05035  0.16425  0.56239  Biso   1.000  O
  H416     1.0000 0.08495  0.91341  0.55897  Biso   1.000  H
  C420     1.0000 0.17794  0.03774  0.68262  Biso   1.000  C
  C421     1.0000 0.18804  0.07504  0.59054  Biso   1.000  C
  C422     1.0000 0.18800  0.07504  0.59054  Biso   1.000  C
  C423     1.0000 0.16135  0.00831  0.77846  Biso   1.000  C
  H417     1.0000 0.74173  0.99415  0.89794  Biso   1.000  H
  H418     1.0000 0.74177  0.99415  0.89794  Biso   1.000  H
  N54      1.0000 0.83451  0.04264  0.91249  Biso   1.000  N
  C424     1.0000 0.75312  0.02947  0.97370  Biso   1.000  C
  C425     1.0000 0.75308  0.02947  0.97370  Biso   1.000  C
  H419     1.0000 0.68745  0.85326  0.97323  Biso   1.000  H
  H420     1.0000 0.66418  0.88636  0.93372  Biso   1.000  H
  H421     1.0000 0.66414  0.88636  0.93372  Biso   1.000  H
  H422     1.0000 0.68750  0.85326  0.97323  Biso   1.000  H
  C426     1.0000 0.67632  0.92239  0.00853  Biso   1.000  C
  C427     1.0000 0.67634  0.92234  0.00853  Biso   1.000  C
  C428     1.0000 0.67630  0.92234  0.00853  Biso   1.000  C
  N55      1.0000 0.09320  0.86760  0.90042  Biso   1.000  N
  H423     1.0000 0.05798  0.84667  0.97342  Biso   1.000  H
  C429     1.0000 0.10648  0.79927  0.96269  Biso   1.000  C
  H424     1.0000 0.05802  0.84667  0.97342  Biso   1.000  H
  C430     1.0000 0.10652  0.79927  0.96269  Biso   1.000  C
  H425     1.0000 0.93106  0.68796  0.96234  Biso   1.000  H
  H426     1.0000 0.96145  0.74434  0.00204  Biso   1.000  H
  C431     1.0000 0.01410  0.70018  0.99402  Biso   1.000  C
  C432     1.0000 0.01406  0.70018  0.99402  Biso   1.000  C
  C433     1.0000 0.06977  0.18442  0.70416  Biso   1.000  C
  C434     1.0000 0.99169  0.15305  0.77846  Biso   1.000  C
  C435     1.0000 0.99167  0.15301  0.77846  Biso   1.000  C
  C436     1.0000 0.99165  0.15305  0.77846  Biso   1.000  C
  C437     1.0000 0.99163  0.15301  0.77846  Biso   1.000  C
  C438     1.0000 0.15015  0.20859  0.63556  Biso   1.000  C
  C439     1.0000 0.15011  0.20859  0.63556  Biso   1.000  C
  H427     1.0000 0.08662  0.17154  0.55897  Biso   1.000  H
  H428     1.0000 0.20424  0.07927  0.69276  Biso   1.000  H
  H429     1.0000 0.20418  0.07922  0.69276  Biso   1.000  H
  H430     1.0000 0.20422  0.07922  0.69276  Biso   1.000  H
  N56      1.0000 0.22560  0.13241  0.59958  Biso   1.000  N
  H431     1.0000 0.17340  0.06384  0.55626  Biso   1.000  H
  N57      1.0000 0.22564  0.13241  0.59958  Biso   1.000  N
  H432     1.0000 0.17344  0.06384  0.55626  Biso   1.000  H
  C440     1.0000 0.14021  0.96227  0.81738  Biso   1.000  C
  C441     1.0000 0.18443  0.06977  0.79584  Biso   1.000  C
  C442     1.0000 0.18447  0.06977  0.79584  Biso   1.000  C
  C443     1.0000 0.84982  0.05844  0.86444  Biso   1.000  C
  C444     1.0000 0.68606  0.98592  0.99402  Biso   1.000  C
  C445     1.0000 0.68610  0.98592  0.99402  Biso   1.000  C
  H433     1.0000 0.75684  0.06892  0.96234  Biso   1.000  H
  H434     1.0000 0.78284  0.03850  0.00204  Biso   1.000  H
  H435     1.0000 0.70245  0.92634  0.03853  Biso   1.000  H
  H436     1.0000 0.63277  0.89497  0.01844  Biso   1.000  H
  C446     1.0000 0.11301  0.92497  0.90946  Biso   1.000  C
  C447     1.0000 0.11294  0.92493  0.90946  Biso   1.000  C
  C448     1.0000 0.11297  0.92497  0.90946  Biso   1.000  C
  C449     1.0000 0.11298  0.92493  0.90946  Biso   1.000  C
  H437     1.0000 0.14678  0.83426  0.97323  Biso   1.000  H
  H438     1.0000 0.11370  0.77787  0.93372  Biso   1.000  H
  H439     1.0000 0.11364  0.77783  0.93372  Biso   1.000  H
  H440     1.0000 0.14674  0.83426  0.97323  Biso   1.000  H
  H441     1.0000 0.11366  0.77787  0.93372  Biso   1.000  H
  H442     1.0000 0.11368  0.77783  0.93372  Biso   1.000  H
  C450     1.0000 0.07765  0.75398  0.00853  Biso   1.000  C
  H443     1.0000 0.99514  0.67376  0.02465  Biso   1.000  H
  H444     1.0000 0.99518  0.67376  0.02465  Biso   1.000  H
  H445     1.0000 0.01888  0.67498  0.96713  Biso   1.000  H
  H446     1.0000 0.01886  0.67493  0.96713  Biso   1.000  H
  H447     1.0000 0.10181  0.19914  0.72897  Biso   1.000  H
  H448     1.0000 0.10185  0.19914  0.72897  Biso   1.000  H
  C451     1.0000 0.93021  0.11463  0.79584  Biso   1.000  C
  C452     1.0000 0.93017  0.11463  0.79584  Biso   1.000  C
  C453     1.0000 0.03773  0.17793  0.81738  Biso   1.000  C
  C454     1.0000 0.03777  0.17793  0.81738  Biso   1.000  C
  N58      1.0000 0.16547  0.20812  0.58751  Biso   1.000  N
  N59      1.0000 0.16545  0.20808  0.58751  Biso   1.000  N
  H449     1.0000 0.18133  0.22355  0.66115  Biso   1.000  H
  C455     1.0000 0.23990  0.17591  0.55567  Biso   1.000  C
  C456     1.0000 0.23994  0.17591  0.55567  Biso   1.000  C
  C457     1.0000 0.14081  0.97520  0.87042  Biso   1.000  C
  H450     1.0000 0.12498  0.92074  0.80724  Biso   1.000  H
  H451     1.0000 0.12494  0.92074  0.80724  Biso   1.000  H
  C458     1.0000 0.18644  0.08529  0.84868  Biso   1.000  C
  H452     1.0000 0.19913  0.10180  0.77103  Biso   1.000  H
  C459     1.0000 0.18638  0.08524  0.84868  Biso   1.000  C
  H453     1.0000 0.19917  0.10180  0.77103  Biso   1.000  H
  C460     1.0000 0.18642  0.08524  0.84868  Biso   1.000  C
  C461     1.0000 0.91467  0.10114  0.84868  Biso   1.000  C
  H454     1.0000 0.81866  0.04221  0.83885  Biso   1.000  H
  C462     1.0000 0.91471  0.10114  0.84868  Biso   1.000  C
  H455     1.0000 0.81862  0.04221  0.83885  Biso   1.000  H
  H456     1.0000 0.65607  0.98117  0.96713  Biso   1.000  H
  H457     1.0000 0.67857  0.00483  0.02465  Biso   1.000  H
  H458     1.0000 0.67853  0.00483  0.02465  Biso   1.000  H
  H459     1.0000 0.10956  0.93617  0.94374  Biso   1.000  H
  H460     1.0000 0.10960  0.93617  0.94374  Biso   1.000  H
  H461     1.0000 0.07368  0.77618  0.03853  Biso   1.000  H
  H462     1.0000 0.10510  0.73785  0.01844  Biso   1.000  H
  H463     1.0000 0.07365  0.77613  0.03853  Biso   1.000  H
  H464     1.0000 0.10506  0.73785  0.01844  Biso   1.000  H
  H465     1.0000 0.07370  0.77613  0.03853  Biso   1.000  H
  H466     1.0000 0.89818  0.09733  0.77103  Biso   1.000  H
  H467     1.0000 0.89814  0.09733  0.77103  Biso   1.000  H
  C463     1.0000 0.02481  0.16561  0.87042  Biso   1.000  C
  C464     1.0000 0.02477  0.16561  0.87042  Biso   1.000  C
  H468     1.0000 0.07926  0.20422  0.80724  Biso   1.000  H
  C465     1.0000 0.23049  0.23032  0.57226  Biso   1.000  C
  H469     1.0000 0.21130  0.15334  0.52658  Biso   1.000  H
  C466     1.0000 0.30721  0.20074  0.53731  Biso   1.000  C
  H470     1.0000 0.21134  0.15334  0.52658  Biso   1.000  H
  C467     1.0000 0.30725  0.20074  0.53731  Biso   1.000  C
  C468     1.0000 0.16429  0.03756  0.88654  Biso   1.000  C
  C469     1.0000 0.16433  0.03756  0.88654  Biso   1.000  C
  C470     1.0000 0.20860  0.15014  0.86444  Biso   1.000  C
  C471     1.0000 0.20864  0.15014  0.86444  Biso   1.000  C
  C472     1.0000 0.96240  0.12672  0.88654  Biso   1.000  C
  C473     1.0000 0.96236  0.12672  0.88654  Biso   1.000  C
  C474     1.0000 0.07508  0.18804  0.90946  Biso   1.000  C
  H471     1.0000 0.25821  0.25238  0.60206  Biso   1.000  H
  C475     1.0000 0.24687  0.27636  0.52630  Biso   1.000  C
  H472     1.0000 0.25819  0.25233  0.60206  Biso   1.000  H
  H473     1.0000 0.25825  0.25238  0.60206  Biso   1.000  H
  C476     1.0000 0.24691  0.27636  0.52630  Biso   1.000  C
  H474     1.0000 0.25823  0.25233  0.60206  Biso   1.000  H
  H475     1.0000 0.31252  0.16575  0.52677  Biso   1.000  H
  H476     1.0000 0.33582  0.22214  0.56628  Biso   1.000  H
  C477     1.0000 0.32366  0.24603  0.49147  Biso   1.000  C
  H477     1.0000 0.33578  0.22214  0.56628  Biso   1.000  H
  C478     1.0000 0.32364  0.24598  0.49147  Biso   1.000  C
  H478     1.0000 0.31248  0.16575  0.52677  Biso   1.000  H
  C479     1.0000 0.32370  0.24603  0.49147  Biso   1.000  C
  O33      1.0000 0.16429  0.05035  0.93761  Biso   1.000  O
  O34      1.0000 0.16425  0.05035  0.93761  Biso   1.000  O
  N60      1.0000 0.20812  0.16547  0.91249  Biso   1.000  N
  H479     1.0000 0.22354  0.18132  0.83885  Biso   1.000  H
  N61      1.0000 0.20810  0.16542  0.91249  Biso   1.000  N
  H480     1.0000 0.22358  0.18132  0.83885  Biso   1.000  H
  O35      1.0000 0.94963  0.11388  0.93761  Biso   1.000  O
  O36      1.0000 0.94959  0.11388  0.93761  Biso   1.000  O
  N62      1.0000 0.13243  0.22562  0.90042  Biso   1.000  N
  N63      1.0000 0.13239  0.22562  0.90042  Biso   1.000  N
  H481     1.0000 0.06386  0.17342  0.94374  Biso   1.000  H
  C480     1.0000 0.31391  0.29983  0.50598  Biso   1.000  C
  C481     1.0000 0.31388  0.29978  0.50598  Biso   1.000  C
  C482     1.0000 0.31395  0.29983  0.50598  Biso   1.000  C
  H482     1.0000 0.21714  0.25567  0.49796  Biso   1.000  H
  H483     1.0000 0.24313  0.31205  0.53766  Biso   1.000  H
  H484     1.0000 0.21710  0.25567  0.49796  Biso   1.000  H
  H485     1.0000 0.24309  0.31205  0.53766  Biso   1.000  H
  H486     1.0000 0.29749  0.22383  0.46147  Biso   1.000  H
  H487     1.0000 0.36724  0.26216  0.48156  Biso   1.000  H
  H488     1.0000 0.36720  0.26216  0.48156  Biso   1.000  H
  H489     1.0000 0.29753  0.22383  0.46147  Biso   1.000  H
  H490     1.0000 0.17154  0.08661  0.94103  Biso   1.000  H
  C483     1.0000 0.23034  0.23051  0.92774  Biso   1.000  C
  C484     1.0000 0.23038  0.23051  0.92774  Biso   1.000  C
  H491     1.0000 0.91332  0.08491  0.94103  Biso   1.000  H
  H492     1.0000 0.91336  0.08491  0.94103  Biso   1.000  H
  C485     1.0000 0.17591  0.23991  0.94433  Biso   1.000  C
  C486     1.0000 0.17595  0.23991  0.94433  Biso   1.000  C
  H493     1.0000 0.34390  0.32503  0.53287  Biso   1.000  H
  H494     1.0000 0.32142  0.32625  0.47535  Biso   1.000  H
  H495     1.0000 0.34394  0.32503  0.53287  Biso   1.000  H
  H496     1.0000 0.25233  0.25821  0.89794  Biso   1.000  H
  C487     1.0000 0.27635  0.24687  0.97370  Biso   1.000  C
  H497     1.0000 0.25237  0.25821  0.89794  Biso   1.000  H
  C488     1.0000 0.27639  0.24687  0.97370  Biso   1.000  C
  H498     1.0000 0.15335  0.21132  0.97342  Biso   1.000  H
  C489     1.0000 0.20076  0.30721  0.96269  Biso   1.000  C
  C490     1.0000 0.20072  0.30721  0.96269  Biso   1.000  C
  H499     1.0000 0.15339  0.21132  0.97342  Biso   1.000  H
  C491     1.0000 0.29980  0.31389  0.99402  Biso   1.000  C
  H500     1.0000 0.31206  0.24311  0.96234  Biso   1.000  H
  H501     1.0000 0.31202  0.24311  0.96234  Biso   1.000  H
  H502     1.0000 0.25565  0.21711  0.00204  Biso   1.000  H
  H503     1.0000 0.25561  0.21711  0.00204  Biso   1.000  H
  H504     1.0000 0.16574  0.31252  0.97323  Biso   1.000  H
  H505     1.0000 0.22214  0.33580  0.93372  Biso   1.000  H
  H506     1.0000 0.16578  0.31252  0.97323  Biso   1.000  H
  H507     1.0000 0.22218  0.33580  0.93372  Biso   1.000  H
  C492     1.0000 0.24601  0.32367  0.00853  Biso   1.000  C
  H508     1.0000 0.32505  0.34394  0.96713  Biso   1.000  H
  H509     1.0000 0.32509  0.34394  0.96713  Biso   1.000  H
  H510     1.0000 0.32625  0.32141  0.02465  Biso   1.000  H
  H511     1.0000 0.22385  0.29752  0.03853  Biso   1.000  H
  H512     1.0000 0.26216  0.36722  0.01844  Biso   1.000  H
  H513     1.0000 0.22389  0.29752  0.03853  Biso   1.000  H
  O37      1.0000 0.83572  0.88613  0.56239  Biso   1.000  O
  C493     1.0000 0.83565  0.87329  0.61346  Biso   1.000  C
  C494     1.0000 0.83569  0.87329  0.61346  Biso   1.000  C
  H514     1.0000 0.82841  0.91510  0.55897  Biso   1.000  H
  H515     1.0000 0.82845  0.91510  0.55897  Biso   1.000  H
  C495     1.0000 0.81354  0.89887  0.65132  Biso   1.000  C
  C496     1.0000 0.81358  0.89887  0.65132  Biso   1.000  C
  C497     1.0000 0.85917  0.83440  0.62958  Biso   1.000  C
  O38      1.0000 0.83569  0.88608  0.56239  Biso   1.000  O
  C498     1.0000 0.79135  0.94157  0.63556  Biso   1.000  C
  C499     1.0000 0.79140  0.94157  0.63556  Biso   1.000  C
  C500     1.0000 0.81555  0.88538  0.70416  Biso   1.000  C
  C501     1.0000 0.81559  0.88538  0.70416  Biso   1.000  C
  C502     1.0000 0.85977  0.82208  0.68262  Biso   1.000  C
  C503     1.0000 0.88701  0.81197  0.59054  Biso   1.000  C
  C504     1.0000 0.85979  0.82203  0.68262  Biso   1.000  C
  C505     1.0000 0.88705  0.81197  0.59054  Biso   1.000  C
  C506     1.0000 0.85981  0.82208  0.68262  Biso   1.000  C
  N64      1.0000 0.79184  0.95738  0.58751  Biso   1.000  N
  N65      1.0000 0.79188  0.95738  0.58751  Biso   1.000  N
  H516     1.0000 0.77642  0.95780  0.66115  Biso   1.000  H
  H517     1.0000 0.77646  0.95780  0.66115  Biso   1.000  H
  H518     1.0000 0.80082  0.90268  0.72897  Biso   1.000  H
  C507     1.0000 0.83861  0.84696  0.72154  Biso   1.000  C
  C508     1.0000 0.83865  0.84696  0.72154  Biso   1.000  C
  H519     1.0000 0.87501  0.79579  0.69276  Biso   1.000  H
  H520     1.0000 0.87505  0.79579  0.69276  Biso   1.000  H
  N66      1.0000 0.90679  0.77439  0.59958  Biso   1.000  N
  H521     1.0000 0.89041  0.82659  0.55626  Biso   1.000  H
  H522     1.0000 0.89045  0.82659  0.55626  Biso   1.000  H
  C509     1.0000 0.76964  0.00012  0.57226  Biso   1.000  C
  C510     1.0000 0.76960  0.00012  0.57226  Biso   1.000  C
  C511     1.0000 0.84693  0.83868  0.77846  Biso   1.000  C
  C512     1.0000 0.84695  0.83863  0.77846  Biso   1.000  C
  C513     1.0000 0.84691  0.83863  0.77846  Biso   1.000  C
  C514     1.0000 0.93597  0.76010  0.55567  Biso   1.000  C
  C515     1.0000 0.93601  0.76010  0.55567  Biso   1.000  C
  C516     1.0000 0.72361  0.97054  0.52630  Biso   1.000  C
  C517     1.0000 0.82405  0.06399  0.55567  Biso   1.000  C
  H523     1.0000 0.74763  0.00586  0.60206  Biso   1.000  H
  C518     1.0000 0.82409  0.06399  0.55567  Biso   1.000  C
  H524     1.0000 0.74758  0.00586  0.60206  Biso   1.000  H
  C519     1.0000 0.82200  0.85984  0.81738  Biso   1.000  C
  C520     1.0000 0.88532  0.81559  0.79584  Biso   1.000  C
  C521     1.0000 0.82204  0.85984  0.81738  Biso   1.000  C
  C522     1.0000 0.88536  0.81559  0.79584  Biso   1.000  C
  C523     1.0000 0.99980  0.76950  0.57226  Biso   1.000  C
  H525     1.0000 0.94200  0.78869  0.52658  Biso   1.000  H
  C524     1.0000 0.89353  0.69280  0.53731  Biso   1.000  C
  C525     1.0000 0.99984  0.76950  0.57226  Biso   1.000  C
  H526     1.0000 0.94204  0.78869  0.52658  Biso   1.000  H
  C526     1.0000 0.89350  0.69275  0.53731  Biso   1.000  C
  H527     1.0000 0.68792  0.93109  0.53766  Biso   1.000  H
  H528     1.0000 0.74431  0.96151  0.49796  Biso   1.000  H
  H529     1.0000 0.74433  0.96147  0.49796  Biso   1.000  H
  H530     1.0000 0.74435  0.96151  0.49796  Biso   1.000  H
  C527     1.0000 0.70018  0.01409  0.50598  Biso   1.000  C
  C528     1.0000 0.70014  0.01409  0.50598  Biso   1.000  C
  N67      1.0000 0.86757  0.09319  0.59958  Biso   1.000  N
  H531     1.0000 0.84662  0.05797  0.52658  Biso   1.000  H
  C529     1.0000 0.79922  0.10645  0.53731  Biso   1.000  C
  H532     1.0000 0.84659  0.05792  0.52658  Biso   1.000  H
  N68      1.0000 0.86753  0.09319  0.59958  Biso   1.000  N
  C530     1.0000 0.79918  0.10645  0.53731  Biso   1.000  C
  C531     1.0000 0.83436  0.85923  0.87042  Biso   1.000  C
  H533     1.0000 0.79574  0.87508  0.80724  Biso   1.000  H
  C532     1.0000 0.83438  0.85918  0.87042  Biso   1.000  C
  H534     1.0000 0.79575  0.87503  0.80724  Biso   1.000  H
  C533     1.0000 0.83440  0.85923  0.87042  Biso   1.000  C
  H535     1.0000 0.79578  0.87508  0.80724  Biso   1.000  H
  C534     1.0000 0.83434  0.85918  0.87042  Biso   1.000  C
  C535     1.0000 0.89883  0.81361  0.84868  Biso   1.000  C
  H536     1.0000 0.90264  0.80087  0.77103  Biso   1.000  H
  C536     1.0000 0.89885  0.81357  0.84868  Biso   1.000  C
  H537     1.0000 0.90268  0.80087  0.77103  Biso   1.000  H
  C537     1.0000 0.89887  0.81361  0.84868  Biso   1.000  C
  H538     1.0000 0.99410  0.74180  0.60206  Biso   1.000  H
  H539     1.0000 0.99414  0.74180  0.60206  Biso   1.000  H
  N69      1.0000 0.04267  0.83454  0.58751  Biso   1.000  N
  C538     1.0000 0.02950  0.75314  0.52630  Biso   1.000  C
  N70      1.0000 0.04263  0.83454  0.58751  Biso   1.000  N
  H540     1.0000 0.85320  0.68749  0.52677  Biso   1.000  H
  H541     1.0000 0.88632  0.66421  0.56628  Biso   1.000  H
  C539     1.0000 0.92232  0.67634  0.49147  Biso   1.000  C
  H542     1.0000 0.85324  0.68749  0.52677  Biso   1.000  H
  H543     1.0000 0.88633  0.66416  0.56628  Biso   1.000  H
  C540     1.0000 0.92236  0.67634  0.49147  Biso   1.000  C
  H544     1.0000 0.88636  0.66421  0.56628  Biso   1.000  H
  H545     1.0000 0.88629  0.66416  0.56628  Biso   1.000  H
  H546     1.0000 0.67371  0.99519  0.47535  Biso   1.000  H
  H547     1.0000 0.67375  0.99519  0.47535  Biso   1.000  H
  C541     1.0000 0.75398  0.07762  0.49147  Biso   1.000  C
  H548     1.0000 0.67495  0.01884  0.53287  Biso   1.000  H
  H549     1.0000 0.67491  0.01884  0.53287  Biso   1.000  H
  C542     1.0000 0.75394  0.07762  0.49147  Biso   1.000  C
  C543     1.0000 0.92493  0.11294  0.59054  Biso   1.000  C
  C544     1.0000 0.92489  0.11294  0.59054  Biso   1.000  C
  H550     1.0000 0.83424  0.14675  0.52677  Biso   1.000  H
  H551     1.0000 0.77781  0.11365  0.56628  Biso   1.000  H
  H552     1.0000 0.83420  0.14675  0.52677  Biso   1.000  H
  C545     1.0000 0.81196  0.88707  0.90946  Biso   1.000  C
  C546     1.0000 0.87327  0.83572  0.88654  Biso   1.000  C
  C547     1.0000 0.87324  0.83567  0.88654  Biso   1.000  C
  C548     1.0000 0.94153  0.79142  0.86444  Biso   1.000  C
  C549     1.0000 0.05848  0.84987  0.63556  Biso   1.000  C
  C550     1.0000 0.98589  0.68612  0.50598  Biso   1.000  C
  C551     1.0000 0.98593  0.68612  0.50598  Biso   1.000  C
  H553     1.0000 0.03856  0.78291  0.49796  Biso   1.000  H
  H554     1.0000 0.06897  0.75690  0.53766  Biso   1.000  H
  H555     1.0000 0.06892  0.75690  0.53766  Biso   1.000  H
  H556     1.0000 0.03851  0.78291  0.49796  Biso   1.000  H
  H557     1.0000 0.92631  0.70249  0.46147  Biso   1.000  H
  H558     1.0000 0.89492  0.63280  0.48156  Biso   1.000  H
  H559     1.0000 0.92635  0.70249  0.46147  Biso   1.000  H
  H560     1.0000 0.89496  0.63280  0.48156  Biso   1.000  H
  H561     1.0000 0.77615  0.07367  0.46147  Biso   1.000  H
  H562     1.0000 0.73784  0.10504  0.48156  Biso   1.000  H
  H563     1.0000 0.77609  0.07363  0.46147  Biso   1.000  H
  H564     1.0000 0.73780  0.10504  0.48156  Biso   1.000  H
  H565     1.0000 0.77611  0.07367  0.46147  Biso   1.000  H
  C552     1.0000 0.97517  0.14078  0.62958  Biso   1.000  C
  H566     1.0000 0.93614  0.10955  0.55626  Biso   1.000  H
  H567     1.0000 0.93610  0.10955  0.55626  Biso   1.000  H
  C553     1.0000 0.97513  0.14078  0.62958  Biso   1.000  C
  H568     1.0000 0.82656  0.89046  0.94374  Biso   1.000  H
  N71      1.0000 0.77435  0.90682  0.90042  Biso   1.000  N
  N72      1.0000 0.77439  0.90682  0.90042  Biso   1.000  N
  O39      1.0000 0.88606  0.83572  0.93761  Biso   1.000  O
  O40      1.0000 0.88610  0.83572  0.93761  Biso   1.000  O
  N73      1.0000 0.95732  0.79189  0.91249  Biso   1.000  N
  H569     1.0000 0.95775  0.77646  0.83885  Biso   1.000  H
  N74      1.0000 0.95736  0.79189  0.91249  Biso   1.000  N
  H570     1.0000 0.95779  0.77646  0.83885  Biso   1.000  H
  C554     1.0000 0.10116  0.91472  0.65132  Biso   1.000  C
  H571     1.0000 0.04224  0.81869  0.66115  Biso   1.000  H
  C555     1.0000 0.10112  0.91472  0.65132  Biso   1.000  C
  H572     1.0000 0.04228  0.81869  0.66115  Biso   1.000  H
  H573     1.0000 0.98109  0.65607  0.53287  Biso   1.000  H
  H574     1.0000 0.98113  0.65607  0.53287  Biso   1.000  H
  H575     1.0000 0.00485  0.67860  0.47535  Biso   1.000  H
  H576     1.0000 0.00481  0.67860  0.47535  Biso   1.000  H
  C556     1.0000 0.96216  0.14017  0.68262  Biso   1.000  C
  C557     1.0000 0.96220  0.14017  0.68262  Biso   1.000  C
  C558     1.0000 0.03759  0.16429  0.61346  Biso   1.000  C
  C559     1.0000 0.03755  0.16429  0.61346  Biso   1.000  C
  C560     1.0000 0.76007  0.93603  0.94433  Biso   1.000  C
  C561     1.0000 0.76011  0.93603  0.94433  Biso   1.000  C
  H577     1.0000 0.91506  0.82847  0.94103  Biso   1.000  H
  H578     1.0000 0.91507  0.82843  0.94103  Biso   1.000  H
  H579     1.0000 0.91503  0.82843  0.94103  Biso   1.000  H
  C562     1.0000 0.00018  0.76969  0.92774  Biso   1.000  C
  C563     1.0000 0.00016  0.76964  0.92774  Biso   1.000  C
  C564     1.0000 0.00014  0.76969  0.92774  Biso   1.000  C
  C565     1.0000 0.12674  0.96245  0.61346  Biso   1.000  C
  C566     1.0000 0.11466  0.93024  0.70416  Biso   1.000  C
  C567     1.0000 0.12671  0.96241  0.61346  Biso   1.000  C
  C568     1.0000 0.12676  0.96241  0.61346  Biso   1.000  C
  H580     1.0000 0.92070  0.12493  0.69276  Biso   1.000  H
  C569     1.0000 0.00829  0.16133  0.72154  Biso   1.000  C
  O41      1.0000 0.05038  0.16429  0.56239  Biso   1.000  O
  C570     1.0000 0.08525  0.18640  0.65132  Biso   1.000  C
  O42      1.0000 0.05035  0.16425  0.56239  Biso   1.000  O
  C571     1.0000 0.08529  0.18640  0.65132  Biso   1.000  C
  C572     1.0000 0.76948  0.99989  0.92774  Biso   1.000  C
  H581     1.0000 0.78862  0.94204  0.97342  Biso   1.000  H
  C573     1.0000 0.69274  0.89356  0.96269  Biso   1.000  C
  C574     1.0000 0.76950  0.99984  0.92774  Biso   1.000  C
  H582     1.0000 0.78866  0.94204  0.97342  Biso   1.000  H
  C575     1.0000 0.69278  0.89356  0.96269  Biso   1.000  C
  C576     1.0000 0.76946  0.99984  0.92774  Biso   1.000  C
  C577     1.0000 0.97049  0.72365  0.97370  Biso   1.000  C
  C578     1.0000 0.97053  0.72365  0.97370  Biso   1.000  C
  C579     1.0000 0.06400  0.82410  0.94433  Biso   1.000  C
  H583     1.0000 0.00585  0.74763  0.89794  Biso   1.000  H
  H584     1.0000 0.00589  0.74763  0.89794  Biso   1.000  H
  C580     1.0000 0.16561  0.02481  0.62958  Biso   1.000  C
  C581     1.0000 0.16559  0.02476  0.62958  Biso   1.000  C
  C582     1.0000 0.16565  0.02481  0.62958  Biso   1.000  C
  O43      1.0000 0.11395  0.94966  0.56239  Biso   1.000  O
  O44      1.0000 0.11391  0.94966  0.56239  Biso   1.000  O
  C583     1.0000 0.15305  0.99171  0.72154  Biso   1.000  C
  H585     1.0000 0.09735  0.89822  0.72897  Biso   1.000  H
  H586     1.0000 0.09732  0.89817  0.72897  Biso   1.000  H
  C584     1.0000 0.99169  0.15305  0.77846  Biso   1.000  C
  C585     1.0000 0.99167  0.15301  0.77846  Biso   1.000  C
  C586     1.0000 0.99165  0.15305  0.77846  Biso   1.000  C
  C587     1.0000 0.99163  0.15301  0.77846  Biso   1.000  C
  C588     1.0000 0.06977  0.18442  0.70416  Biso   1.000  C
  H587     1.0000 0.08662  0.17154  0.55897  Biso   1.000  H
  C589     1.0000 0.15015  0.20859  0.63556  Biso   1.000  C
  C590     1.0000 0.15011  0.20859  0.63556  Biso   1.000  C
  N75      1.0000 0.83451  0.04264  0.91249  Biso   1.000  N
  H588     1.0000 0.74173  0.99415  0.89794  Biso   1.000  H
  H589     1.0000 0.74177  0.99415  0.89794  Biso   1.000  H
  C591     1.0000 0.75312  0.02947  0.97370  Biso   1.000  C
  C592     1.0000 0.75308  0.02947  0.97370  Biso   1.000  C
  H590     1.0000 0.68745  0.85326  0.97323  Biso   1.000  H
  H591     1.0000 0.66414  0.88636  0.93372  Biso   1.000  H
  H592     1.0000 0.68750  0.85326  0.97323  Biso   1.000  H
  H593     1.0000 0.66418  0.88636  0.93372  Biso   1.000  H
  C593     1.0000 0.67632  0.92239  0.00853  Biso   1.000  C
  C594     1.0000 0.67634  0.92234  0.00853  Biso   1.000  C
  C595     1.0000 0.67630  0.92234  0.00853  Biso   1.000  C
  H594     1.0000 0.93106  0.68796  0.96234  Biso   1.000  H
  H595     1.0000 0.96145  0.74434  0.00204  Biso   1.000  H
  C596     1.0000 0.01410  0.70018  0.99402  Biso   1.000  C
  C597     1.0000 0.01406  0.70018  0.99402  Biso   1.000  C
  N76      1.0000 0.09320  0.86760  0.90042  Biso   1.000  N
  H596     1.0000 0.05798  0.84667  0.97342  Biso   1.000  H
  C598     1.0000 0.10648  0.79927  0.96269  Biso   1.000  C
  H597     1.0000 0.05802  0.84667  0.97342  Biso   1.000  H
  C599     1.0000 0.10652  0.79927  0.96269  Biso   1.000  C
  C600     1.0000 0.18804  0.07504  0.59054  Biso   1.000  C
  C601     1.0000 0.18800  0.07504  0.59054  Biso   1.000  C
  C602     1.0000 0.17794  0.03774  0.68262  Biso   1.000  C
  H598     1.0000 0.08495  0.91341  0.55897  Biso   1.000  H
  C603     1.0000 0.16135  0.00831  0.77846  Biso   1.000  C
  C604     1.0000 0.93021  0.11463  0.79584  Biso   1.000  C
  C605     1.0000 0.93017  0.11463  0.79584  Biso   1.000  C
  C606     1.0000 0.03773  0.17793  0.81738  Biso   1.000  C
  C607     1.0000 0.03777  0.17793  0.81738  Biso   1.000  C
  H599     1.0000 0.10181  0.19914  0.72897  Biso   1.000  H
  H600     1.0000 0.10185  0.19914  0.72897  Biso   1.000  H
  N77      1.0000 0.16547  0.20812  0.58751  Biso   1.000  N
  H601     1.0000 0.18133  0.22355  0.66115  Biso   1.000  H
  N78      1.0000 0.16545  0.20808  0.58751  Biso   1.000  N
  C608     1.0000 0.84982  0.05844  0.86444  Biso   1.000  C
  C609     1.0000 0.68606  0.98592  0.99402  Biso   1.000  C
  C610     1.0000 0.68610  0.98592  0.99402  Biso   1.000  C
  H602     1.0000 0.75684  0.06892  0.96234  Biso   1.000  H
  H603     1.0000 0.78284  0.03850  0.00204  Biso   1.000  H
  H604     1.0000 0.70245  0.92634  0.03853  Biso   1.000  H
  H605     1.0000 0.63277  0.89497  0.01844  Biso   1.000  H
  H606     1.0000 0.99514  0.67376  0.02465  Biso   1.000  H
  H607     1.0000 0.99518  0.67376  0.02465  Biso   1.000  H
  H608     1.0000 0.01888  0.67498  0.96713  Biso   1.000  H
  H609     1.0000 0.01886  0.67493  0.96713  Biso   1.000  H
  C611     1.0000 0.07765  0.75398  0.00853  Biso   1.000  C
  C612     1.0000 0.11301  0.92497  0.90946  Biso   1.000  C
  C613     1.0000 0.11294  0.92493  0.90946  Biso   1.000  C
  C614     1.0000 0.11297  0.92497  0.90946  Biso   1.000  C
  C615     1.0000 0.11298  0.92493  0.90946  Biso   1.000  C
  H610     1.0000 0.14678  0.83426  0.97323  Biso   1.000  H
  H611     1.0000 0.11370  0.77787  0.93372  Biso   1.000  H
  H612     1.0000 0.11364  0.77783  0.93372  Biso   1.000  H
  H613     1.0000 0.14674  0.83426  0.97323  Biso   1.000  H
  H614     1.0000 0.11366  0.77787  0.93372  Biso   1.000  H
  H615     1.0000 0.11368  0.77783  0.93372  Biso   1.000  H
  N79      1.0000 0.22560  0.13241  0.59958  Biso   1.000  N
  N80      1.0000 0.22564  0.13241  0.59958  Biso   1.000  N
  H616     1.0000 0.17340  0.06384  0.55626  Biso   1.000  H
  H617     1.0000 0.17344  0.06384  0.55626  Biso   1.000  H
  H618     1.0000 0.20424  0.07927  0.69276  Biso   1.000  H
  H619     1.0000 0.20418  0.07922  0.69276  Biso   1.000  H
  H620     1.0000 0.20422  0.07922  0.69276  Biso   1.000  H
  C616     1.0000 0.14021  0.96227  0.81738  Biso   1.000  C
  C617     1.0000 0.18443  0.06977  0.79584  Biso   1.000  C
  C618     1.0000 0.18447  0.06977  0.79584  Biso   1.000  C
  C619     1.0000 0.91467  0.10114  0.84868  Biso   1.000  C
  H621     1.0000 0.89818  0.09733  0.77103  Biso   1.000  H
  C620     1.0000 0.91471  0.10114  0.84868  Biso   1.000  C
  H622     1.0000 0.89814  0.09733  0.77103  Biso   1.000  H
  C621     1.0000 0.02481  0.16561  0.87042  Biso   1.000  C
  H623     1.0000 0.07926  0.20422  0.80724  Biso   1.000  H
  C622     1.0000 0.02477  0.16561  0.87042  Biso   1.000  C
  C623     1.0000 0.23049  0.23032  0.57226  Biso   1.000  C
  H624     1.0000 0.81866  0.04221  0.83885  Biso   1.000  H
  H625     1.0000 0.81862  0.04221  0.83885  Biso   1.000  H
  H626     1.0000 0.65607  0.98117  0.96713  Biso   1.000  H
  H627     1.0000 0.67857  0.00483  0.02465  Biso   1.000  H
  H628     1.0000 0.67853  0.00483  0.02465  Biso   1.000  H
  H629     1.0000 0.07368  0.77618  0.03853  Biso   1.000  H
  H630     1.0000 0.10510  0.73785  0.01844  Biso   1.000  H
  H631     1.0000 0.07365  0.77613  0.03853  Biso   1.000  H
  H632     1.0000 0.10506  0.73785  0.01844  Biso   1.000  H
  H633     1.0000 0.07370  0.77613  0.03853  Biso   1.000  H
  C624     1.0000 0.14081  0.97520  0.87042  Biso   1.000  C
  H634     1.0000 0.10956  0.93617  0.94374  Biso   1.000  H
  H635     1.0000 0.10960  0.93617  0.94374  Biso   1.000  H
  C625     1.0000 0.23990  0.17591  0.55567  Biso   1.000  C
  C626     1.0000 0.23994  0.17591  0.55567  Biso   1.000  C
  H636     1.0000 0.12498  0.92074  0.80724  Biso   1.000  H
  H637     1.0000 0.12494  0.92074  0.80724  Biso   1.000  H
  C627     1.0000 0.18644  0.08529  0.84868  Biso   1.000  C
  C628     1.0000 0.18638  0.08524  0.84868  Biso   1.000  C
  C629     1.0000 0.18642  0.08524  0.84868  Biso   1.000  C
  H638     1.0000 0.19913  0.10180  0.77103  Biso   1.000  H
  H639     1.0000 0.19917  0.10180  0.77103  Biso   1.000  H
  C630     1.0000 0.96240  0.12672  0.88654  Biso   1.000  C
  C631     1.0000 0.96236  0.12672  0.88654  Biso   1.000  C
  C632     1.0000 0.07508  0.18804  0.90946  Biso   1.000  C
  H640     1.0000 0.25821  0.25238  0.60206  Biso   1.000  H
  C633     1.0000 0.24687  0.27636  0.52630  Biso   1.000  C
  H641     1.0000 0.25819  0.25233  0.60206  Biso   1.000  H
  H642     1.0000 0.25825  0.25238  0.60206  Biso   1.000  H
  C634     1.0000 0.24691  0.27636  0.52630  Biso   1.000  C
  H643     1.0000 0.25823  0.25233  0.60206  Biso   1.000  H
  C635     1.0000 0.16429  0.03756  0.88654  Biso   1.000  C
  C636     1.0000 0.16433  0.03756  0.88654  Biso   1.000  C
  H644     1.0000 0.21130  0.15334  0.52658  Biso   1.000  H
  C637     1.0000 0.30721  0.20074  0.53731  Biso   1.000  C
  H645     1.0000 0.21134  0.15334  0.52658  Biso   1.000  H
  C638     1.0000 0.30725  0.20074  0.53731  Biso   1.000  C
  C639     1.0000 0.20860  0.15014  0.86444  Biso   1.000  C
  C640     1.0000 0.20864  0.15014  0.86444  Biso   1.000  C
  O45      1.0000 0.94963  0.11388  0.93761  Biso   1.000  O
  O46      1.0000 0.94959  0.11388  0.93761  Biso   1.000  O
  N81      1.0000 0.13243  0.22562  0.90042  Biso   1.000  N
  H646     1.0000 0.06386  0.17342  0.94374  Biso   1.000  H
  N82      1.0000 0.13239  0.22562  0.90042  Biso   1.000  N
  C641     1.0000 0.31391  0.29983  0.50598  Biso   1.000  C
  H647     1.0000 0.21714  0.25567  0.49796  Biso   1.000  H
  H648     1.0000 0.24313  0.31205  0.53766  Biso   1.000  H
  C642     1.0000 0.31388  0.29978  0.50598  Biso   1.000  C
  H649     1.0000 0.21710  0.25567  0.49796  Biso   1.000  H
  H650     1.0000 0.24309  0.31205  0.53766  Biso   1.000  H
  C643     1.0000 0.31395  0.29983  0.50598  Biso   1.000  C
  O47      1.0000 0.16429  0.05035  0.93761  Biso   1.000  O
  O48      1.0000 0.16425  0.05035  0.93761  Biso   1.000  O
  H651     1.0000 0.31252  0.16575  0.52677  Biso   1.000  H
  H652     1.0000 0.33582  0.22214  0.56628  Biso   1.000  H
  C644     1.0000 0.32366  0.24603  0.49147  Biso   1.000  C
  H653     1.0000 0.33578  0.22214  0.56628  Biso   1.000  H
  C645     1.0000 0.32364  0.24598  0.49147  Biso   1.000  C
  H654     1.0000 0.31248  0.16575  0.52677  Biso   1.000  H
  C646     1.0000 0.32370  0.24603  0.49147  Biso   1.000  C
  N83      1.0000 0.20812  0.16547  0.91249  Biso   1.000  N
  N84      1.0000 0.20810  0.16542  0.91249  Biso   1.000  N
  H655     1.0000 0.22354  0.18132  0.83885  Biso   1.000  H
  H656     1.0000 0.22358  0.18132  0.83885  Biso   1.000  H
  H657     1.0000 0.91332  0.08491  0.94103  Biso   1.000  H
  H658     1.0000 0.91336  0.08491  0.94103  Biso   1.000  H
  C647     1.0000 0.17591  0.23991  0.94433  Biso   1.000  C
  C648     1.0000 0.17595  0.23991  0.94433  Biso   1.000  C
  H659     1.0000 0.34390  0.32503  0.53287  Biso   1.000  H
  H660     1.0000 0.32142  0.32625  0.47535  Biso   1.000  H
  H661     1.0000 0.34394  0.32503  0.53287  Biso   1.000  H
  H662     1.0000 0.17154  0.08661  0.94103  Biso   1.000  H
  H663     1.0000 0.29749  0.22383  0.46147  Biso   1.000  H
  H664     1.0000 0.36724  0.26216  0.48156  Biso   1.000  H
  H665     1.0000 0.36720  0.26216  0.48156  Biso   1.000  H
  H666     1.0000 0.29753  0.22383  0.46147  Biso   1.000  H
  C649     1.0000 0.23034  0.23051  0.92774  Biso   1.000  C
  C650     1.0000 0.23038  0.23051  0.92774  Biso   1.000  C
  H667     1.0000 0.15335  0.21132  0.97342  Biso   1.000  H
  C651     1.0000 0.20076  0.30721  0.96269  Biso   1.000  C
  C652     1.0000 0.20072  0.30721  0.96269  Biso   1.000  C
  H668     1.0000 0.15339  0.21132  0.97342  Biso   1.000  H
  H669     1.0000 0.25233  0.25821  0.89794  Biso   1.000  H
  C653     1.0000 0.27635  0.24687  0.97370  Biso   1.000  C
  H670     1.0000 0.25237  0.25821  0.89794  Biso   1.000  H
  C654     1.0000 0.27639  0.24687  0.97370  Biso   1.000  C
  H671     1.0000 0.16574  0.31252  0.97323  Biso   1.000  H
  H672     1.0000 0.22214  0.33580  0.93372  Biso   1.000  H
  H673     1.0000 0.16578  0.31252  0.97323  Biso   1.000  H
  H674     1.0000 0.22218  0.33580  0.93372  Biso   1.000  H
  C655     1.0000 0.24601  0.32367  0.00853  Biso   1.000  C
  C656     1.0000 0.29980  0.31389  0.99402  Biso   1.000  C
  H675     1.0000 0.31206  0.24311  0.96234  Biso   1.000  H
  H676     1.0000 0.31202  0.24311  0.96234  Biso   1.000  H
  H677     1.0000 0.25565  0.21711  0.00204  Biso   1.000  H
  H678     1.0000 0.25561  0.21711  0.00204  Biso   1.000  H
  H679     1.0000 0.22385  0.29752  0.03853  Biso   1.000  H
  H680     1.0000 0.26216  0.36722  0.01844  Biso   1.000  H
  H681     1.0000 0.22389  0.29752  0.03853  Biso   1.000  H
  H682     1.0000 0.32505  0.34394  0.96713  Biso   1.000  H
  H683     1.0000 0.32509  0.34394  0.96713  Biso   1.000  H
  H684     1.0000 0.32625  0.32141  0.02465  Biso   1.000  H
  O49      1.0000 0.94959  0.83572  0.43761  Biso   1.000  O
  C657     1.0000 0.96237  0.83572  0.38654  Biso   1.000  C
  C658     1.0000 0.96239  0.83567  0.38654  Biso   1.000  C
  C659     1.0000 0.96241  0.83572  0.38654  Biso   1.000  C
  H685     1.0000 0.91334  0.82847  0.44103  Biso   1.000  H
  H686     1.0000 0.91336  0.82843  0.44103  Biso   1.000  H
  H687     1.0000 0.91339  0.82847  0.44103  Biso   1.000  H
  H688     1.0000 0.91332  0.82843  0.44103  Biso   1.000  H
  C660     1.0000 0.91471  0.81361  0.34868  Biso   1.000  C
  C661     1.0000 0.91469  0.81357  0.34868  Biso   1.000  C
  C662     1.0000 0.02483  0.85923  0.37042  Biso   1.000  C
  C663     1.0000 0.02481  0.85918  0.37042  Biso   1.000  C
  C664     1.0000 0.02479  0.85923  0.37042  Biso   1.000  C
  O50      1.0000 0.94963  0.83572  0.43761  Biso   1.000  O
  C665     1.0000 0.93020  0.81559  0.29584  Biso   1.000  C
  C666     1.0000 0.93024  0.81559  0.29584  Biso   1.000  C
  C667     1.0000 0.84982  0.79142  0.36444  Biso   1.000  C
  C668     1.0000 0.84986  0.79142  0.36444  Biso   1.000  C
  C669     1.0000 0.03780  0.85984  0.31738  Biso   1.000  C
  C670     1.0000 0.03776  0.85984  0.31738  Biso   1.000  C
  C671     1.0000 0.07508  0.88707  0.40946  Biso   1.000  C
  C672     1.0000 0.07512  0.88707  0.40946  Biso   1.000  C
  C673     1.0000 0.99167  0.83868  0.27846  Biso   1.000  C
  C674     1.0000 0.99169  0.83863  0.27846  Biso   1.000  C
  C675     1.0000 0.99171  0.83868  0.27846  Biso   1.000  C
  C676     1.0000 0.99165  0.83863  0.27846  Biso   1.000  C
  H689     1.0000 0.89816  0.80087  0.27103  Biso   1.000  H
  H690     1.0000 0.89820  0.80087  0.27103  Biso   1.000  H
  N85      1.0000 0.83449  0.79189  0.41249  Biso   1.000  N
  H691     1.0000 0.81864  0.77646  0.33885  Biso   1.000  H
  N86      1.0000 0.83453  0.79189  0.41249  Biso   1.000  N
  H692     1.0000 0.81868  0.77646  0.33885  Biso   1.000  H
  H693     1.0000 0.07930  0.87508  0.30724  Biso   1.000  H
  H694     1.0000 0.07924  0.87503  0.30724  Biso   1.000  H
  H695     1.0000 0.07926  0.87508  0.30724  Biso   1.000  H
  H696     1.0000 0.07928  0.87503  0.30724  Biso   1.000  H
  N87      1.0000 0.13244  0.90682  0.40042  Biso   1.000  N
  H697     1.0000 0.06386  0.89046  0.44374  Biso   1.000  H
  N88      1.0000 0.13240  0.90682  0.40042  Biso   1.000  N
  H698     1.0000 0.06390  0.89046  0.44374  Biso   1.000  H
  C677     1.0000 0.00831  0.84696  0.22154  Biso   1.000  C
  C678     1.0000 0.76948  0.76969  0.42774  Biso   1.000  C
  C679     1.0000 0.76949  0.76964  0.42774  Biso   1.000  C
  C680     1.0000 0.76952  0.76969  0.42774  Biso   1.000  C
  C681     1.0000 0.76945  0.76964  0.42774  Biso   1.000  C
  C682     1.0000 0.17591  0.93603  0.44433  Biso   1.000  C
  C683     1.0000 0.96223  0.82208  0.18262  Biso   1.000  C
  C684     1.0000 0.96221  0.82203  0.18262  Biso   1.000  C
  C685     1.0000 0.06979  0.88538  0.20416  Biso   1.000  C
  C686     1.0000 0.76007  0.82410  0.44433  Biso   1.000  C
  C687     1.0000 0.76011  0.82410  0.44433  Biso   1.000  C
  H699     1.0000 0.74175  0.74763  0.39794  Biso   1.000  H
  C688     1.0000 0.75310  0.72365  0.47370  Biso   1.000  C
  C689     1.0000 0.75314  0.72365  0.47370  Biso   1.000  C
  H700     1.0000 0.15339  0.94204  0.47342  Biso   1.000  H
  C690     1.0000 0.20078  0.89356  0.46269  Biso   1.000  C
  C691     1.0000 0.23037  0.99989  0.42774  Biso   1.000  C
  H701     1.0000 0.15335  0.94204  0.47342  Biso   1.000  H
  C692     1.0000 0.23034  0.99984  0.42774  Biso   1.000  C
  C693     1.0000 0.20074  0.89356  0.46269  Biso   1.000  C
  C694     1.0000 0.97515  0.83440  0.12958  Biso   1.000  C
  C695     1.0000 0.97520  0.83440  0.12958  Biso   1.000  C
  H702     1.0000 0.92071  0.79579  0.19276  Biso   1.000  H
  H703     1.0000 0.92075  0.79579  0.19276  Biso   1.000  H
  C696     1.0000 0.08530  0.89887  0.15132  Biso   1.000  C
  C697     1.0000 0.08526  0.89887  0.15132  Biso   1.000  C
  H704     1.0000 0.10182  0.90268  0.22897  Biso   1.000  H
  H705     1.0000 0.10186  0.90268  0.22897  Biso   1.000  H
  N89      1.0000 0.77437  0.86760  0.40042  Biso   1.000  N
  N90      1.0000 0.77441  0.86760  0.40042  Biso   1.000  N
  H706     1.0000 0.78866  0.84667  0.47342  Biso   1.000  H
  C698     1.0000 0.69276  0.79927  0.46269  Biso   1.000  C
  C699     1.0000 0.68606  0.70018  0.49402  Biso   1.000  C
  H707     1.0000 0.78283  0.74434  0.50204  Biso   1.000  H
  H708     1.0000 0.75683  0.68796  0.46234  Biso   1.000  H
  C700     1.0000 0.68610  0.70018  0.49402  Biso   1.000  C
  H709     1.0000 0.78287  0.74434  0.50204  Biso   1.000  H
  H710     1.0000 0.75687  0.68796  0.46234  Biso   1.000  H
  H711     1.0000 0.16577  0.85326  0.47323  Biso   1.000  H
  H712     1.0000 0.22219  0.88636  0.43372  Biso   1.000  H
  C701     1.0000 0.24603  0.92239  0.50853  Biso   1.000  C
  H713     1.0000 0.22215  0.88636  0.43372  Biso   1.000  H
  C702     1.0000 0.24600  0.92234  0.50853  Biso   1.000  C
  H714     1.0000 0.25238  0.99415  0.39794  Biso   1.000  H
  H715     1.0000 0.25234  0.99415  0.39794  Biso   1.000  H
  N91      1.0000 0.20812  0.04264  0.41249  Biso   1.000  N
  C703     1.0000 0.27635  0.02947  0.47370  Biso   1.000  C
  N92      1.0000 0.20808  0.04264  0.41249  Biso   1.000  N
  C704     1.0000 0.27639  0.02947  0.47370  Biso   1.000  C
  C705     1.0000 0.92488  0.81197  0.09054  Biso   1.000  C
  C706     1.0000 0.92492  0.81197  0.09054  Biso   1.000  C
  C707     1.0000 0.03761  0.87329  0.11346  Biso   1.000  C
  C708     1.0000 0.15018  0.94157  0.13556  Biso   1.000  C
  C709     1.0000 0.15014  0.94157  0.13556  Biso   1.000  C
  C710     1.0000 0.81193  0.92497  0.40946  Biso   1.000  C
  C711     1.0000 0.81195  0.92493  0.40946  Biso   1.000  C
  C712     1.0000 0.81197  0.92497  0.40946  Biso   1.000  C
  H716     1.0000 0.68744  0.83426  0.47323  Biso   1.000  H
  H717     1.0000 0.66414  0.77787  0.43372  Biso   1.000  H
  C713     1.0000 0.67630  0.75398  0.50853  Biso   1.000  C
  H718     1.0000 0.68748  0.83426  0.47323  Biso   1.000  H
  H719     1.0000 0.66416  0.77783  0.43372  Biso   1.000  H
  C714     1.0000 0.67635  0.75398  0.50853  Biso   1.000  C
  H720     1.0000 0.66418  0.77787  0.43372  Biso   1.000  H
  H721     1.0000 0.65607  0.67498  0.46713  Biso   1.000  H
  H722     1.0000 0.67855  0.67376  0.52465  Biso   1.000  H
  H723     1.0000 0.65608  0.67493  0.46713  Biso   1.000  H
  H724     1.0000 0.67859  0.67376  0.52465  Biso   1.000  H
  H725     1.0000 0.65604  0.67493  0.46713  Biso   1.000  H
  H726     1.0000 0.22385  0.92634  0.53853  Biso   1.000  H
  H727     1.0000 0.26217  0.89497  0.51844  Biso   1.000  H
  C715     1.0000 0.29982  0.98592  0.49402  Biso   1.000  C
  C716     1.0000 0.29978  0.98592  0.49402  Biso   1.000  C
  H728     1.0000 0.22389  0.92634  0.53853  Biso   1.000  H
  H729     1.0000 0.26221  0.89497  0.51844  Biso   1.000  H
  C717     1.0000 0.20861  0.05844  0.36444  Biso   1.000  C
  C718     1.0000 0.20857  0.05844  0.36444  Biso   1.000  C
  H730     1.0000 0.25566  0.03850  0.50204  Biso   1.000  H
  H731     1.0000 0.31204  0.06892  0.46234  Biso   1.000  H
  H732     1.0000 0.25561  0.03850  0.50204  Biso   1.000  H
  H733     1.0000 0.31208  0.06892  0.46234  Biso   1.000  H
  N93      1.0000 0.86753  0.77439  0.09958  Biso   1.000  N
  N94      1.0000 0.86757  0.77439  0.09958  Biso   1.000  N
  H734     1.0000 0.93611  0.82659  0.05626  Biso   1.000  H
  H735     1.0000 0.93615  0.82659  0.05626  Biso   1.000  H
  O51      1.0000 0.05038  0.88613  0.06239  Biso   1.000  O
  O52      1.0000 0.05035  0.88608  0.06239  Biso   1.000  O
  O53      1.0000 0.05039  0.88608  0.06239  Biso   1.000  O
  N95      1.0000 0.16549  0.95738  0.08751  Biso   1.000  N
  H736     1.0000 0.18134  0.95780  0.16115  Biso   1.000  H
  N96      1.0000 0.16545  0.95738  0.08751  Biso   1.000  N
  C719     1.0000 0.83435  0.97520  0.37042  Biso   1.000  C
  C720     1.0000 0.83439  0.97520  0.37042  Biso   1.000  C
  H737     1.0000 0.82657  0.93617  0.44374  Biso   1.000  H
  H738     1.0000 0.70247  0.77618  0.53853  Biso   1.000  H
  H739     1.0000 0.63273  0.73785  0.51844  Biso   1.000  H
  H740     1.0000 0.70245  0.77613  0.53853  Biso   1.000  H
  H741     1.0000 0.63277  0.73785  0.51844  Biso   1.000  H
  H742     1.0000 0.32506  0.98117  0.46713  Biso   1.000  H
  H743     1.0000 0.32510  0.98117  0.46713  Biso   1.000  H
  H744     1.0000 0.32626  0.00483  0.52465  Biso   1.000  H
  H745     1.0000 0.32622  0.00483  0.52465  Biso   1.000  H
  C721     1.0000 0.18642  0.10114  0.34868  Biso   1.000  C
  H746     1.0000 0.22355  0.04221  0.33885  Biso   1.000  H
  H747     1.0000 0.22359  0.04221  0.33885  Biso   1.000  H
  C722     1.0000 0.82406  0.76010  0.05567  Biso   1.000  C
  C723     1.0000 0.82410  0.76010  0.05567  Biso   1.000  C
  H748     1.0000 0.08665  0.91510  0.05897  Biso   1.000  H
  H749     1.0000 0.08661  0.91510  0.05897  Biso   1.000  H
  C724     1.0000 0.23048  0.00012  0.07226  Biso   1.000  C
  C725     1.0000 0.23052  0.00012  0.07226  Biso   1.000  C
  C726     1.0000 0.82202  0.96227  0.31738  Biso   1.000  C
  C727     1.0000 0.82206  0.96227  0.31738  Biso   1.000  C
  C728     1.0000 0.87327  0.03756  0.38654  Biso   1.000  C
  C729     1.0000 0.87323  0.03756  0.38654  Biso   1.000  C
  C730     1.0000 0.18442  0.11463  0.29584  Biso   1.000  C
  C731     1.0000 0.18446  0.11463  0.29584  Biso   1.000  C
  C732     1.0000 0.16431  0.12672  0.38654  Biso   1.000  C
  C733     1.0000 0.76963  0.76950  0.07226  Biso   1.000  C
  C734     1.0000 0.76967  0.76950  0.07226  Biso   1.000  C
  C735     1.0000 0.79921  0.69280  0.03731  Biso   1.000  C
  C736     1.0000 0.79922  0.69275  0.03731  Biso   1.000  C
  C737     1.0000 0.79925  0.69280  0.03731  Biso   1.000  C
  H750     1.0000 0.84662  0.78869  0.02658  Biso   1.000  H
  H751     1.0000 0.84666  0.78869  0.02658  Biso   1.000  H
  C738     1.0000 0.24689  0.97054  0.02630  Biso   1.000  C
  C739     1.0000 0.24693  0.97054  0.02630  Biso   1.000  C
  H752     1.0000 0.25823  0.00586  0.10206  Biso   1.000  H
  C740     1.0000 0.23989  0.06399  0.05567  Biso   1.000  C
  C741     1.0000 0.23993  0.06399  0.05567  Biso   1.000  C
  C742     1.0000 0.84695  0.00831  0.27846  Biso   1.000  C
  C743     1.0000 0.84691  0.00831  0.27846  Biso   1.000  C
  H753     1.0000 0.79572  0.92074  0.30724  Biso   1.000  H
  H754     1.0000 0.79576  0.92074  0.30724  Biso   1.000  H
  C744     1.0000 0.89884  0.08529  0.34868  Biso   1.000  C
  C745     1.0000 0.89882  0.08524  0.34868  Biso   1.000  C
  O54      1.0000 0.88606  0.05035  0.43761  Biso   1.000  O
  C746     1.0000 0.16135  0.15305  0.27846  Biso   1.000  C
  C747     1.0000 0.16133  0.15301  0.27846  Biso   1.000  C
  C748     1.0000 0.16139  0.15305  0.27846  Biso   1.000  C
  H755     1.0000 0.19914  0.09733  0.27103  Biso   1.000  H
  H756     1.0000 0.19918  0.09733  0.27103  Biso   1.000  H
  C749     1.0000 0.14079  0.16561  0.37042  Biso   1.000  C
  C750     1.0000 0.14084  0.16561  0.37042  Biso   1.000  C
  O55      1.0000 0.16425  0.11388  0.43761  Biso   1.000  O
  O56      1.0000 0.16429  0.11388  0.43761  Biso   1.000  O
  C751     1.0000 0.72361  0.75314  0.02630  Biso   1.000  C
  C752     1.0000 0.72365  0.75314  0.02630  Biso   1.000  C
  N97      1.0000 0.79184  0.83454  0.08751  Biso   1.000  N
  H757     1.0000 0.74763  0.74180  0.10206  Biso   1.000  H
  N98      1.0000 0.79188  0.83454  0.08751  Biso   1.000  N
  C753     1.0000 0.75396  0.67634  0.99147  Biso   1.000  C
  C754     1.0000 0.75400  0.67634  0.99147  Biso   1.000  C
  H758     1.0000 0.83422  0.68749  0.02677  Biso   1.000  H
  H759     1.0000 0.77783  0.66421  0.06628  Biso   1.000  H
  H760     1.0000 0.77784  0.66416  0.06628  Biso   1.000  H
  H761     1.0000 0.77780  0.66416  0.06628  Biso   1.000  H
  H762     1.0000 0.21717  0.96151  0.99796  Biso   1.000  H
  H763     1.0000 0.21710  0.96147  0.99796  Biso   1.000  H
  H764     1.0000 0.21712  0.96151  0.99796  Biso   1.000  H
  H765     1.0000 0.21714  0.96147  0.99796  Biso   1.000  H
  H766     1.0000 0.24313  0.93109  0.03766  Biso   1.000  H
  H767     1.0000 0.24317  0.93109  0.03766  Biso   1.000  H
  C755     1.0000 0.31391  0.01409  0.00598  Biso   1.000  C
  N99      1.0000 0.22562  0.09319  0.09958  Biso   1.000  N
  H768     1.0000 0.21135  0.05797  0.02658  Biso   1.000  H
  C756     1.0000 0.30722  0.10645  0.03731  Biso   1.000  C
  H769     1.0000 0.21128  0.05792  0.02658  Biso   1.000  H
  H770     1.0000 0.21132  0.05792  0.02658  Biso   1.000  H
  C757     1.0000 0.83861  0.99171  0.22154  Biso   1.000  C
  C758     1.0000 0.83865  0.99171  0.22154  Biso   1.000  C
  C759     1.0000 0.88534  0.06977  0.29584  Biso   1.000  C
  C760     1.0000 0.88530  0.06977  0.29584  Biso   1.000  C
  C761     1.0000 0.94153  0.15014  0.36444  Biso   1.000  C
  C762     1.0000 0.94149  0.15014  0.36444  Biso   1.000  C
  H771     1.0000 0.91506  0.08661  0.44103  Biso   1.000  H
  H772     1.0000 0.91502  0.08661  0.44103  Biso   1.000  H
  C763     1.0000 0.15303  0.16133  0.22154  Biso   1.000  C
  C764     1.0000 0.15307  0.16133  0.22154  Biso   1.000  C
  C765     1.0000 0.14019  0.17793  0.31738  Biso   1.000  C
  C766     1.0000 0.14015  0.17793  0.31738  Biso   1.000  C
  C767     1.0000 0.11295  0.18804  0.40946  Biso   1.000  C
  C768     1.0000 0.11300  0.18804  0.40946  Biso   1.000  C
  H773     1.0000 0.17155  0.08491  0.44103  Biso   1.000  H
  C769     1.0000 0.70016  0.68612  0.00598  Biso   1.000  C
  H774     1.0000 0.68790  0.75690  0.03766  Biso   1.000  H
  C770     1.0000 0.70021  0.68612  0.00598  Biso   1.000  C
  H775     1.0000 0.68794  0.75690  0.03766  Biso   1.000  H
  H776     1.0000 0.74432  0.78291  0.99796  Biso   1.000  H
  H777     1.0000 0.74436  0.78291  0.99796  Biso   1.000  H
  C771     1.0000 0.79136  0.84987  0.13556  Biso   1.000  C
  C772     1.0000 0.79140  0.84987  0.13556  Biso   1.000  C
  H778     1.0000 0.77611  0.70249  0.96147  Biso   1.000  H
  H779     1.0000 0.73781  0.63280  0.98156  Biso   1.000  H
  H780     1.0000 0.77615  0.70249  0.96147  Biso   1.000  H
  H781     1.0000 0.73785  0.63280  0.98156  Biso   1.000  H
  H782     1.0000 0.32144  0.99519  0.97535  Biso   1.000  H
  H783     1.0000 0.32140  0.99519  0.97535  Biso   1.000  H
  C773     1.0000 0.32364  0.07762  0.99147  Biso   1.000  C
  C774     1.0000 0.32368  0.07762  0.99147  Biso   1.000  C
  H784     1.0000 0.34389  0.01884  0.03287  Biso   1.000  H
  H785     1.0000 0.34393  0.01884  0.03287  Biso   1.000  H
  C775     1.0000 0.18801  0.11294  0.09054  Biso   1.000  C
  C776     1.0000 0.18805  0.11294  0.09054  Biso   1.000  C
  H786     1.0000 0.31251  0.14675  0.02677  Biso   1.000  H
  H787     1.0000 0.33583  0.11365  0.06628  Biso   1.000  H
  H788     1.0000 0.33579  0.11365  0.06628  Biso   1.000  H
  H789     1.0000 0.31255  0.14675  0.02677  Biso   1.000  H
  C777     1.0000 0.81554  0.93024  0.20416  Biso   1.000  C
  C778     1.0000 0.81558  0.93024  0.20416  Biso   1.000  C
  C779     1.0000 0.85976  0.03774  0.18262  Biso   1.000  C
  C780     1.0000 0.85980  0.03774  0.18262  Biso   1.000  C
  H790     1.0000 0.90266  0.10180  0.27103  Biso   1.000  H
  H791     1.0000 0.90262  0.10180  0.27103  Biso   1.000  H
  N100     1.0000 0.95734  0.16547  0.41249  Biso   1.000  N
  H792     1.0000 0.95777  0.18132  0.33885  Biso   1.000  H
  N101     1.0000 0.95732  0.16542  0.41249  Biso   1.000  N
  H793     1.0000 0.95773  0.18132  0.33885  Biso   1.000  H
  N102     1.0000 0.95728  0.16542  0.41249  Biso   1.000  N
  C781     1.0000 0.11465  0.18442  0.20416  Biso   1.000  C
  C782     1.0000 0.11469  0.18442  0.20416  Biso   1.000  C
  C783     1.0000 0.17796  0.14017  0.18262  Biso   1.000  C
  C784     1.0000 0.17792  0.14017  0.18262  Biso   1.000  C
  H794     1.0000 0.12495  0.20422  0.30724  Biso   1.000  H
  H795     1.0000 0.12499  0.20422  0.30724  Biso   1.000  H
  N103     1.0000 0.09317  0.22562  0.40042  Biso   1.000  N
  N104     1.0000 0.09322  0.22562  0.40042  Biso   1.000  N
  H796     1.0000 0.10955  0.17342  0.44374  Biso   1.000  H
  H797     1.0000 0.10959  0.17342  0.44374  Biso   1.000  H
  H798     1.0000 0.67492  0.65607  0.03287  Biso   1.000  H
  H799     1.0000 0.67372  0.67860  0.97535  Biso   1.000  H
  H800     1.0000 0.67376  0.67860  0.97535  Biso   1.000  H
  C785     1.0000 0.81352  0.91472  0.15132  Biso   1.000  C
  H801     1.0000 0.77642  0.81869  0.16115  Biso   1.000  H
  C786     1.0000 0.81356  0.91472  0.15132  Biso   1.000  C
  H802     1.0000 0.29752  0.07367  0.96147  Biso   1.000  H
  H803     1.0000 0.36720  0.10504  0.98156  Biso   1.000  H
  H804     1.0000 0.29749  0.07363  0.96147  Biso   1.000  H
  H805     1.0000 0.29756  0.07367  0.96147  Biso   1.000  H
  H806     1.0000 0.36724  0.10504  0.98156  Biso   1.000  H
  H807     1.0000 0.29753  0.07363  0.96147  Biso   1.000  H
  C787     1.0000 0.16560  0.14078  0.12958  Biso   1.000  C
  H808     1.0000 0.17341  0.10955  0.05626  Biso   1.000  H
  H809     1.0000 0.17345  0.10955  0.05626  Biso   1.000  H
  H810     1.0000 0.80083  0.89822  0.22897  Biso   1.000  H
  H811     1.0000 0.80085  0.89817  0.22897  Biso   1.000  H
  H812     1.0000 0.80081  0.89817  0.22897  Biso   1.000  H
  C788     1.0000 0.85920  0.02481  0.12958  Biso   1.000  C
  C789     1.0000 0.85917  0.02476  0.12958  Biso   1.000  C
  C790     1.0000 0.85916  0.02481  0.12958  Biso   1.000  C
  C791     1.0000 0.85913  0.02476  0.12958  Biso   1.000  C
  H813     1.0000 0.87502  0.07927  0.19276  Biso   1.000  H
  H814     1.0000 0.87500  0.07922  0.19276  Biso   1.000  H
  C792     1.0000 0.00016  0.23051  0.42774  Biso   1.000  C
  C793     1.0000 0.10114  0.18640  0.15132  Biso   1.000  C
  C794     1.0000 0.10110  0.18640  0.15132  Biso   1.000  C
  H815     1.0000 0.09733  0.19914  0.22897  Biso   1.000  H
  H816     1.0000 0.20423  0.12493  0.19276  Biso   1.000  H
  H817     1.0000 0.20419  0.12493  0.19276  Biso   1.000  H
  C795     1.0000 0.06400  0.23991  0.44433  Biso   1.000  C
  C796     1.0000 0.83568  0.96245  0.11346  Biso   1.000  C
  C797     1.0000 0.83565  0.96241  0.11346  Biso   1.000  C
  C798     1.0000 0.12670  0.16429  0.11346  Biso   1.000  C
  C799     1.0000 0.12674  0.16429  0.11346  Biso   1.000  C
  C800     1.0000 0.88700  0.07504  0.09054  Biso   1.000  C
  C801     1.0000 0.97051  0.24687  0.47370  Biso   1.000  C
  C802     1.0000 0.97047  0.24687  0.47370  Biso   1.000  C
  H818     1.0000 0.00586  0.25821  0.39794  Biso   1.000  H
  H819     1.0000 0.00582  0.25821  0.39794  Biso   1.000  H
  C803     1.0000 0.05844  0.20859  0.13556  Biso   1.000  C
  C804     1.0000 0.05848  0.20859  0.13556  Biso   1.000  C
  H820     1.0000 0.05797  0.21132  0.47342  Biso   1.000  H
  C805     1.0000 0.10644  0.30721  0.46269  Biso   1.000  C
  H821     1.0000 0.05793  0.21132  0.47342  Biso   1.000  H
  C806     1.0000 0.10648  0.30721  0.46269  Biso   1.000  C
  O57      1.0000 0.83568  0.94966  0.06239  Biso   1.000  O
  O58      1.0000 0.83572  0.94966  0.06239  Biso   1.000  O
  O59      1.0000 0.11391  0.16429  0.06239  Biso   1.000  O
  O60      1.0000 0.11389  0.16425  0.06239  Biso   1.000  O
  O61      1.0000 0.11395  0.16429  0.06239  Biso   1.000  O
  N105     1.0000 0.90680  0.13241  0.09958  Biso   1.000  N
  H822     1.0000 0.89044  0.06384  0.05626  Biso   1.000  H
  H823     1.0000 0.89040  0.06384  0.05626  Biso   1.000  H
  N106     1.0000 0.90676  0.13241  0.09958  Biso   1.000  N
  H824     1.0000 0.96145  0.21711  0.50204  Biso   1.000  H
  H825     1.0000 0.93104  0.24311  0.46234  Biso   1.000  H
  H826     1.0000 0.96141  0.21711  0.50204  Biso   1.000  H
  C807     1.0000 0.01407  0.31389  0.49402  Biso   1.000  C
  N107     1.0000 0.04264  0.20812  0.08751  Biso   1.000  N
  N108     1.0000 0.04262  0.20808  0.08751  Biso   1.000  N
  N109     1.0000 0.04268  0.20812  0.08751  Biso   1.000  N
  H827     1.0000 0.04221  0.22355  0.16115  Biso   1.000  H
  H828     1.0000 0.04225  0.22355  0.16115  Biso   1.000  H
  C808     1.0000 0.07765  0.32367  0.50853  Biso   1.000  C
  C809     1.0000 0.07769  0.32367  0.50853  Biso   1.000  C
  H829     1.0000 0.14677  0.31252  0.47323  Biso   1.000  H
  H830     1.0000 0.11365  0.33580  0.43372  Biso   1.000  H
  H831     1.0000 0.14673  0.31252  0.47323  Biso   1.000  H
  H832     1.0000 0.82842  0.91341  0.05897  Biso   1.000  H
  H833     1.0000 0.82846  0.91341  0.05897  Biso   1.000  H
  H834     1.0000 0.08491  0.17154  0.05897  Biso   1.000  H
  H835     1.0000 0.08495  0.17154  0.05897  Biso   1.000  H
  C810     1.0000 0.93597  0.17591  0.05567  Biso   1.000  C
  C811     1.0000 0.93601  0.17591  0.05567  Biso   1.000  C
  H836     1.0000 0.99511  0.32141  0.52465  Biso   1.000  H
  H837     1.0000 0.99515  0.32141  0.52465  Biso   1.000  H
  H838     1.0000 0.01888  0.34394  0.46713  Biso   1.000  H
  H839     1.0000 0.01884  0.34394  0.46713  Biso   1.000  H
  C812     1.0000 0.99982  0.23032  0.07226  Biso   1.000  C
  C813     1.0000 0.99978  0.23032  0.07226  Biso   1.000  C
  H840     1.0000 0.07366  0.29752  0.53853  Biso   1.000  H
  H841     1.0000 0.10504  0.36722  0.51844  Biso   1.000  H
  H842     1.0000 0.10508  0.36722  0.51844  Biso   1.000  H
  H843     1.0000 0.94199  0.15334  0.02658  Biso   1.000  H
  C814     1.0000 0.89352  0.20074  0.03731  Biso   1.000  C
  C815     1.0000 0.89348  0.20074  0.03731  Biso   1.000  C
  H844     1.0000 0.99411  0.25238  0.10206  Biso   1.000  H
  H845     1.0000 0.99409  0.25233  0.10206  Biso   1.000  H
  C816     1.0000 0.02948  0.27636  0.02630  Biso   1.000  C
  C817     1.0000 0.92236  0.24603  0.99147  Biso   1.000  C
  C818     1.0000 0.92233  0.24598  0.99147  Biso   1.000  C
  C819     1.0000 0.92232  0.24603  0.99147  Biso   1.000  C
  C820     1.0000 0.92229  0.24598  0.99147  Biso   1.000  C
  H846     1.0000 0.85322  0.16575  0.02677  Biso   1.000  H
  H847     1.0000 0.88626  0.22214  0.06628  Biso   1.000  H
  H848     1.0000 0.88630  0.22214  0.06628  Biso   1.000  H
  H849     1.0000 0.85318  0.16575  0.02677  Biso   1.000  H
  C821     1.0000 0.98591  0.29983  0.00598  Biso   1.000  C
  C822     1.0000 0.98588  0.29978  0.00598  Biso   1.000  C
  C823     1.0000 0.98587  0.29983  0.00598  Biso   1.000  C
  C824     1.0000 0.98584  0.29978  0.00598  Biso   1.000  C
  H850     1.0000 0.03852  0.25567  0.99796  Biso   1.000  H
  H851     1.0000 0.03856  0.25567  0.99796  Biso   1.000  H
  H852     1.0000 0.06891  0.31205  0.03766  Biso   1.000  H
  H853     1.0000 0.06895  0.31205  0.03766  Biso   1.000  H
  H854     1.0000 0.92633  0.22383  0.96147  Biso   1.000  H
  H855     1.0000 0.89491  0.26216  0.98156  Biso   1.000  H
  H856     1.0000 0.92629  0.22383  0.96147  Biso   1.000  H
  H857     1.0000 0.98112  0.32503  0.03287  Biso   1.000  H
  H858     1.0000 0.98108  0.32503  0.03287  Biso   1.000  H
  H859     1.0000 0.00482  0.32625  0.97535  Biso   1.000  H
  H860     1.0000 0.00486  0.32625  0.97535  Biso   1.000  H
  O62      1.0000 0.94959  0.83572  0.43761  Biso   1.000  O
  C825     1.0000 0.96239  0.83567  0.38654  Biso   1.000  C
  C826     1.0000 0.96237  0.83572  0.38654  Biso   1.000  C
  C827     1.0000 0.96241  0.83572  0.38654  Biso   1.000  C
  H861     1.0000 0.91334  0.82847  0.44103  Biso   1.000  H
  H862     1.0000 0.91336  0.82843  0.44103  Biso   1.000  H
  H863     1.0000 0.91339  0.82847  0.44103  Biso   1.000  H
  H864     1.0000 0.91332  0.82843  0.44103  Biso   1.000  H
  C828     1.0000 0.91471  0.81361  0.34868  Biso   1.000  C
  C829     1.0000 0.91469  0.81357  0.34868  Biso   1.000  C
  C830     1.0000 0.02483  0.85923  0.37042  Biso   1.000  C
  C831     1.0000 0.02481  0.85918  0.37042  Biso   1.000  C
  C832     1.0000 0.02479  0.85923  0.37042  Biso   1.000  C
  O63      1.0000 0.94963  0.83572  0.43761  Biso   1.000  O
  C833     1.0000 0.93024  0.81559  0.29584  Biso   1.000  C
  C834     1.0000 0.93020  0.81559  0.29584  Biso   1.000  C
  C835     1.0000 0.84986  0.79142  0.36444  Biso   1.000  C
  C836     1.0000 0.84982  0.79142  0.36444  Biso   1.000  C
  C837     1.0000 0.03780  0.85984  0.31738  Biso   1.000  C
  C838     1.0000 0.03776  0.85984  0.31738  Biso   1.000  C
  C839     1.0000 0.07508  0.88707  0.40946  Biso   1.000  C
  C840     1.0000 0.07512  0.88707  0.40946  Biso   1.000  C
  C841     1.0000 0.99167  0.83868  0.27846  Biso   1.000  C
  C842     1.0000 0.99169  0.83863  0.27846  Biso   1.000  C
  C843     1.0000 0.99171  0.83868  0.27846  Biso   1.000  C
  C844     1.0000 0.99165  0.83863  0.27846  Biso   1.000  C
  H865     1.0000 0.89816  0.80087  0.27103  Biso   1.000  H
  H866     1.0000 0.89820  0.80087  0.27103  Biso   1.000  H
  N110     1.0000 0.83453  0.79189  0.41249  Biso   1.000  N
  H867     1.0000 0.81868  0.77646  0.33885  Biso   1.000  H
  N111     1.0000 0.83449  0.79189  0.41249  Biso   1.000  N
  H868     1.0000 0.81864  0.77646  0.33885  Biso   1.000  H
  H869     1.0000 0.07930  0.87508  0.30724  Biso   1.000  H
  H870     1.0000 0.07924  0.87503  0.30724  Biso   1.000  H
  H871     1.0000 0.07926  0.87508  0.30724  Biso   1.000  H
  H872     1.0000 0.07928  0.87503  0.30724  Biso   1.000  H
  N112     1.0000 0.13244  0.90682  0.40042  Biso   1.000  N
  H873     1.0000 0.06386  0.89046  0.44374  Biso   1.000  H
  N113     1.0000 0.13240  0.90682  0.40042  Biso   1.000  N
  H874     1.0000 0.06390  0.89046  0.44374  Biso   1.000  H
  C845     1.0000 0.00831  0.84696  0.22154  Biso   1.000  C
  C846     1.0000 0.76948  0.76969  0.42774  Biso   1.000  C
  C847     1.0000 0.76949  0.76964  0.42774  Biso   1.000  C
  C848     1.0000 0.76952  0.76969  0.42774  Biso   1.000  C
  C849     1.0000 0.76945  0.76964  0.42774  Biso   1.000  C
  C850     1.0000 0.17591  0.93603  0.44433  Biso   1.000  C
  C851     1.0000 0.96223  0.82208  0.18262  Biso   1.000  C
  C852     1.0000 0.96221  0.82203  0.18262  Biso   1.000  C
  C853     1.0000 0.06979  0.88538  0.20416  Biso   1.000  C
  C854     1.0000 0.76007  0.82410  0.44433  Biso   1.000  C
  C855     1.0000 0.76011  0.82410  0.44433  Biso   1.000  C
  H875     1.0000 0.74175  0.74763  0.39794  Biso   1.000  H
  C856     1.0000 0.75310  0.72365  0.47370  Biso   1.000  C
  C857     1.0000 0.75314  0.72365  0.47370  Biso   1.000  C
  H876     1.0000 0.15339  0.94204  0.47342  Biso   1.000  H
  C858     1.0000 0.20078  0.89356  0.46269  Biso   1.000  C
  C859     1.0000 0.23037  0.99989  0.42774  Biso   1.000  C
  H877     1.0000 0.15335  0.94204  0.47342  Biso   1.000  H
  C860     1.0000 0.23034  0.99984  0.42774  Biso   1.000  C
  C861     1.0000 0.20074  0.89356  0.46269  Biso   1.000  C
  C862     1.0000 0.97520  0.83440  0.12958  Biso   1.000  C
  C863     1.0000 0.97515  0.83440  0.12958  Biso   1.000  C
  H878     1.0000 0.92075  0.79579  0.19276  Biso   1.000  H
  H879     1.0000 0.92071  0.79579  0.19276  Biso   1.000  H
  C864     1.0000 0.08530  0.89887  0.15132  Biso   1.000  C
  C865     1.0000 0.08526  0.89887  0.15132  Biso   1.000  C
  H880     1.0000 0.10182  0.90268  0.22897  Biso   1.000  H
  H881     1.0000 0.10186  0.90268  0.22897  Biso   1.000  H
  N114     1.0000 0.77437  0.86760  0.40042  Biso   1.000  N
  N115     1.0000 0.77441  0.86760  0.40042  Biso   1.000  N
  H882     1.0000 0.78866  0.84667  0.47342  Biso   1.000  H
  C866     1.0000 0.69276  0.79927  0.46269  Biso   1.000  C
  C867     1.0000 0.68606  0.70018  0.49402  Biso   1.000  C
  H883     1.0000 0.78287  0.74434  0.50204  Biso   1.000  H
  H884     1.0000 0.75687  0.68796  0.46234  Biso   1.000  H
  H885     1.0000 0.78283  0.74434  0.50204  Biso   1.000  H
  H886     1.0000 0.75683  0.68796  0.46234  Biso   1.000  H
  C868     1.0000 0.68610  0.70018  0.49402  Biso   1.000  C
  H887     1.0000 0.16577  0.85326  0.47323  Biso   1.000  H
  H888     1.0000 0.22219  0.88636  0.43372  Biso   1.000  H
  C869     1.0000 0.24603  0.92239  0.50853  Biso   1.000  C
  H889     1.0000 0.22215  0.88636  0.43372  Biso   1.000  H
  C870     1.0000 0.24600  0.92234  0.50853  Biso   1.000  C
  H890     1.0000 0.25238  0.99415  0.39794  Biso   1.000  H
  H891     1.0000 0.25234  0.99415  0.39794  Biso   1.000  H
  N116     1.0000 0.20812  0.04264  0.41249  Biso   1.000  N
  C871     1.0000 0.27635  0.02947  0.47370  Biso   1.000  C
  N117     1.0000 0.20808  0.04264  0.41249  Biso   1.000  N
  C872     1.0000 0.27639  0.02947  0.47370  Biso   1.000  C
  C873     1.0000 0.92492  0.81197  0.09054  Biso   1.000  C
  C874     1.0000 0.92488  0.81197  0.09054  Biso   1.000  C
  C875     1.0000 0.03761  0.87329  0.11346  Biso   1.000  C
  C876     1.0000 0.15018  0.94157  0.13556  Biso   1.000  C
  C877     1.0000 0.15014  0.94157  0.13556  Biso   1.000  C
  C878     1.0000 0.81195  0.92493  0.40946  Biso   1.000  C
  C879     1.0000 0.81193  0.92497  0.40946  Biso   1.000  C
  C880     1.0000 0.81197  0.92497  0.40946  Biso   1.000  C
  H892     1.0000 0.68748  0.83426  0.47323  Biso   1.000  H
  C881     1.0000 0.67630  0.75398  0.50853  Biso   1.000  C
  H893     1.0000 0.68744  0.83426  0.47323  Biso   1.000  H
  H894     1.0000 0.66416  0.77783  0.43372  Biso   1.000  H
  H895     1.0000 0.66414  0.77787  0.43372  Biso   1.000  H
  C882     1.0000 0.67635  0.75398  0.50853  Biso   1.000  C
  H896     1.0000 0.66418  0.77787  0.43372  Biso   1.000  H
  H897     1.0000 0.65607  0.67498  0.46713  Biso   1.000  H
  H898     1.0000 0.67859  0.67376  0.52465  Biso   1.000  H
  H899     1.0000 0.67855  0.67376  0.52465  Biso   1.000  H
  H900     1.0000 0.65608  0.67493  0.46713  Biso   1.000  H
  H901     1.0000 0.65604  0.67493  0.46713  Biso   1.000  H
  H902     1.0000 0.22385  0.92634  0.53853  Biso   1.000  H
  H903     1.0000 0.26217  0.89497  0.51844  Biso   1.000  H
  C883     1.0000 0.29982  0.98592  0.49402  Biso   1.000  C
  C884     1.0000 0.29978  0.98592  0.49402  Biso   1.000  C
  H904     1.0000 0.22389  0.92634  0.53853  Biso   1.000  H
  H905     1.0000 0.26221  0.89497  0.51844  Biso   1.000  H
  C885     1.0000 0.20861  0.05844  0.36444  Biso   1.000  C
  C886     1.0000 0.20857  0.05844  0.36444  Biso   1.000  C
  H906     1.0000 0.25566  0.03850  0.50204  Biso   1.000  H
  H907     1.0000 0.31204  0.06892  0.46234  Biso   1.000  H
  H908     1.0000 0.25561  0.03850  0.50204  Biso   1.000  H
  H909     1.0000 0.31208  0.06892  0.46234  Biso   1.000  H
  N118     1.0000 0.86757  0.77439  0.09958  Biso   1.000  N
  N119     1.0000 0.86753  0.77439  0.09958  Biso   1.000  N
  H910     1.0000 0.93615  0.82659  0.05626  Biso   1.000  H
  H911     1.0000 0.93611  0.82659  0.05626  Biso   1.000  H
  O64      1.0000 0.05038  0.88613  0.06239  Biso   1.000  O
  O65      1.0000 0.05035  0.88608  0.06239  Biso   1.000  O
  O66      1.0000 0.05039  0.88608  0.06239  Biso   1.000  O
  N120     1.0000 0.16549  0.95738  0.08751  Biso   1.000  N
  H912     1.0000 0.18134  0.95780  0.16115  Biso   1.000  H
  N121     1.0000 0.16545  0.95738  0.08751  Biso   1.000  N
  C887     1.0000 0.83435  0.97520  0.37042  Biso   1.000  C
  C888     1.0000 0.83439  0.97520  0.37042  Biso   1.000  C
  H913     1.0000 0.82657  0.93617  0.44374  Biso   1.000  H
  H914     1.0000 0.70247  0.77618  0.53853  Biso   1.000  H
  H915     1.0000 0.63277  0.73785  0.51844  Biso   1.000  H
  H916     1.0000 0.70245  0.77613  0.53853  Biso   1.000  H
  H917     1.0000 0.63273  0.73785  0.51844  Biso   1.000  H
  H918     1.0000 0.32506  0.98117  0.46713  Biso   1.000  H
  H919     1.0000 0.32510  0.98117  0.46713  Biso   1.000  H
  H920     1.0000 0.32626  0.00483  0.52465  Biso   1.000  H
  H921     1.0000 0.32622  0.00483  0.52465  Biso   1.000  H
  C889     1.0000 0.18642  0.10114  0.34868  Biso   1.000  C
  H922     1.0000 0.22355  0.04221  0.33885  Biso   1.000  H
  H923     1.0000 0.22359  0.04221  0.33885  Biso   1.000  H
  C890     1.0000 0.82406  0.76010  0.05567  Biso   1.000  C
  C891     1.0000 0.82410  0.76010  0.05567  Biso   1.000  C
  H924     1.0000 0.08665  0.91510  0.05897  Biso   1.000  H
  H925     1.0000 0.08661  0.91510  0.05897  Biso   1.000  H
  C892     1.0000 0.23048  0.00012  0.07226  Biso   1.000  C
  C893     1.0000 0.23052  0.00012  0.07226  Biso   1.000  C
  C894     1.0000 0.82202  0.96227  0.31738  Biso   1.000  C
  C895     1.0000 0.82206  0.96227  0.31738  Biso   1.000  C
  C896     1.0000 0.87327  0.03756  0.38654  Biso   1.000  C
  C897     1.0000 0.87323  0.03756  0.38654  Biso   1.000  C
  C898     1.0000 0.18442  0.11463  0.29584  Biso   1.000  C
  C899     1.0000 0.18446  0.11463  0.29584  Biso   1.000  C
  C900     1.0000 0.16431  0.12672  0.38654  Biso   1.000  C
  C901     1.0000 0.76963  0.76950  0.07226  Biso   1.000  C
  C902     1.0000 0.76967  0.76950  0.07226  Biso   1.000  C
  C903     1.0000 0.79922  0.69275  0.03731  Biso   1.000  C
  C904     1.0000 0.79921  0.69280  0.03731  Biso   1.000  C
  C905     1.0000 0.79925  0.69280  0.03731  Biso   1.000  C
  H926     1.0000 0.84662  0.78869  0.02658  Biso   1.000  H
  H927     1.0000 0.84666  0.78869  0.02658  Biso   1.000  H
  C906     1.0000 0.24689  0.97054  0.02630  Biso   1.000  C
  C907     1.0000 0.24693  0.97054  0.02630  Biso   1.000  C
  H928     1.0000 0.25823  0.00586  0.10206  Biso   1.000  H
  C908     1.0000 0.23989  0.06399  0.05567  Biso   1.000  C
  C909     1.0000 0.23993  0.06399  0.05567  Biso   1.000  C
  C910     1.0000 0.84695  0.00831  0.27846  Biso   1.000  C
  C911     1.0000 0.84691  0.00831  0.27846  Biso   1.000  C
  H929     1.0000 0.79576  0.92074  0.30724  Biso   1.000  H
  H930     1.0000 0.79572  0.92074  0.30724  Biso   1.000  H
  C912     1.0000 0.89884  0.08529  0.34868  Biso   1.000  C
  C913     1.0000 0.89882  0.08524  0.34868  Biso   1.000  C
  O67      1.0000 0.88606  0.05035  0.43761  Biso   1.000  O
  C914     1.0000 0.16135  0.15305  0.27846  Biso   1.000  C
  C915     1.0000 0.16133  0.15301  0.27846  Biso   1.000  C
  C916     1.0000 0.16139  0.15305  0.27846  Biso   1.000  C
  H931     1.0000 0.19914  0.09733  0.27103  Biso   1.000  H
  H932     1.0000 0.19918  0.09733  0.27103  Biso   1.000  H
  C917     1.0000 0.14079  0.16561  0.37042  Biso   1.000  C
  C918     1.0000 0.14084  0.16561  0.37042  Biso   1.000  C
  O68      1.0000 0.16425  0.11388  0.43761  Biso   1.000  O
  O69      1.0000 0.16429  0.11388  0.43761  Biso   1.000  O
  C919     1.0000 0.72361  0.75314  0.02630  Biso   1.000  C
  C920     1.0000 0.72365  0.75314  0.02630  Biso   1.000  C
  H933     1.0000 0.74763  0.74180  0.10206  Biso   1.000  H
  N122     1.0000 0.79188  0.83454  0.08751  Biso   1.000  N
  N123     1.0000 0.79184  0.83454  0.08751  Biso   1.000  N
  C921     1.0000 0.75396  0.67634  0.99147  Biso   1.000  C
  C922     1.0000 0.75400  0.67634  0.99147  Biso   1.000  C
  H934     1.0000 0.83422  0.68749  0.02677  Biso   1.000  H
  H935     1.0000 0.77783  0.66421  0.06628  Biso   1.000  H
  H936     1.0000 0.77784  0.66416  0.06628  Biso   1.000  H
  H937     1.0000 0.77780  0.66416  0.06628  Biso   1.000  H
  H938     1.0000 0.21717  0.96151  0.99796  Biso   1.000  H
  H939     1.0000 0.21710  0.96147  0.99796  Biso   1.000  H
  H940     1.0000 0.21712  0.96151  0.99796  Biso   1.000  H
  H941     1.0000 0.21714  0.96147  0.99796  Biso   1.000  H
  H942     1.0000 0.24313  0.93109  0.03766  Biso   1.000  H
  H943     1.0000 0.24317  0.93109  0.03766  Biso   1.000  H
  C923     1.0000 0.31391  0.01409  0.00598  Biso   1.000  C
  N124     1.0000 0.22562  0.09319  0.09958  Biso   1.000  N
  H944     1.0000 0.21135  0.05797  0.02658  Biso   1.000  H
  C924     1.0000 0.30722  0.10645  0.03731  Biso   1.000  C
  H945     1.0000 0.21128  0.05792  0.02658  Biso   1.000  H
  H946     1.0000 0.21132  0.05792  0.02658  Biso   1.000  H
  C925     1.0000 0.83861  0.99171  0.22154  Biso   1.000  C
  C926     1.0000 0.83865  0.99171  0.22154  Biso   1.000  C
  C927     1.0000 0.88534  0.06977  0.29584  Biso   1.000  C
  C928     1.0000 0.88530  0.06977  0.29584  Biso   1.000  C
  C929     1.0000 0.94153  0.15014  0.36444  Biso   1.000  C
  C930     1.0000 0.94149  0.15014  0.36444  Biso   1.000  C
  H947     1.0000 0.91506  0.08661  0.44103  Biso   1.000  H
  H948     1.0000 0.91502  0.08661  0.44103  Biso   1.000  H
  C931     1.0000 0.15303  0.16133  0.22154  Biso   1.000  C
  C932     1.0000 0.15307  0.16133  0.22154  Biso   1.000  C
  C933     1.0000 0.14019  0.17793  0.31738  Biso   1.000  C
  C934     1.0000 0.14015  0.17793  0.31738  Biso   1.000  C
  C935     1.0000 0.11295  0.18804  0.40946  Biso   1.000  C
  C936     1.0000 0.11300  0.18804  0.40946  Biso   1.000  C
  H949     1.0000 0.17155  0.08491  0.44103  Biso   1.000  H
  C937     1.0000 0.70016  0.68612  0.00598  Biso   1.000  C
  C938     1.0000 0.70021  0.68612  0.00598  Biso   1.000  C
  H950     1.0000 0.68794  0.75690  0.03766  Biso   1.000  H
  H951     1.0000 0.74432  0.78291  0.99796  Biso   1.000  H
  H952     1.0000 0.74436  0.78291  0.99796  Biso   1.000  H
  H953     1.0000 0.68790  0.75690  0.03766  Biso   1.000  H
  C939     1.0000 0.79136  0.84987  0.13556  Biso   1.000  C
  C940     1.0000 0.79140  0.84987  0.13556  Biso   1.000  C
  H954     1.0000 0.77611  0.70249  0.96147  Biso   1.000  H
  H955     1.0000 0.73781  0.63280  0.98156  Biso   1.000  H
  H956     1.0000 0.77615  0.70249  0.96147  Biso   1.000  H
  H957     1.0000 0.73785  0.63280  0.98156  Biso   1.000  H
  H958     1.0000 0.32144  0.99519  0.97535  Biso   1.000  H
  H959     1.0000 0.32140  0.99519  0.97535  Biso   1.000  H
  C941     1.0000 0.32364  0.07762  0.99147  Biso   1.000  C
  C942     1.0000 0.32368  0.07762  0.99147  Biso   1.000  C
  H960     1.0000 0.34389  0.01884  0.03287  Biso   1.000  H
  H961     1.0000 0.34393  0.01884  0.03287  Biso   1.000  H
  C943     1.0000 0.18801  0.11294  0.09054  Biso   1.000  C
  C944     1.0000 0.18805  0.11294  0.09054  Biso   1.000  C
  H962     1.0000 0.31251  0.14675  0.02677  Biso   1.000  H
  H963     1.0000 0.33583  0.11365  0.06628  Biso   1.000  H
  H964     1.0000 0.33579  0.11365  0.06628  Biso   1.000  H
  H965     1.0000 0.31255  0.14675  0.02677  Biso   1.000  H
  C945     1.0000 0.81554  0.93024  0.20416  Biso   1.000  C
  C946     1.0000 0.81558  0.93024  0.20416  Biso   1.000  C
  C947     1.0000 0.85976  0.03774  0.18262  Biso   1.000  C
  C948     1.0000 0.85980  0.03774  0.18262  Biso   1.000  C
  H966     1.0000 0.90266  0.10180  0.27103  Biso   1.000  H
  H967     1.0000 0.90262  0.10180  0.27103  Biso   1.000  H
  N125     1.0000 0.95734  0.16547  0.41249  Biso   1.000  N
  H968     1.0000 0.95777  0.18132  0.33885  Biso   1.000  H
  N126     1.0000 0.95732  0.16542  0.41249  Biso   1.000  N
  H969     1.0000 0.95773  0.18132  0.33885  Biso   1.000  H
  N127     1.0000 0.95728  0.16542  0.41249  Biso   1.000  N
  C949     1.0000 0.11465  0.18442  0.20416  Biso   1.000  C
  C950     1.0000 0.11469  0.18442  0.20416  Biso   1.000  C
  C951     1.0000 0.17796  0.14017  0.18262  Biso   1.000  C
  C952     1.0000 0.17792  0.14017  0.18262  Biso   1.000  C
  H970     1.0000 0.12495  0.20422  0.30724  Biso   1.000  H
  H971     1.0000 0.12499  0.20422  0.30724  Biso   1.000  H
  N128     1.0000 0.09317  0.22562  0.40042  Biso   1.000  N
  N129     1.0000 0.09322  0.22562  0.40042  Biso   1.000  N
  H972     1.0000 0.10955  0.17342  0.44374  Biso   1.000  H
  H973     1.0000 0.10959  0.17342  0.44374  Biso   1.000  H
  H974     1.0000 0.67492  0.65607  0.03287  Biso   1.000  H
  H975     1.0000 0.67372  0.67860  0.97535  Biso   1.000  H
  H976     1.0000 0.67376  0.67860  0.97535  Biso   1.000  H
  H977     1.0000 0.77642  0.81869  0.16115  Biso   1.000  H
  C953     1.0000 0.81356  0.91472  0.15132  Biso   1.000  C
  C954     1.0000 0.81352  0.91472  0.15132  Biso   1.000  C
  H978     1.0000 0.29752  0.07367  0.96147  Biso   1.000  H
  H979     1.0000 0.36720  0.10504  0.98156  Biso   1.000  H
  H980     1.0000 0.29749  0.07363  0.96147  Biso   1.000  H
  H981     1.0000 0.29756  0.07367  0.96147  Biso   1.000  H
  H982     1.0000 0.36724  0.10504  0.98156  Biso   1.000  H
  H983     1.0000 0.29753  0.07363  0.96147  Biso   1.000  H
  C955     1.0000 0.16560  0.14078  0.12958  Biso   1.000  C
  H984     1.0000 0.17341  0.10955  0.05626  Biso   1.000  H
  H985     1.0000 0.17345  0.10955  0.05626  Biso   1.000  H
  H986     1.0000 0.80083  0.89822  0.22897  Biso   1.000  H
  H987     1.0000 0.80085  0.89817  0.22897  Biso   1.000  H
  H988     1.0000 0.80081  0.89817  0.22897  Biso   1.000  H
  C956     1.0000 0.85920  0.02481  0.12958  Biso   1.000  C
  C957     1.0000 0.85917  0.02476  0.12958  Biso   1.000  C
  C958     1.0000 0.85916  0.02481  0.12958  Biso   1.000  C
  C959     1.0000 0.85913  0.02476  0.12958  Biso   1.000  C
  H989     1.0000 0.87502  0.07927  0.19276  Biso   1.000  H
  H990     1.0000 0.87500  0.07922  0.19276  Biso   1.000  H
  C960     1.0000 0.00016  0.23051  0.42774  Biso   1.000  C
  C961     1.0000 0.10114  0.18640  0.15132  Biso   1.000  C
  C962     1.0000 0.10110  0.18640  0.15132  Biso   1.000  C
  H991     1.0000 0.09733  0.19914  0.22897  Biso   1.000  H
  H992     1.0000 0.20423  0.12493  0.19276  Biso   1.000  H
  H993     1.0000 0.20419  0.12493  0.19276  Biso   1.000  H
  C963     1.0000 0.06400  0.23991  0.44433  Biso   1.000  C
  C964     1.0000 0.83568  0.96245  0.11346  Biso   1.000  C
  C965     1.0000 0.83565  0.96241  0.11346  Biso   1.000  C
  C966     1.0000 0.12670  0.16429  0.11346  Biso   1.000  C
  C967     1.0000 0.12674  0.16429  0.11346  Biso   1.000  C
  C968     1.0000 0.88700  0.07504  0.09054  Biso   1.000  C
  C969     1.0000 0.97051  0.24687  0.47370  Biso   1.000  C
  C970     1.0000 0.97047  0.24687  0.47370  Biso   1.000  C
  H994     1.0000 0.00586  0.25821  0.39794  Biso   1.000  H
  H995     1.0000 0.00582  0.25821  0.39794  Biso   1.000  H
  C971     1.0000 0.05844  0.20859  0.13556  Biso   1.000  C
  C972     1.0000 0.05848  0.20859  0.13556  Biso   1.000  C
  H996     1.0000 0.05797  0.21132  0.47342  Biso   1.000  H
  C973     1.0000 0.10644  0.30721  0.46269  Biso   1.000  C
  H997     1.0000 0.05793  0.21132  0.47342  Biso   1.000  H
  C974     1.0000 0.10648  0.30721  0.46269  Biso   1.000  C
  O70      1.0000 0.83572  0.94966  0.06239  Biso   1.000  O
  O71      1.0000 0.83568  0.94966  0.06239  Biso   1.000  O
  O72      1.0000 0.11391  0.16429  0.06239  Biso   1.000  O
  O73      1.0000 0.11389  0.16425  0.06239  Biso   1.000  O
  O74      1.0000 0.11395  0.16429  0.06239  Biso   1.000  O
  N130     1.0000 0.90680  0.13241  0.09958  Biso   1.000  N
  H998     1.0000 0.89044  0.06384  0.05626  Biso   1.000  H
  H999     1.0000 0.89040  0.06384  0.05626  Biso   1.000  H
  N131     1.0000 0.90676  0.13241  0.09958  Biso   1.000  N
  H1000    1.0000 0.96145  0.21711  0.50204  Biso   1.000  H
  H1001    1.0000 0.93104  0.24311  0.46234  Biso   1.000  H
  H1002    1.0000 0.96141  0.21711  0.50204  Biso   1.000  H
  C975     1.0000 0.01407  0.31389  0.49402  Biso   1.000  C
  N132     1.0000 0.04264  0.20812  0.08751  Biso   1.000  N
  N133     1.0000 0.04262  0.20808  0.08751  Biso   1.000  N
  N134     1.0000 0.04268  0.20812  0.08751  Biso   1.000  N
  H1003    1.0000 0.04221  0.22355  0.16115  Biso   1.000  H
  H1004    1.0000 0.04225  0.22355  0.16115  Biso   1.000  H
  C976     1.0000 0.07765  0.32367  0.50853  Biso   1.000  C
  C977     1.0000 0.07769  0.32367  0.50853  Biso   1.000  C
  H1005    1.0000 0.14677  0.31252  0.47323  Biso   1.000  H
  H1006    1.0000 0.11365  0.33580  0.43372  Biso   1.000  H
  H1007    1.0000 0.14673  0.31252  0.47323  Biso   1.000  H
  H1008    1.0000 0.82842  0.91341  0.05897  Biso   1.000  H
  H1009    1.0000 0.82846  0.91341  0.05897  Biso   1.000  H
  H1010    1.0000 0.08491  0.17154  0.05897  Biso   1.000  H
  H1011    1.0000 0.08495  0.17154  0.05897  Biso   1.000  H
  C978     1.0000 0.93597  0.17591  0.05567  Biso   1.000  C
  C979     1.0000 0.93601  0.17591  0.05567  Biso   1.000  C
  H1012    1.0000 0.99511  0.32141  0.52465  Biso   1.000  H
  H1013    1.0000 0.99515  0.32141  0.52465  Biso   1.000  H
  H1014    1.0000 0.01888  0.34394  0.46713  Biso   1.000  H
  H1015    1.0000 0.01884  0.34394  0.46713  Biso   1.000  H
  C980     1.0000 0.99982  0.23032  0.07226  Biso   1.000  C
  C981     1.0000 0.99978  0.23032  0.07226  Biso   1.000  C
  H1016    1.0000 0.07366  0.29752  0.53853  Biso   1.000  H
  H1017    1.0000 0.10504  0.36722  0.51844  Biso   1.000  H
  H1018    1.0000 0.10508  0.36722  0.51844  Biso   1.000  H
  H1019    1.0000 0.94199  0.15334  0.02658  Biso   1.000  H
  C982     1.0000 0.89352  0.20074  0.03731  Biso   1.000  C
  C983     1.0000 0.89348  0.20074  0.03731  Biso   1.000  C
  H1020    1.0000 0.99411  0.25238  0.10206  Biso   1.000  H
  H1021    1.0000 0.99409  0.25233  0.10206  Biso   1.000  H
  C984     1.0000 0.02948  0.27636  0.02630  Biso   1.000  C
  C985     1.0000 0.92236  0.24603  0.99147  Biso   1.000  C
  C986     1.0000 0.92233  0.24598  0.99147  Biso   1.000  C
  C987     1.0000 0.92232  0.24603  0.99147  Biso   1.000  C
  C988     1.0000 0.92229  0.24598  0.99147  Biso   1.000  C
  H1022    1.0000 0.85322  0.16575  0.02677  Biso   1.000  H
  H1023    1.0000 0.88626  0.22214  0.06628  Biso   1.000  H
  H1024    1.0000 0.88630  0.22214  0.06628  Biso   1.000  H
  H1025    1.0000 0.85318  0.16575  0.02677  Biso   1.000  H
  C989     1.0000 0.98591  0.29983  0.00598  Biso   1.000  C
  C990     1.0000 0.98588  0.29978  0.00598  Biso   1.000  C
  C991     1.0000 0.98587  0.29983  0.00598  Biso   1.000  C
  C992     1.0000 0.98584  0.29978  0.00598  Biso   1.000  C
  H1026    1.0000 0.03852  0.25567  0.99796  Biso   1.000  H
  H1027    1.0000 0.03856  0.25567  0.99796  Biso   1.000  H
  H1028    1.0000 0.06891  0.31205  0.03766  Biso   1.000  H
  H1029    1.0000 0.06895  0.31205  0.03766  Biso   1.000  H
  H1030    1.0000 0.92633  0.22383  0.96147  Biso   1.000  H
  H1031    1.0000 0.89491  0.26216  0.98156  Biso   1.000  H
  H1032    1.0000 0.92629  0.22383  0.96147  Biso   1.000  H
  H1033    1.0000 0.98112  0.32503  0.03287  Biso   1.000  H
  H1034    1.0000 0.98108  0.32503  0.03287  Biso   1.000  H
  H1035    1.0000 0.00482  0.32625  0.97535  Biso   1.000  H
  H1036    1.0000 0.00486  0.32625  0.97535  Biso   1.000  H
  O75      1.0000 0.94959  0.83572  0.43761  Biso   1.000  O
  C993     1.0000 0.96237  0.83572  0.38654  Biso   1.000  C
  C994     1.0000 0.96239  0.83567  0.38654  Biso   1.000  C
  C995     1.0000 0.96241  0.83572  0.38654  Biso   1.000  C
  H1037    1.0000 0.91334  0.82847  0.44103  Biso   1.000  H
  H1038    1.0000 0.91336  0.82843  0.44103  Biso   1.000  H
  H1039    1.0000 0.91339  0.82847  0.44103  Biso   1.000  H
  H1040    1.0000 0.91332  0.82843  0.44103  Biso   1.000  H
  C996     1.0000 0.91471  0.81361  0.34868  Biso   1.000  C
  C997     1.0000 0.91469  0.81357  0.34868  Biso   1.000  C
  O76      1.0000 0.94963  0.83572  0.43761  Biso   1.000  O
  C998     1.0000 0.02483  0.85923  0.37042  Biso   1.000  C
  C999     1.0000 0.02481  0.85918  0.37042  Biso   1.000  C
  C1000    1.0000 0.02479  0.85923  0.37042  Biso   1.000  C
  C1001    1.0000 0.84986  0.79142  0.36444  Biso   1.000  C
  C1002    1.0000 0.84982  0.79142  0.36444  Biso   1.000  C
  C1003    1.0000 0.93020  0.81559  0.29584  Biso   1.000  C
  C1004    1.0000 0.93024  0.81559  0.29584  Biso   1.000  C
  C1005    1.0000 0.03780  0.85984  0.31738  Biso   1.000  C
  C1006    1.0000 0.07508  0.88707  0.40946  Biso   1.000  C
  C1007    1.0000 0.03776  0.85984  0.31738  Biso   1.000  C
  C1008    1.0000 0.07512  0.88707  0.40946  Biso   1.000  C
  N135     1.0000 0.83449  0.79189  0.41249  Biso   1.000  N
  N136     1.0000 0.83453  0.79189  0.41249  Biso   1.000  N
  H1041    1.0000 0.81864  0.77646  0.33885  Biso   1.000  H
  H1042    1.0000 0.81868  0.77646  0.33885  Biso   1.000  H
  H1043    1.0000 0.89816  0.80087  0.27103  Biso   1.000  H
  C1009    1.0000 0.99167  0.83868  0.27846  Biso   1.000  C
  C1010    1.0000 0.99169  0.83863  0.27846  Biso   1.000  C
  H1044    1.0000 0.89820  0.80087  0.27103  Biso   1.000  H
  C1011    1.0000 0.99171  0.83868  0.27846  Biso   1.000  C
  C1012    1.0000 0.99165  0.83863  0.27846  Biso   1.000  C
  H1045    1.0000 0.07930  0.87508  0.30724  Biso   1.000  H
  H1046    1.0000 0.07924  0.87503  0.30724  Biso   1.000  H
  H1047    1.0000 0.07926  0.87508  0.30724  Biso   1.000  H
  H1048    1.0000 0.07928  0.87503  0.30724  Biso   1.000  H
  N137     1.0000 0.13244  0.90682  0.40042  Biso   1.000  N
  H1049    1.0000 0.06386  0.89046  0.44374  Biso   1.000  H
  N138     1.0000 0.13240  0.90682  0.40042  Biso   1.000  N
  H1050    1.0000 0.06390  0.89046  0.44374  Biso   1.000  H
  C1013    1.0000 0.76948  0.76969  0.42774  Biso   1.000  C
  C1014    1.0000 0.76949  0.76964  0.42774  Biso   1.000  C
  C1015    1.0000 0.76952  0.76969  0.42774  Biso   1.000  C
  C1016    1.0000 0.76945  0.76964  0.42774  Biso   1.000  C
  C1017    1.0000 0.00831  0.84696  0.22154  Biso   1.000  C
  C1018    1.0000 0.17591  0.93603  0.44433  Biso   1.000  C
  C1019    1.0000 0.75310  0.72365  0.47370  Biso   1.000  C
  C1020    1.0000 0.75314  0.72365  0.47370  Biso   1.000  C
  C1021    1.0000 0.76007  0.82410  0.44433  Biso   1.000  C
  C1022    1.0000 0.76011  0.82410  0.44433  Biso   1.000  C
  H1051    1.0000 0.74175  0.74763  0.39794  Biso   1.000  H
  C1023    1.0000 0.96223  0.82208  0.18262  Biso   1.000  C
  C1024    1.0000 0.96221  0.82203  0.18262  Biso   1.000  C
  C1025    1.0000 0.06979  0.88538  0.20416  Biso   1.000  C
  H1052    1.0000 0.15339  0.94204  0.47342  Biso   1.000  H
  C1026    1.0000 0.20078  0.89356  0.46269  Biso   1.000  C
  C1027    1.0000 0.23037  0.99989  0.42774  Biso   1.000  C
  H1053    1.0000 0.15335  0.94204  0.47342  Biso   1.000  H
  C1028    1.0000 0.23034  0.99984  0.42774  Biso   1.000  C
  C1029    1.0000 0.20074  0.89356  0.46269  Biso   1.000  C
  C1030    1.0000 0.68606  0.70018  0.49402  Biso   1.000  C
  C1031    1.0000 0.68610  0.70018  0.49402  Biso   1.000  C
  H1054    1.0000 0.78287  0.74434  0.50204  Biso   1.000  H
  H1055    1.0000 0.75687  0.68796  0.46234  Biso   1.000  H
  H1056    1.0000 0.78283  0.74434  0.50204  Biso   1.000  H
  H1057    1.0000 0.75683  0.68796  0.46234  Biso   1.000  H
  C1032    1.0000 0.69276  0.79927  0.46269  Biso   1.000  C
  H1058    1.0000 0.78866  0.84667  0.47342  Biso   1.000  H
  N139     1.0000 0.77437  0.86760  0.40042  Biso   1.000  N
  N140     1.0000 0.77441  0.86760  0.40042  Biso   1.000  N
  C1033    1.0000 0.97520  0.83440  0.12958  Biso   1.000  C
  C1034    1.0000 0.97515  0.83440  0.12958  Biso   1.000  C
  H1059    1.0000 0.92071  0.79579  0.19276  Biso   1.000  H
  H1060    1.0000 0.92075  0.79579  0.19276  Biso   1.000  H
  C1035    1.0000 0.08530  0.89887  0.15132  Biso   1.000  C
  H1061    1.0000 0.10182  0.90268  0.22897  Biso   1.000  H
  C1036    1.0000 0.08526  0.89887  0.15132  Biso   1.000  C
  H1062    1.0000 0.10186  0.90268  0.22897  Biso   1.000  H
  H1063    1.0000 0.16577  0.85326  0.47323  Biso   1.000  H
  H1064    1.0000 0.22219  0.88636  0.43372  Biso   1.000  H
  C1037    1.0000 0.24603  0.92239  0.50853  Biso   1.000  C
  H1065    1.0000 0.22215  0.88636  0.43372  Biso   1.000  H
  C1038    1.0000 0.24600  0.92234  0.50853  Biso   1.000  C
  H1066    1.0000 0.25238  0.99415  0.39794  Biso   1.000  H
  H1067    1.0000 0.25234  0.99415  0.39794  Biso   1.000  H
  N141     1.0000 0.20812  0.04264  0.41249  Biso   1.000  N
  C1039    1.0000 0.27635  0.02947  0.47370  Biso   1.000  C
  N142     1.0000 0.20808  0.04264  0.41249  Biso   1.000  N
  C1040    1.0000 0.27639  0.02947  0.47370  Biso   1.000  C
  C1041    1.0000 0.67630  0.75398  0.50853  Biso   1.000  C
  H1068    1.0000 0.65607  0.67498  0.46713  Biso   1.000  H
  H1069    1.0000 0.67855  0.67376  0.52465  Biso   1.000  H
  C1042    1.0000 0.67635  0.75398  0.50853  Biso   1.000  C
  H1070    1.0000 0.65608  0.67493  0.46713  Biso   1.000  H
  H1071    1.0000 0.67859  0.67376  0.52465  Biso   1.000  H
  H1072    1.0000 0.65604  0.67493  0.46713  Biso   1.000  H
  H1073    1.0000 0.68744  0.83426  0.47323  Biso   1.000  H
  H1074    1.0000 0.66414  0.77787  0.43372  Biso   1.000  H
  H1075    1.0000 0.68748  0.83426  0.47323  Biso   1.000  H
  H1076    1.0000 0.66416  0.77783  0.43372  Biso   1.000  H
  H1077    1.0000 0.66418  0.77787  0.43372  Biso   1.000  H
  C1043    1.0000 0.81193  0.92497  0.40946  Biso   1.000  C
  C1044    1.0000 0.81195  0.92493  0.40946  Biso   1.000  C
  C1045    1.0000 0.81197  0.92497  0.40946  Biso   1.000  C
  C1046    1.0000 0.92488  0.81197  0.09054  Biso   1.000  C
  C1047    1.0000 0.92492  0.81197  0.09054  Biso   1.000  C
  C1048    1.0000 0.03761  0.87329  0.11346  Biso   1.000  C
  C1049    1.0000 0.15018  0.94157  0.13556  Biso   1.000  C
  C1050    1.0000 0.15014  0.94157  0.13556  Biso   1.000  C
  H1078    1.0000 0.22385  0.92634  0.53853  Biso   1.000  H
  H1079    1.0000 0.26217  0.89497  0.51844  Biso   1.000  H
  C1051    1.0000 0.29982  0.98592  0.49402  Biso   1.000  C
  C1052    1.0000 0.29978  0.98592  0.49402  Biso   1.000  C
  H1080    1.0000 0.22389  0.92634  0.53853  Biso   1.000  H
  H1081    1.0000 0.26221  0.89497  0.51844  Biso   1.000  H
  C1053    1.0000 0.20861  0.05844  0.36444  Biso   1.000  C
  C1054    1.0000 0.20857  0.05844  0.36444  Biso   1.000  C
  H1082    1.0000 0.25566  0.03850  0.50204  Biso   1.000  H
  H1083    1.0000 0.31204  0.06892  0.46234  Biso   1.000  H
  H1084    1.0000 0.25561  0.03850  0.50204  Biso   1.000  H
  H1085    1.0000 0.31208  0.06892  0.46234  Biso   1.000  H
  H1086    1.0000 0.63277  0.73785  0.51844  Biso   1.000  H
  H1087    1.0000 0.70247  0.77618  0.53853  Biso   1.000  H
  H1088    1.0000 0.63273  0.73785  0.51844  Biso   1.000  H
  H1089    1.0000 0.70245  0.77613  0.53853  Biso   1.000  H
  H1090    1.0000 0.82657  0.93617  0.44374  Biso   1.000  H
  C1055    1.0000 0.83435  0.97520  0.37042  Biso   1.000  C
  C1056    1.0000 0.83439  0.97520  0.37042  Biso   1.000  C
  N143     1.0000 0.86757  0.77439  0.09958  Biso   1.000  N
  N144     1.0000 0.86753  0.77439  0.09958  Biso   1.000  N
  H1091    1.0000 0.93611  0.82659  0.05626  Biso   1.000  H
  H1092    1.0000 0.93615  0.82659  0.05626  Biso   1.000  H
  O77      1.0000 0.05038  0.88613  0.06239  Biso   1.000  O
  O78      1.0000 0.05035  0.88608  0.06239  Biso   1.000  O
  O79      1.0000 0.05039  0.88608  0.06239  Biso   1.000  O
  N145     1.0000 0.16549  0.95738  0.08751  Biso   1.000  N
  H1093    1.0000 0.18134  0.95780  0.16115  Biso   1.000  H
  N146     1.0000 0.16545  0.95738  0.08751  Biso   1.000  N
  H1094    1.0000 0.32506  0.98117  0.46713  Biso   1.000  H
  H1095    1.0000 0.32510  0.98117  0.46713  Biso   1.000  H
  H1096    1.0000 0.32626  0.00483  0.52465  Biso   1.000  H
  H1097    1.0000 0.32622  0.00483  0.52465  Biso   1.000  H
  C1057    1.0000 0.18642  0.10114  0.34868  Biso   1.000  C
  H1098    1.0000 0.22355  0.04221  0.33885  Biso   1.000  H
  H1099    1.0000 0.22359  0.04221  0.33885  Biso   1.000  H
  C1058    1.0000 0.82202  0.96227  0.31738  Biso   1.000  C
  C1059    1.0000 0.82206  0.96227  0.31738  Biso   1.000  C
  C1060    1.0000 0.87327  0.03756  0.38654  Biso   1.000  C
  C1061    1.0000 0.87323  0.03756  0.38654  Biso   1.000  C
  C1062    1.0000 0.82406  0.76010  0.05567  Biso   1.000  C
  C1063    1.0000 0.82410  0.76010  0.05567  Biso   1.000  C
  H1100    1.0000 0.08665  0.91510  0.05897  Biso   1.000  H
  H1101    1.0000 0.08661  0.91510  0.05897  Biso   1.000  H
  C1064    1.0000 0.23048  0.00012  0.07226  Biso   1.000  C
  C1065    1.0000 0.23052  0.00012  0.07226  Biso   1.000  C
  C1066    1.0000 0.16431  0.12672  0.38654  Biso   1.000  C
  C1067    1.0000 0.18442  0.11463  0.29584  Biso   1.000  C
  C1068    1.0000 0.18446  0.11463  0.29584  Biso   1.000  C
  H1102    1.0000 0.79576  0.92074  0.30724  Biso   1.000  H
  H1103    1.0000 0.79572  0.92074  0.30724  Biso   1.000  H
  C1069    1.0000 0.84695  0.00831  0.27846  Biso   1.000  C
  C1070    1.0000 0.84691  0.00831  0.27846  Biso   1.000  C
  O80      1.0000 0.88606  0.05035  0.43761  Biso   1.000  O
  C1071    1.0000 0.89884  0.08529  0.34868  Biso   1.000  C
  C1072    1.0000 0.89882  0.08524  0.34868  Biso   1.000  C
  C1073    1.0000 0.76963  0.76950  0.07226  Biso   1.000  C
  C1074    1.0000 0.76967  0.76950  0.07226  Biso   1.000  C
  H1104    1.0000 0.84662  0.78869  0.02658  Biso   1.000  H
  C1075    1.0000 0.79921  0.69280  0.03731  Biso   1.000  C
  H1105    1.0000 0.84666  0.78869  0.02658  Biso   1.000  H
  C1076    1.0000 0.79922  0.69275  0.03731  Biso   1.000  C
  C1077    1.0000 0.79925  0.69280  0.03731  Biso   1.000  C
  C1078    1.0000 0.24689  0.97054  0.02630  Biso   1.000  C
  C1079    1.0000 0.24693  0.97054  0.02630  Biso   1.000  C
  H1106    1.0000 0.25823  0.00586  0.10206  Biso   1.000  H
  C1080    1.0000 0.23989  0.06399  0.05567  Biso   1.000  C
  C1081    1.0000 0.23993  0.06399  0.05567  Biso   1.000  C
  C1082    1.0000 0.14079  0.16561  0.37042  Biso   1.000  C
  C1083    1.0000 0.14084  0.16561  0.37042  Biso   1.000  C
  O81      1.0000 0.16425  0.11388  0.43761  Biso   1.000  O
  O82      1.0000 0.16429  0.11388  0.43761  Biso   1.000  O
  C1084    1.0000 0.16135  0.15305  0.27846  Biso   1.000  C
  H1107    1.0000 0.19914  0.09733  0.27103  Biso   1.000  H
  C1085    1.0000 0.16133  0.15301  0.27846  Biso   1.000  C
  C1086    1.0000 0.16139  0.15305  0.27846  Biso   1.000  C
  H1108    1.0000 0.19918  0.09733  0.27103  Biso   1.000  H
  C1087    1.0000 0.83861  0.99171  0.22154  Biso   1.000  C
  C1088    1.0000 0.83865  0.99171  0.22154  Biso   1.000  C
  C1089    1.0000 0.88534  0.06977  0.29584  Biso   1.000  C
  C1090    1.0000 0.88530  0.06977  0.29584  Biso   1.000  C
  H1109    1.0000 0.91506  0.08661  0.44103  Biso   1.000  H
  H1110    1.0000 0.91502  0.08661  0.44103  Biso   1.000  H
  C1091    1.0000 0.94153  0.15014  0.36444  Biso   1.000  C
  C1092    1.0000 0.94149  0.15014  0.36444  Biso   1.000  C
  N147     1.0000 0.79184  0.83454  0.08751  Biso   1.000  N
  N148     1.0000 0.79188  0.83454  0.08751  Biso   1.000  N
  H1111    1.0000 0.74763  0.74180  0.10206  Biso   1.000  H
  C1093    1.0000 0.72361  0.75314  0.02630  Biso   1.000  C
  C1094    1.0000 0.72365  0.75314  0.02630  Biso   1.000  C
  H1112    1.0000 0.83422  0.68749  0.02677  Biso   1.000  H
  C1095    1.0000 0.75396  0.67634  0.99147  Biso   1.000  C
  C1096    1.0000 0.75400  0.67634  0.99147  Biso   1.000  C
  H1113    1.0000 0.77783  0.66421  0.06628  Biso   1.000  H
  H1114    1.0000 0.77784  0.66416  0.06628  Biso   1.000  H
  H1115    1.0000 0.77780  0.66416  0.06628  Biso   1.000  H
  H1116    1.0000 0.21717  0.96151  0.99796  Biso   1.000  H
  H1117    1.0000 0.21710  0.96147  0.99796  Biso   1.000  H
  H1118    1.0000 0.21712  0.96151  0.99796  Biso   1.000  H
  H1119    1.0000 0.21714  0.96147  0.99796  Biso   1.000  H
  H1120    1.0000 0.24313  0.93109  0.03766  Biso   1.000  H
  H1121    1.0000 0.24317  0.93109  0.03766  Biso   1.000  H
  C1097    1.0000 0.31391  0.01409  0.00598  Biso   1.000  C
  N149     1.0000 0.22562  0.09319  0.09958  Biso   1.000  N
  H1122    1.0000 0.21135  0.05797  0.02658  Biso   1.000  H
  C1098    1.0000 0.30722  0.10645  0.03731  Biso   1.000  C
  H1123    1.0000 0.21128  0.05792  0.02658  Biso   1.000  H
  H1124    1.0000 0.21132  0.05792  0.02658  Biso   1.000  H
  C1099    1.0000 0.11295  0.18804  0.40946  Biso   1.000  C
  C1100    1.0000 0.11300  0.18804  0.40946  Biso   1.000  C
  C1101    1.0000 0.14019  0.17793  0.31738  Biso   1.000  C
  C1102    1.0000 0.14015  0.17793  0.31738  Biso   1.000  C
  H1125    1.0000 0.17155  0.08491  0.44103  Biso   1.000  H
  C1103    1.0000 0.15303  0.16133  0.22154  Biso   1.000  C
  C1104    1.0000 0.15307  0.16133  0.22154  Biso   1.000  C
  C1105    1.0000 0.81554  0.93024  0.20416  Biso   1.000  C
  C1106    1.0000 0.81558  0.93024  0.20416  Biso   1.000  C
  C1107    1.0000 0.85976  0.03774  0.18262  Biso   1.000  C
  C1108    1.0000 0.85980  0.03774  0.18262  Biso   1.000  C
  H1126    1.0000 0.90266  0.10180  0.27103  Biso   1.000  H
  H1127    1.0000 0.90262  0.10180  0.27103  Biso   1.000  H
  N150     1.0000 0.95734  0.16547  0.41249  Biso   1.000  N
  H1128    1.0000 0.95777  0.18132  0.33885  Biso   1.000  H
  N151     1.0000 0.95732  0.16542  0.41249  Biso   1.000  N
  H1129    1.0000 0.95773  0.18132  0.33885  Biso   1.000  H
  N152     1.0000 0.95728  0.16542  0.41249  Biso   1.000  N
  C1109    1.0000 0.79136  0.84987  0.13556  Biso   1.000  C
  C1110    1.0000 0.79140  0.84987  0.13556  Biso   1.000  C
  H1130    1.0000 0.68794  0.75690  0.03766  Biso   1.000  H
  H1131    1.0000 0.74432  0.78291  0.99796  Biso   1.000  H
  H1132    1.0000 0.74436  0.78291  0.99796  Biso   1.000  H
  C1111    1.0000 0.70016  0.68612  0.00598  Biso   1.000  C
  H1133    1.0000 0.68790  0.75690  0.03766  Biso   1.000  H
  C1112    1.0000 0.70021  0.68612  0.00598  Biso   1.000  C
  H1134    1.0000 0.77611  0.70249  0.96147  Biso   1.000  H
  H1135    1.0000 0.73781  0.63280  0.98156  Biso   1.000  H
  H1136    1.0000 0.77615  0.70249  0.96147  Biso   1.000  H
  H1137    1.0000 0.73785  0.63280  0.98156  Biso   1.000  H
  H1138    1.0000 0.32144  0.99519  0.97535  Biso   1.000  H
  H1139    1.0000 0.32140  0.99519  0.97535  Biso   1.000  H
  C1113    1.0000 0.32364  0.07762  0.99147  Biso   1.000  C
  C1114    1.0000 0.32368  0.07762  0.99147  Biso   1.000  C
  H1140    1.0000 0.34389  0.01884  0.03287  Biso   1.000  H
  H1141    1.0000 0.34393  0.01884  0.03287  Biso   1.000  H
  C1115    1.0000 0.18801  0.11294  0.09054  Biso   1.000  C
  C1116    1.0000 0.18805  0.11294  0.09054  Biso   1.000  C
  H1142    1.0000 0.31251  0.14675  0.02677  Biso   1.000  H
  H1143    1.0000 0.33583  0.11365  0.06628  Biso   1.000  H
  H1144    1.0000 0.33579  0.11365  0.06628  Biso   1.000  H
  H1145    1.0000 0.31255  0.14675  0.02677  Biso   1.000  H
  N153     1.0000 0.09317  0.22562  0.40042  Biso   1.000  N
  N154     1.0000 0.09322  0.22562  0.40042  Biso   1.000  N
  H1146    1.0000 0.10955  0.17342  0.44374  Biso   1.000  H
  H1147    1.0000 0.10959  0.17342  0.44374  Biso   1.000  H
  H1148    1.0000 0.12495  0.20422  0.30724  Biso   1.000  H
  H1149    1.0000 0.12499  0.20422  0.30724  Biso   1.000  H
  C1117    1.0000 0.17796  0.14017  0.18262  Biso   1.000  C
  C1118    1.0000 0.11465  0.18442  0.20416  Biso   1.000  C
  C1119    1.0000 0.17792  0.14017  0.18262  Biso   1.000  C
  C1120    1.0000 0.11469  0.18442  0.20416  Biso   1.000  C
  C1121    1.0000 0.81356  0.91472  0.15132  Biso   1.000  C
  C1122    1.0000 0.81352  0.91472  0.15132  Biso   1.000  C
  H1150    1.0000 0.80083  0.89822  0.22897  Biso   1.000  H
  H1151    1.0000 0.80085  0.89817  0.22897  Biso   1.000  H
  H1152    1.0000 0.80081  0.89817  0.22897  Biso   1.000  H
  C1123    1.0000 0.85920  0.02481  0.12958  Biso   1.000  C
  H1153    1.0000 0.87502  0.07927  0.19276  Biso   1.000  H
  C1124    1.0000 0.85917  0.02476  0.12958  Biso   1.000  C
  H1154    1.0000 0.87500  0.07922  0.19276  Biso   1.000  H
  C1125    1.0000 0.85916  0.02481  0.12958  Biso   1.000  C
  C1126    1.0000 0.85913  0.02476  0.12958  Biso   1.000  C
  C1127    1.0000 0.00016  0.23051  0.42774  Biso   1.000  C
  H1155    1.0000 0.77642  0.81869  0.16115  Biso   1.000  H
  H1156    1.0000 0.67492  0.65607  0.03287  Biso   1.000  H
  H1157    1.0000 0.67372  0.67860  0.97535  Biso   1.000  H
  H1158    1.0000 0.67376  0.67860  0.97535  Biso   1.000  H
  H1159    1.0000 0.29752  0.07367  0.96147  Biso   1.000  H
  H1160    1.0000 0.36720  0.10504  0.98156  Biso   1.000  H
  H1161    1.0000 0.29749  0.07363  0.96147  Biso   1.000  H
  H1162    1.0000 0.29756  0.07367  0.96147  Biso   1.000  H
  H1163    1.0000 0.36724  0.10504  0.98156  Biso   1.000  H
  H1164    1.0000 0.29753  0.07363  0.96147  Biso   1.000  H
  C1128    1.0000 0.16560  0.14078  0.12958  Biso   1.000  C
  H1165    1.0000 0.17341  0.10955  0.05626  Biso   1.000  H
  H1166    1.0000 0.17345  0.10955  0.05626  Biso   1.000  H
  C1129    1.0000 0.06400  0.23991  0.44433  Biso   1.000  C
  H1167    1.0000 0.20423  0.12493  0.19276  Biso   1.000  H
  H1168    1.0000 0.20419  0.12493  0.19276  Biso   1.000  H
  C1130    1.0000 0.10114  0.18640  0.15132  Biso   1.000  C
  C1131    1.0000 0.10110  0.18640  0.15132  Biso   1.000  C
  H1169    1.0000 0.09733  0.19914  0.22897  Biso   1.000  H
  C1132    1.0000 0.83568  0.96245  0.11346  Biso   1.000  C
  C1133    1.0000 0.83565  0.96241  0.11346  Biso   1.000  C
  C1134    1.0000 0.88700  0.07504  0.09054  Biso   1.000  C
  C1135    1.0000 0.97051  0.24687  0.47370  Biso   1.000  C
  C1136    1.0000 0.97047  0.24687  0.47370  Biso   1.000  C
  H1170    1.0000 0.00586  0.25821  0.39794  Biso   1.000  H
  H1171    1.0000 0.00582  0.25821  0.39794  Biso   1.000  H
  C1137    1.0000 0.12670  0.16429  0.11346  Biso   1.000  C
  C1138    1.0000 0.12674  0.16429  0.11346  Biso   1.000  C
  H1172    1.0000 0.05797  0.21132  0.47342  Biso   1.000  H
  C1139    1.0000 0.10644  0.30721  0.46269  Biso   1.000  C
  H1173    1.0000 0.05793  0.21132  0.47342  Biso   1.000  H
  C1140    1.0000 0.10648  0.30721  0.46269  Biso   1.000  C
  C1141    1.0000 0.05844  0.20859  0.13556  Biso   1.000  C
  C1142    1.0000 0.05848  0.20859  0.13556  Biso   1.000  C
  O83      1.0000 0.83572  0.94966  0.06239  Biso   1.000  O
  O84      1.0000 0.83568  0.94966  0.06239  Biso   1.000  O
  N155     1.0000 0.90680  0.13241  0.09958  Biso   1.000  N
  H1174    1.0000 0.89044  0.06384  0.05626  Biso   1.000  H
  H1175    1.0000 0.89040  0.06384  0.05626  Biso   1.000  H
  N156     1.0000 0.90676  0.13241  0.09958  Biso   1.000  N
  H1176    1.0000 0.96145  0.21711  0.50204  Biso   1.000  H
  H1177    1.0000 0.93104  0.24311  0.46234  Biso   1.000  H
  H1178    1.0000 0.96141  0.21711  0.50204  Biso   1.000  H
  C1143    1.0000 0.01407  0.31389  0.49402  Biso   1.000  C
  O85      1.0000 0.11391  0.16429  0.06239  Biso   1.000  O
  O86      1.0000 0.11389  0.16425  0.06239  Biso   1.000  O
  O87      1.0000 0.11395  0.16429  0.06239  Biso   1.000  O
  C1144    1.0000 0.07765  0.32367  0.50853  Biso   1.000  C
  C1145    1.0000 0.07769  0.32367  0.50853  Biso   1.000  C
  H1179    1.0000 0.14677  0.31252  0.47323  Biso   1.000  H
  H1180    1.0000 0.11365  0.33580  0.43372  Biso   1.000  H
  H1181    1.0000 0.14673  0.31252  0.47323  Biso   1.000  H
  N157     1.0000 0.04264  0.20812  0.08751  Biso   1.000  N
  N158     1.0000 0.04262  0.20808  0.08751  Biso   1.000  N
  N159     1.0000 0.04268  0.20812  0.08751  Biso   1.000  N
  H1182    1.0000 0.04221  0.22355  0.16115  Biso   1.000  H
  H1183    1.0000 0.04225  0.22355  0.16115  Biso   1.000  H
  H1184    1.0000 0.82842  0.91341  0.05897  Biso   1.000  H
  H1185    1.0000 0.82846  0.91341  0.05897  Biso   1.000  H
  C1146    1.0000 0.93597  0.17591  0.05567  Biso   1.000  C
  C1147    1.0000 0.93601  0.17591  0.05567  Biso   1.000  C
  H1186    1.0000 0.99511  0.32141  0.52465  Biso   1.000  H
  H1187    1.0000 0.99515  0.32141  0.52465  Biso   1.000  H
  H1188    1.0000 0.01888  0.34394  0.46713  Biso   1.000  H
  H1189    1.0000 0.01884  0.34394  0.46713  Biso   1.000  H
  H1190    1.0000 0.08491  0.17154  0.05897  Biso   1.000  H
  H1191    1.0000 0.08495  0.17154  0.05897  Biso   1.000  H
  H1192    1.0000 0.07366  0.29752  0.53853  Biso   1.000  H
  H1193    1.0000 0.10504  0.36722  0.51844  Biso   1.000  H
  H1194    1.0000 0.10508  0.36722  0.51844  Biso   1.000  H
  C1148    1.0000 0.99982  0.23032  0.07226  Biso   1.000  C
  C1149    1.0000 0.99978  0.23032  0.07226  Biso   1.000  C
  H1195    1.0000 0.94199  0.15334  0.02658  Biso   1.000  H
  C1150    1.0000 0.89352  0.20074  0.03731  Biso   1.000  C
  C1151    1.0000 0.89348  0.20074  0.03731  Biso   1.000  C
  H1196    1.0000 0.99411  0.25238  0.10206  Biso   1.000  H
  H1197    1.0000 0.99409  0.25233  0.10206  Biso   1.000  H
  C1152    1.0000 0.02948  0.27636  0.02630  Biso   1.000  C
  C1153    1.0000 0.92236  0.24603  0.99147  Biso   1.000  C
  C1154    1.0000 0.92233  0.24598  0.99147  Biso   1.000  C
  C1155    1.0000 0.92232  0.24603  0.99147  Biso   1.000  C
  C1156    1.0000 0.92229  0.24598  0.99147  Biso   1.000  C
  H1198    1.0000 0.85322  0.16575  0.02677  Biso   1.000  H
  H1199    1.0000 0.88626  0.22214  0.06628  Biso   1.000  H
  H1200    1.0000 0.88630  0.22214  0.06628  Biso   1.000  H
  H1201    1.0000 0.85318  0.16575  0.02677  Biso   1.000  H
  C1157    1.0000 0.98591  0.29983  0.00598  Biso   1.000  C
  C1158    1.0000 0.98588  0.29978  0.00598  Biso   1.000  C
  C1159    1.0000 0.98587  0.29983  0.00598  Biso   1.000  C
  C1160    1.0000 0.98584  0.29978  0.00598  Biso   1.000  C
  H1202    1.0000 0.03852  0.25567  0.99796  Biso   1.000  H
  H1203    1.0000 0.03856  0.25567  0.99796  Biso   1.000  H
  H1204    1.0000 0.06891  0.31205  0.03766  Biso   1.000  H
  H1205    1.0000 0.06895  0.31205  0.03766  Biso   1.000  H
  H1206    1.0000 0.92633  0.22383  0.96147  Biso   1.000  H
  H1207    1.0000 0.89491  0.26216  0.98156  Biso   1.000  H
  H1208    1.0000 0.92629  0.22383  0.96147  Biso   1.000  H
  H1209    1.0000 0.98112  0.32503  0.03287  Biso   1.000  H
  H1210    1.0000 0.98108  0.32503  0.03287  Biso   1.000  H
  H1211    1.0000 0.00482  0.32625  0.97535  Biso   1.000  H
  H1212    1.0000 0.00486  0.32625  0.97535  Biso   1.000  H
  O88      1.0000 0.94959  0.83572  0.43761  Biso   1.000  O
  C1161    1.0000 0.96237  0.83572  0.38654  Biso   1.000  C
  C1162    1.0000 0.96239  0.83567  0.38654  Biso   1.000  C
  C1163    1.0000 0.96241  0.83572  0.38654  Biso   1.000  C
  H1213    1.0000 0.91334  0.82847  0.44103  Biso   1.000  H
  H1214    1.0000 0.91336  0.82843  0.44103  Biso   1.000  H
  H1215    1.0000 0.91339  0.82847  0.44103  Biso   1.000  H
  H1216    1.0000 0.91332  0.82843  0.44103  Biso   1.000  H
  C1164    1.0000 0.91471  0.81361  0.34868  Biso   1.000  C
  C1165    1.0000 0.91469  0.81357  0.34868  Biso   1.000  C
  O89      1.0000 0.94963  0.83572  0.43761  Biso   1.000  O
  C1166    1.0000 0.02483  0.85923  0.37042  Biso   1.000  C
  C1167    1.0000 0.02481  0.85918  0.37042  Biso   1.000  C
  C1168    1.0000 0.02479  0.85923  0.37042  Biso   1.000  C
  C1169    1.0000 0.84982  0.79142  0.36444  Biso   1.000  C
  C1170    1.0000 0.84986  0.79142  0.36444  Biso   1.000  C
  C1171    1.0000 0.93020  0.81559  0.29584  Biso   1.000  C
  C1172    1.0000 0.93024  0.81559  0.29584  Biso   1.000  C
  C1173    1.0000 0.03780  0.85984  0.31738  Biso   1.000  C
  C1174    1.0000 0.07508  0.88707  0.40946  Biso   1.000  C
  C1175    1.0000 0.03776  0.85984  0.31738  Biso   1.000  C
  C1176    1.0000 0.07512  0.88707  0.40946  Biso   1.000  C
  N160     1.0000 0.83449  0.79189  0.41249  Biso   1.000  N
  N161     1.0000 0.83453  0.79189  0.41249  Biso   1.000  N
  H1217    1.0000 0.81864  0.77646  0.33885  Biso   1.000  H
  H1218    1.0000 0.81868  0.77646  0.33885  Biso   1.000  H
  C1177    1.0000 0.99167  0.83868  0.27846  Biso   1.000  C
  H1219    1.0000 0.89816  0.80087  0.27103  Biso   1.000  H
  C1178    1.0000 0.99169  0.83863  0.27846  Biso   1.000  C
  H1220    1.0000 0.89820  0.80087  0.27103  Biso   1.000  H
  C1179    1.0000 0.99171  0.83868  0.27846  Biso   1.000  C
  C1180    1.0000 0.99165  0.83863  0.27846  Biso   1.000  C
  H1221    1.0000 0.07930  0.87508  0.30724  Biso   1.000  H
  H1222    1.0000 0.07924  0.87503  0.30724  Biso   1.000  H
  H1223    1.0000 0.07926  0.87508  0.30724  Biso   1.000  H
  H1224    1.0000 0.07928  0.87503  0.30724  Biso   1.000  H
  N162     1.0000 0.13244  0.90682  0.40042  Biso   1.000  N
  H1225    1.0000 0.06386  0.89046  0.44374  Biso   1.000  H
  N163     1.0000 0.13240  0.90682  0.40042  Biso   1.000  N
  H1226    1.0000 0.06390  0.89046  0.44374  Biso   1.000  H
  C1181    1.0000 0.76948  0.76969  0.42774  Biso   1.000  C
  C1182    1.0000 0.76949  0.76964  0.42774  Biso   1.000  C
  C1183    1.0000 0.76952  0.76969  0.42774  Biso   1.000  C
  C1184    1.0000 0.76945  0.76964  0.42774  Biso   1.000  C
  C1185    1.0000 0.00831  0.84696  0.22154  Biso   1.000  C
  C1186    1.0000 0.17591  0.93603  0.44433  Biso   1.000  C
  C1187    1.0000 0.76007  0.82410  0.44433  Biso   1.000  C
  C1188    1.0000 0.76011  0.82410  0.44433  Biso   1.000  C
  H1227    1.0000 0.74175  0.74763  0.39794  Biso   1.000  H
  C1189    1.0000 0.75310  0.72365  0.47370  Biso   1.000  C
  C1190    1.0000 0.75314  0.72365  0.47370  Biso   1.000  C
  C1191    1.0000 0.96223  0.82208  0.18262  Biso   1.000  C
  C1192    1.0000 0.96221  0.82203  0.18262  Biso   1.000  C
  C1193    1.0000 0.06979  0.88538  0.20416  Biso   1.000  C
  H1228    1.0000 0.15339  0.94204  0.47342  Biso   1.000  H
  C1194    1.0000 0.20078  0.89356  0.46269  Biso   1.000  C
  C1195    1.0000 0.23037  0.99989  0.42774  Biso   1.000  C
  H1229    1.0000 0.15335  0.94204  0.47342  Biso   1.000  H
  C1196    1.0000 0.23034  0.99984  0.42774  Biso   1.000  C
  C1197    1.0000 0.20074  0.89356  0.46269  Biso   1.000  C
  C1198    1.0000 0.69276  0.79927  0.46269  Biso   1.000  C
  H1230    1.0000 0.78866  0.84667  0.47342  Biso   1.000  H
  N164     1.0000 0.77437  0.86760  0.40042  Biso   1.000  N
  N165     1.0000 0.77441  0.86760  0.40042  Biso   1.000  N
  C1199    1.0000 0.68606  0.70018  0.49402  Biso   1.000  C
  C1200    1.0000 0.68610  0.70018  0.49402  Biso   1.000  C
  H1231    1.0000 0.78283  0.74434  0.50204  Biso   1.000  H
  H1232    1.0000 0.75683  0.68796  0.46234  Biso   1.000  H
  H1233    1.0000 0.78287  0.74434  0.50204  Biso   1.000  H
  H1234    1.0000 0.75687  0.68796  0.46234  Biso   1.000  H
  C1201    1.0000 0.97515  0.83440  0.12958  Biso   1.000  C
  H1235    1.0000 0.92071  0.79579  0.19276  Biso   1.000  H
  C1202    1.0000 0.97520  0.83440  0.12958  Biso   1.000  C
  H1236    1.0000 0.92075  0.79579  0.19276  Biso   1.000  H
  C1203    1.0000 0.08530  0.89887  0.15132  Biso   1.000  C
  H1237    1.0000 0.10182  0.90268  0.22897  Biso   1.000  H
  C1204    1.0000 0.08526  0.89887  0.15132  Biso   1.000  C
  H1238    1.0000 0.10186  0.90268  0.22897  Biso   1.000  H
  H1239    1.0000 0.16577  0.85326  0.47323  Biso   1.000  H
  H1240    1.0000 0.22219  0.88636  0.43372  Biso   1.000  H
  C1205    1.0000 0.24603  0.92239  0.50853  Biso   1.000  C
  H1241    1.0000 0.22215  0.88636  0.43372  Biso   1.000  H
  C1206    1.0000 0.24600  0.92234  0.50853  Biso   1.000  C
  H1242    1.0000 0.25238  0.99415  0.39794  Biso   1.000  H
  H1243    1.0000 0.25234  0.99415  0.39794  Biso   1.000  H
  N166     1.0000 0.20812  0.04264  0.41249  Biso   1.000  N
  C1207    1.0000 0.27635  0.02947  0.47370  Biso   1.000  C
  N167     1.0000 0.20808  0.04264  0.41249  Biso   1.000  N
  C1208    1.0000 0.27639  0.02947  0.47370  Biso   1.000  C
  H1244    1.0000 0.68744  0.83426  0.47323  Biso   1.000  H
  H1245    1.0000 0.66414  0.77787  0.43372  Biso   1.000  H
  C1209    1.0000 0.67630  0.75398  0.50853  Biso   1.000  C
  H1246    1.0000 0.68748  0.83426  0.47323  Biso   1.000  H
  H1247    1.0000 0.66416  0.77783  0.43372  Biso   1.000  H
  C1210    1.0000 0.67635  0.75398  0.50853  Biso   1.000  C
  H1248    1.0000 0.66418  0.77787  0.43372  Biso   1.000  H
  C1211    1.0000 0.81193  0.92497  0.40946  Biso   1.000  C
  C1212    1.0000 0.81195  0.92493  0.40946  Biso   1.000  C
  C1213    1.0000 0.81197  0.92497  0.40946  Biso   1.000  C
  H1249    1.0000 0.65607  0.67498  0.46713  Biso   1.000  H
  H1250    1.0000 0.67855  0.67376  0.52465  Biso   1.000  H
  H1251    1.0000 0.65608  0.67493  0.46713  Biso   1.000  H
  H1252    1.0000 0.67859  0.67376  0.52465  Biso   1.000  H
  H1253    1.0000 0.65604  0.67493  0.46713  Biso   1.000  H
  C1214    1.0000 0.92488  0.81197  0.09054  Biso   1.000  C
  C1215    1.0000 0.92492  0.81197  0.09054  Biso   1.000  C
  C1216    1.0000 0.03761  0.87329  0.11346  Biso   1.000  C
  C1217    1.0000 0.15018  0.94157  0.13556  Biso   1.000  C
  C1218    1.0000 0.15014  0.94157  0.13556  Biso   1.000  C
  H1254    1.0000 0.22385  0.92634  0.53853  Biso   1.000  H
  H1255    1.0000 0.26217  0.89497  0.51844  Biso   1.000  H
  C1219    1.0000 0.29982  0.98592  0.49402  Biso   1.000  C
  C1220    1.0000 0.29978  0.98592  0.49402  Biso   1.000  C
  H1256    1.0000 0.22389  0.92634  0.53853  Biso   1.000  H
  H1257    1.0000 0.26221  0.89497  0.51844  Biso   1.000  H
  C1221    1.0000 0.20861  0.05844  0.36444  Biso   1.000  C
  C1222    1.0000 0.20857  0.05844  0.36444  Biso   1.000  C
  H1258    1.0000 0.25566  0.03850  0.50204  Biso   1.000  H
  H1259    1.0000 0.31204  0.06892  0.46234  Biso   1.000  H
  H1260    1.0000 0.25561  0.03850  0.50204  Biso   1.000  H
  H1261    1.0000 0.31208  0.06892  0.46234  Biso   1.000  H
  H1262    1.0000 0.70247  0.77618  0.53853  Biso   1.000  H
  H1263    1.0000 0.63273  0.73785  0.51844  Biso   1.000  H
  H1264    1.0000 0.70245  0.77613  0.53853  Biso   1.000  H
  H1265    1.0000 0.63277  0.73785  0.51844  Biso   1.000  H
  H1266    1.0000 0.82657  0.93617  0.44374  Biso   1.000  H
  C1223    1.0000 0.83435  0.97520  0.37042  Biso   1.000  C
  C1224    1.0000 0.83439  0.97520  0.37042  Biso   1.000  C
  N168     1.0000 0.86753  0.77439  0.09958  Biso   1.000  N
  H1267    1.0000 0.93611  0.82659  0.05626  Biso   1.000  H
  N169     1.0000 0.86757  0.77439  0.09958  Biso   1.000  N
  H1268    1.0000 0.93615  0.82659  0.05626  Biso   1.000  H
  O90      1.0000 0.05038  0.88613  0.06239  Biso   1.000  O
  O91      1.0000 0.05035  0.88608  0.06239  Biso   1.000  O
  O92      1.0000 0.05039  0.88608  0.06239  Biso   1.000  O
  N170     1.0000 0.16549  0.95738  0.08751  Biso   1.000  N
  H1269    1.0000 0.18134  0.95780  0.16115  Biso   1.000  H
  N171     1.0000 0.16545  0.95738  0.08751  Biso   1.000  N
  H1270    1.0000 0.32506  0.98117  0.46713  Biso   1.000  H
  H1271    1.0000 0.32510  0.98117  0.46713  Biso   1.000  H
  H1272    1.0000 0.32626  0.00483  0.52465  Biso   1.000  H
  H1273    1.0000 0.32622  0.00483  0.52465  Biso   1.000  H
  C1225    1.0000 0.18642  0.10114  0.34868  Biso   1.000  C
  H1274    1.0000 0.22355  0.04221  0.33885  Biso   1.000  H
  H1275    1.0000 0.22359  0.04221  0.33885  Biso   1.000  H
  C1226    1.0000 0.82202  0.96227  0.31738  Biso   1.000  C
  C1227    1.0000 0.82206  0.96227  0.31738  Biso   1.000  C
  C1228    1.0000 0.87327  0.03756  0.38654  Biso   1.000  C
  C1229    1.0000 0.87323  0.03756  0.38654  Biso   1.000  C
  C1230    1.0000 0.82406  0.76010  0.05567  Biso   1.000  C
  C1231    1.0000 0.82410  0.76010  0.05567  Biso   1.000  C
  H1276    1.0000 0.08665  0.91510  0.05897  Biso   1.000  H
  H1277    1.0000 0.08661  0.91510  0.05897  Biso   1.000  H
  C1232    1.0000 0.23048  0.00012  0.07226  Biso   1.000  C
  C1233    1.0000 0.23052  0.00012  0.07226  Biso   1.000  C
  C1234    1.0000 0.16431  0.12672  0.38654  Biso   1.000  C
  C1235    1.0000 0.18442  0.11463  0.29584  Biso   1.000  C
  C1236    1.0000 0.18446  0.11463  0.29584  Biso   1.000  C
  H1278    1.0000 0.79572  0.92074  0.30724  Biso   1.000  H
  H1279    1.0000 0.79576  0.92074  0.30724  Biso   1.000  H
  C1237    1.0000 0.84695  0.00831  0.27846  Biso   1.000  C
  C1238    1.0000 0.84691  0.00831  0.27846  Biso   1.000  C
  O93      1.0000 0.88606  0.05035  0.43761  Biso   1.000  O
  C1239    1.0000 0.89884  0.08529  0.34868  Biso   1.000  C
  C1240    1.0000 0.89882  0.08524  0.34868  Biso   1.000  C
  C1241    1.0000 0.76963  0.76950  0.07226  Biso   1.000  C
  C1242    1.0000 0.76967  0.76950  0.07226  Biso   1.000  C
  H1280    1.0000 0.84662  0.78869  0.02658  Biso   1.000  H
  C1243    1.0000 0.79921  0.69280  0.03731  Biso   1.000  C
  H1281    1.0000 0.84666  0.78869  0.02658  Biso   1.000  H
  C1244    1.0000 0.79922  0.69275  0.03731  Biso   1.000  C
  C1245    1.0000 0.79925  0.69280  0.03731  Biso   1.000  C
  C1246    1.0000 0.24689  0.97054  0.02630  Biso   1.000  C
  C1247    1.0000 0.24693  0.97054  0.02630  Biso   1.000  C
  H1282    1.0000 0.25823  0.00586  0.10206  Biso   1.000  H
  C1248    1.0000 0.23989  0.06399  0.05567  Biso   1.000  C
  C1249    1.0000 0.23993  0.06399  0.05567  Biso   1.000  C
  C1250    1.0000 0.14079  0.16561  0.37042  Biso   1.000  C
  C1251    1.0000 0.14084  0.16561  0.37042  Biso   1.000  C
  O94      1.0000 0.16425  0.11388  0.43761  Biso   1.000  O
  O95      1.0000 0.16429  0.11388  0.43761  Biso   1.000  O
  C1252    1.0000 0.16135  0.15305  0.27846  Biso   1.000  C
  C1253    1.0000 0.16133  0.15301  0.27846  Biso   1.000  C
  C1254    1.0000 0.16139  0.15305  0.27846  Biso   1.000  C
  H1283    1.0000 0.19914  0.09733  0.27103  Biso   1.000  H
  H1284    1.0000 0.19918  0.09733  0.27103  Biso   1.000  H
  C1255    1.0000 0.83861  0.99171  0.22154  Biso   1.000  C
  C1256    1.0000 0.83865  0.99171  0.22154  Biso   1.000  C
  C1257    1.0000 0.88534  0.06977  0.29584  Biso   1.000  C
  C1258    1.0000 0.88530  0.06977  0.29584  Biso   1.000  C
  H1285    1.0000 0.91506  0.08661  0.44103  Biso   1.000  H
  H1286    1.0000 0.91502  0.08661  0.44103  Biso   1.000  H
  C1259    1.0000 0.94153  0.15014  0.36444  Biso   1.000  C
  C1260    1.0000 0.94149  0.15014  0.36444  Biso   1.000  C
  N172     1.0000 0.79184  0.83454  0.08751  Biso   1.000  N
  N173     1.0000 0.79188  0.83454  0.08751  Biso   1.000  N
  H1287    1.0000 0.74763  0.74180  0.10206  Biso   1.000  H
  C1261    1.0000 0.72361  0.75314  0.02630  Biso   1.000  C
  C1262    1.0000 0.72365  0.75314  0.02630  Biso   1.000  C
  H1288    1.0000 0.83422  0.68749  0.02677  Biso   1.000  H
  C1263    1.0000 0.75396  0.67634  0.99147  Biso   1.000  C
  C1264    1.0000 0.75400  0.67634  0.99147  Biso   1.000  C
  H1289    1.0000 0.77783  0.66421  0.06628  Biso   1.000  H
  H1290    1.0000 0.77784  0.66416  0.06628  Biso   1.000  H
  H1291    1.0000 0.77780  0.66416  0.06628  Biso   1.000  H
  H1292    1.0000 0.21717  0.96151  0.99796  Biso   1.000  H
  H1293    1.0000 0.21710  0.96147  0.99796  Biso   1.000  H
  H1294    1.0000 0.21712  0.96151  0.99796  Biso   1.000  H
  H1295    1.0000 0.21714  0.96147  0.99796  Biso   1.000  H
  H1296    1.0000 0.24313  0.93109  0.03766  Biso   1.000  H
  H1297    1.0000 0.24317  0.93109  0.03766  Biso   1.000  H
  C1265    1.0000 0.31391  0.01409  0.00598  Biso   1.000  C
  N174     1.0000 0.22562  0.09319  0.09958  Biso   1.000  N
  H1298    1.0000 0.21135  0.05797  0.02658  Biso   1.000  H
  C1266    1.0000 0.30722  0.10645  0.03731  Biso   1.000  C
  H1299    1.0000 0.21128  0.05792  0.02658  Biso   1.000  H
  H1300    1.0000 0.21132  0.05792  0.02658  Biso   1.000  H
  C1267    1.0000 0.11295  0.18804  0.40946  Biso   1.000  C
  C1268    1.0000 0.11300  0.18804  0.40946  Biso   1.000  C
  C1269    1.0000 0.14019  0.17793  0.31738  Biso   1.000  C
  C1270    1.0000 0.14015  0.17793  0.31738  Biso   1.000  C
  H1301    1.0000 0.17155  0.08491  0.44103  Biso   1.000  H
  C1271    1.0000 0.15303  0.16133  0.22154  Biso   1.000  C
  C1272    1.0000 0.15307  0.16133  0.22154  Biso   1.000  C
  C1273    1.0000 0.81554  0.93024  0.20416  Biso   1.000  C
  C1274    1.0000 0.81558  0.93024  0.20416  Biso   1.000  C
  C1275    1.0000 0.85976  0.03774  0.18262  Biso   1.000  C
  C1276    1.0000 0.85980  0.03774  0.18262  Biso   1.000  C
  H1302    1.0000 0.90266  0.10180  0.27103  Biso   1.000  H
  H1303    1.0000 0.90262  0.10180  0.27103  Biso   1.000  H
  N175     1.0000 0.95734  0.16547  0.41249  Biso   1.000  N
  H1304    1.0000 0.95777  0.18132  0.33885  Biso   1.000  H
  N176     1.0000 0.95732  0.16542  0.41249  Biso   1.000  N
  H1305    1.0000 0.95773  0.18132  0.33885  Biso   1.000  H
  N177     1.0000 0.95728  0.16542  0.41249  Biso   1.000  N
  C1277    1.0000 0.79136  0.84987  0.13556  Biso   1.000  C
  C1278    1.0000 0.79140  0.84987  0.13556  Biso   1.000  C
  H1306    1.0000 0.74432  0.78291  0.99796  Biso   1.000  H
  H1307    1.0000 0.74436  0.78291  0.99796  Biso   1.000  H
  C1279    1.0000 0.70016  0.68612  0.00598  Biso   1.000  C
  H1308    1.0000 0.68790  0.75690  0.03766  Biso   1.000  H
  C1280    1.0000 0.70021  0.68612  0.00598  Biso   1.000  C
  H1309    1.0000 0.68794  0.75690  0.03766  Biso   1.000  H
  H1310    1.0000 0.77611  0.70249  0.96147  Biso   1.000  H
  H1311    1.0000 0.73781  0.63280  0.98156  Biso   1.000  H
  H1312    1.0000 0.77615  0.70249  0.96147  Biso   1.000  H
  H1313    1.0000 0.73785  0.63280  0.98156  Biso   1.000  H
  H1314    1.0000 0.32144  0.99519  0.97535  Biso   1.000  H
  H1315    1.0000 0.32140  0.99519  0.97535  Biso   1.000  H
  C1281    1.0000 0.32364  0.07762  0.99147  Biso   1.000  C
  C1282    1.0000 0.32368  0.07762  0.99147  Biso   1.000  C
  H1316    1.0000 0.34389  0.01884  0.03287  Biso   1.000  H
  H1317    1.0000 0.34393  0.01884  0.03287  Biso   1.000  H
  C1283    1.0000 0.18801  0.11294  0.09054  Biso   1.000  C
  C1284    1.0000 0.18805  0.11294  0.09054  Biso   1.000  C
  H1318    1.0000 0.31251  0.14675  0.02677  Biso   1.000  H
  H1319    1.0000 0.33583  0.11365  0.06628  Biso   1.000  H
  H1320    1.0000 0.33579  0.11365  0.06628  Biso   1.000  H
  H1321    1.0000 0.31255  0.14675  0.02677  Biso   1.000  H
  N178     1.0000 0.09317  0.22562  0.40042  Biso   1.000  N
  N179     1.0000 0.09322  0.22562  0.40042  Biso   1.000  N
  H1322    1.0000 0.10955  0.17342  0.44374  Biso   1.000  H
  H1323    1.0000 0.10959  0.17342  0.44374  Biso   1.000  H
  H1324    1.0000 0.12495  0.20422  0.30724  Biso   1.000  H
  H1325    1.0000 0.12499  0.20422  0.30724  Biso   1.000  H
  C1285    1.0000 0.11465  0.18442  0.20416  Biso   1.000  C
  C1286    1.0000 0.11469  0.18442  0.20416  Biso   1.000  C
  C1287    1.0000 0.17796  0.14017  0.18262  Biso   1.000  C
  C1288    1.0000 0.17792  0.14017  0.18262  Biso   1.000  C
  C1289    1.0000 0.81352  0.91472  0.15132  Biso   1.000  C
  H1326    1.0000 0.80083  0.89822  0.22897  Biso   1.000  H
  C1290    1.0000 0.81356  0.91472  0.15132  Biso   1.000  C
  H1327    1.0000 0.80085  0.89817  0.22897  Biso   1.000  H
  H1328    1.0000 0.80081  0.89817  0.22897  Biso   1.000  H
  C1291    1.0000 0.85920  0.02481  0.12958  Biso   1.000  C
  H1329    1.0000 0.87502  0.07927  0.19276  Biso   1.000  H
  C1292    1.0000 0.85917  0.02476  0.12958  Biso   1.000  C
  H1330    1.0000 0.87500  0.07922  0.19276  Biso   1.000  H
  C1293    1.0000 0.85916  0.02481  0.12958  Biso   1.000  C
  C1294    1.0000 0.85913  0.02476  0.12958  Biso   1.000  C
  C1295    1.0000 0.00016  0.23051  0.42774  Biso   1.000  C
  H1331    1.0000 0.77642  0.81869  0.16115  Biso   1.000  H
  H1332    1.0000 0.67492  0.65607  0.03287  Biso   1.000  H
  H1333    1.0000 0.67372  0.67860  0.97535  Biso   1.000  H
  H1334    1.0000 0.67376  0.67860  0.97535  Biso   1.000  H
  H1335    1.0000 0.29752  0.07367  0.96147  Biso   1.000  H
  H1336    1.0000 0.36720  0.10504  0.98156  Biso   1.000  H
  H1337    1.0000 0.29749  0.07363  0.96147  Biso   1.000  H
  H1338    1.0000 0.29756  0.07367  0.96147  Biso   1.000  H
  H1339    1.0000 0.36724  0.10504  0.98156  Biso   1.000  H
  H1340    1.0000 0.29753  0.07363  0.96147  Biso   1.000  H
  C1296    1.0000 0.16560  0.14078  0.12958  Biso   1.000  C
  H1341    1.0000 0.17341  0.10955  0.05626  Biso   1.000  H
  H1342    1.0000 0.17345  0.10955  0.05626  Biso   1.000  H
  C1297    1.0000 0.06400  0.23991  0.44433  Biso   1.000  C
  C1298    1.0000 0.10114  0.18640  0.15132  Biso   1.000  C
  C1299    1.0000 0.10110  0.18640  0.15132  Biso   1.000  C
  H1343    1.0000 0.09733  0.19914  0.22897  Biso   1.000  H
  H1344    1.0000 0.20423  0.12493  0.19276  Biso   1.000  H
  H1345    1.0000 0.20419  0.12493  0.19276  Biso   1.000  H
  C1300    1.0000 0.83568  0.96245  0.11346  Biso   1.000  C
  C1301    1.0000 0.83565  0.96241  0.11346  Biso   1.000  C
  C1302    1.0000 0.88700  0.07504  0.09054  Biso   1.000  C
  C1303    1.0000 0.97051  0.24687  0.47370  Biso   1.000  C
  C1304    1.0000 0.97047  0.24687  0.47370  Biso   1.000  C
  H1346    1.0000 0.00586  0.25821  0.39794  Biso   1.000  H
  H1347    1.0000 0.00582  0.25821  0.39794  Biso   1.000  H
  C1305    1.0000 0.12670  0.16429  0.11346  Biso   1.000  C
  C1306    1.0000 0.12674  0.16429  0.11346  Biso   1.000  C
  H1348    1.0000 0.05797  0.21132  0.47342  Biso   1.000  H
  C1307    1.0000 0.10644  0.30721  0.46269  Biso   1.000  C
  H1349    1.0000 0.05793  0.21132  0.47342  Biso   1.000  H
  C1308    1.0000 0.10648  0.30721  0.46269  Biso   1.000  C
  C1309    1.0000 0.05844  0.20859  0.13556  Biso   1.000  C
  C1310    1.0000 0.05848  0.20859  0.13556  Biso   1.000  C
  O96      1.0000 0.83568  0.94966  0.06239  Biso   1.000  O
  O97      1.0000 0.83572  0.94966  0.06239  Biso   1.000  O
  N180     1.0000 0.90680  0.13241  0.09958  Biso   1.000  N
  H1350    1.0000 0.89044  0.06384  0.05626  Biso   1.000  H
  H1351    1.0000 0.89040  0.06384  0.05626  Biso   1.000  H
  N181     1.0000 0.90676  0.13241  0.09958  Biso   1.000  N
  H1352    1.0000 0.96145  0.21711  0.50204  Biso   1.000  H
  H1353    1.0000 0.93104  0.24311  0.46234  Biso   1.000  H
  H1354    1.0000 0.96141  0.21711  0.50204  Biso   1.000  H
  C1311    1.0000 0.01407  0.31389  0.49402  Biso   1.000  C
  O98      1.0000 0.11391  0.16429  0.06239  Biso   1.000  O
  O99      1.0000 0.11389  0.16425  0.06239  Biso   1.000  O
  O100     1.0000 0.11395  0.16429  0.06239  Biso   1.000  O
  C1312    1.0000 0.07765  0.32367  0.50853  Biso   1.000  C
  C1313    1.0000 0.07769  0.32367  0.50853  Biso   1.000  C
  H1355    1.0000 0.14677  0.31252  0.47323  Biso   1.000  H
  H1356    1.0000 0.11365  0.33580  0.43372  Biso   1.000  H
  H1357    1.0000 0.14673  0.31252  0.47323  Biso   1.000  H
  N182     1.0000 0.04264  0.20812  0.08751  Biso   1.000  N
  N183     1.0000 0.04262  0.20808  0.08751  Biso   1.000  N
  N184     1.0000 0.04268  0.20812  0.08751  Biso   1.000  N
  H1358    1.0000 0.04221  0.22355  0.16115  Biso   1.000  H
  H1359    1.0000 0.04225  0.22355  0.16115  Biso   1.000  H
  H1360    1.0000 0.82842  0.91341  0.05897  Biso   1.000  H
  H1361    1.0000 0.82846  0.91341  0.05897  Biso   1.000  H
  C1314    1.0000 0.93597  0.17591  0.05567  Biso   1.000  C
  C1315    1.0000 0.93601  0.17591  0.05567  Biso   1.000  C
  H1362    1.0000 0.99511  0.32141  0.52465  Biso   1.000  H
  H1363    1.0000 0.99515  0.32141  0.52465  Biso   1.000  H
  H1364    1.0000 0.01888  0.34394  0.46713  Biso   1.000  H
  H1365    1.0000 0.01884  0.34394  0.46713  Biso   1.000  H
  H1366    1.0000 0.08491  0.17154  0.05897  Biso   1.000  H
  H1367    1.0000 0.08495  0.17154  0.05897  Biso   1.000  H
  H1368    1.0000 0.07366  0.29752  0.53853  Biso   1.000  H
  H1369    1.0000 0.10504  0.36722  0.51844  Biso   1.000  H
  H1370    1.0000 0.10508  0.36722  0.51844  Biso   1.000  H
  C1316    1.0000 0.99982  0.23032  0.07226  Biso   1.000  C
  C1317    1.0000 0.99978  0.23032  0.07226  Biso   1.000  C
  H1371    1.0000 0.94199  0.15334  0.02658  Biso   1.000  H
  C1318    1.0000 0.89352  0.20074  0.03731  Biso   1.000  C
  C1319    1.0000 0.89348  0.20074  0.03731  Biso   1.000  C
  H1372    1.0000 0.99411  0.25238  0.10206  Biso   1.000  H
  H1373    1.0000 0.99409  0.25233  0.10206  Biso   1.000  H
  C1320    1.0000 0.02948  0.27636  0.02630  Biso   1.000  C
  C1321    1.0000 0.92236  0.24603  0.99147  Biso   1.000  C
  C1322    1.0000 0.92233  0.24598  0.99147  Biso   1.000  C
  C1323    1.0000 0.92232  0.24603  0.99147  Biso   1.000  C
  C1324    1.0000 0.92229  0.24598  0.99147  Biso   1.000  C
  H1374    1.0000 0.85322  0.16575  0.02677  Biso   1.000  H
  H1375    1.0000 0.88626  0.22214  0.06628  Biso   1.000  H
  H1376    1.0000 0.88630  0.22214  0.06628  Biso   1.000  H
  H1377    1.0000 0.85318  0.16575  0.02677  Biso   1.000  H
  C1325    1.0000 0.98591  0.29983  0.00598  Biso   1.000  C
  C1326    1.0000 0.98588  0.29978  0.00598  Biso   1.000  C
  C1327    1.0000 0.98587  0.29983  0.00598  Biso   1.000  C
  C1328    1.0000 0.98584  0.29978  0.00598  Biso   1.000  C
  H1378    1.0000 0.03852  0.25567  0.99796  Biso   1.000  H
  H1379    1.0000 0.03856  0.25567  0.99796  Biso   1.000  H
  H1380    1.0000 0.06891  0.31205  0.03766  Biso   1.000  H
  H1381    1.0000 0.06895  0.31205  0.03766  Biso   1.000  H
  H1382    1.0000 0.92633  0.22383  0.96147  Biso   1.000  H
  H1383    1.0000 0.89491  0.26216  0.98156  Biso   1.000  H
  H1384    1.0000 0.92629  0.22383  0.96147  Biso   1.000  H
  H1385    1.0000 0.98112  0.32503  0.03287  Biso   1.000  H
  H1386    1.0000 0.98108  0.32503  0.03287  Biso   1.000  H
  H1387    1.0000 0.00482  0.32625  0.97535  Biso   1.000  H
  H1388    1.0000 0.00486  0.32625  0.97535  Biso   1.000  H
  C1329    1.0000 0.65699  0.74434  0.65816  Biso   1.000  C
  C1330    1.0000 0.64723  0.68076  0.67263  Biso   1.000  C
  C1331    1.0000 0.64057  0.77317  0.70400  Biso   1.000  C
  H1389    1.0000 0.63084  0.74035  0.62813  Biso   1.000  H
  H1390    1.0000 0.70055  0.77176  0.64822  Biso   1.000  H
  C1332    1.0000 0.58021  0.63722  0.69299  Biso   1.000  C
  H1391    1.0000 0.67724  0.68556  0.69952  Biso   1.000  H
  H1392    1.0000 0.65476  0.66186  0.64204  Biso   1.000  H
  C1333    1.0000 0.57321  0.73066  0.72232  Biso   1.000  C
  H1393    1.0000 0.64586  0.81347  0.69343  Biso   1.000  H
  H1394    1.0000 0.66917  0.78037  0.73294  Biso   1.000  H
  C1334    1.0000 0.56383  0.66684  0.73895  Biso   1.000  C
  H1395    1.0000 0.55046  0.62814  0.66465  Biso   1.000  H
  H1396    1.0000 0.57645  0.59776  0.70432  Biso   1.000  H
  N185     1.0000 0.55894  0.75986  0.76628  Biso   1.000  N
  H1397    1.0000 0.54467  0.72464  0.69323  Biso   1.000  H
  N186     1.0000 0.49882  0.62405  0.75417  Biso   1.000  N
  H1398    1.0000 0.59156  0.67253  0.76875  Biso   1.000  H
  C1335    1.0000 0.52136  0.77966  0.75719  Biso   1.000  C
  C1336    1.0000 0.48348  0.60820  0.80221  Biso   1.000  C
  C1337    1.0000 0.49895  0.80750  0.79623  Biso   1.000  C
  H1399    1.0000 0.50673  0.77623  0.72295  Biso   1.000  H
  C1338    1.0000 0.41862  0.56555  0.81797  Biso   1.000  C
  H1400    1.0000 0.51464  0.62442  0.82784  Biso   1.000  H
  C1339    1.0000 0.46004  0.83101  0.78011  Biso   1.000  C
  C1340    1.0000 0.51131  0.80689  0.84931  Biso   1.000  C
  C1341    1.0000 0.37093  0.53996  0.78011  Biso   1.000  C
  C1342    1.0000 0.40309  0.55200  0.87085  Biso   1.000  C
  C1343    1.0000 0.43448  0.85312  0.81797  Biso   1.000  C
  O101     1.0000 0.44723  0.83097  0.72905  Biso   1.000  O
  H1401    1.0000 0.53757  0.79165  0.85945  Biso   1.000  H
  C1344    1.0000 0.48638  0.82805  0.88823  Biso   1.000  C
  C1345    1.0000 0.30852  0.50107  0.79623  Biso   1.000  C
  O102     1.0000 0.38368  0.55276  0.72905  Biso   1.000  O
  C1346    1.0000 0.34163  0.51363  0.88823  Biso   1.000  C
  H1402    1.0000 0.43514  0.56936  0.89562  Biso   1.000  H
  C1347    1.0000 0.39178  0.87531  0.80221  Biso   1.000  C
  C1348    1.0000 0.44799  0.85114  0.87085  Biso   1.000  C
  H1403    1.0000 0.41826  0.83826  0.72563  Biso   1.000  H
  C1349    1.0000 0.49468  0.81973  0.94512  Biso   1.000  C
  C1350    1.0000 0.25825  0.47864  0.75719  Biso   1.000  C
  C1351    1.0000 0.29557  0.48870  0.84931  Biso   1.000  C
  H1404    1.0000 0.41995  0.58172  0.72563  Biso   1.000  H
  C1352    1.0000 0.32501  0.50530  0.94512  Biso   1.000  C
  N187     1.0000 0.37597  0.87480  0.75417  Biso   1.000  N
  H1405    1.0000 0.37556  0.89027  0.82784  Biso   1.000  H
  H1406    1.0000 0.43067  0.86586  0.89562  Biso   1.000  H
  C1353    1.0000 0.47354  0.84465  0.98404  Biso   1.000  C
  C1354    1.0000 0.51776  0.78135  0.96249  Biso   1.000  C
  N188     1.0000 0.20089  0.44107  0.76628  Biso   1.000  N
  H1407    1.0000 0.26947  0.49327  0.72295  Biso   1.000  H
  H1408    1.0000 0.25407  0.46246  0.85945  Biso   1.000  H
  C1355    1.0000 0.37110  0.52647  0.98404  Biso   1.000  C
  C1356    1.0000 0.26354  0.48221  0.96249  Biso   1.000  C
  C1357    1.0000 0.33317  0.89704  0.73895  Biso   1.000  C
  C1358    1.0000 0.47412  0.83228  0.03707  Biso   1.000  C
  H1409    1.0000 0.45830  0.87094  0.97390  Biso   1.000  H
  C1359    1.0000 0.51975  0.76781  0.01533  Biso   1.000  C
  H1410    1.0000 0.53246  0.76400  0.93769  Biso   1.000  H
  C1360    1.0000 0.15742  0.42677  0.72232  Biso   1.000  C
  H1411    1.0000 0.41260  0.54170  0.97390  Biso   1.000  H
  C1361    1.0000 0.35813  0.52586  0.03707  Biso   1.000  C
  H1412    1.0000 0.23150  0.46750  0.93769  Biso   1.000  H
  C1362    1.0000 0.24805  0.48024  0.01533  Biso   1.000  C
  C1363    1.0000 0.26933  0.84258  0.72232  Biso   1.000  C
  H1413    1.0000 0.32748  0.91905  0.76875  Biso   1.000  H
  C1364    1.0000 0.36283  0.94308  0.69299  Biso   1.000  C
  C1365    1.0000 0.44628  0.85472  0.07615  Biso   1.000  C
  C1366    1.0000 0.49766  0.79344  0.05319  Biso   1.000  C
  C1367    1.0000 0.54196  0.72516  0.03114  Biso   1.000  C
  C1368    1.0000 0.13255  0.35943  0.70400  Biso   1.000  C
  H1414    1.0000 0.17998  0.45536  0.69323  Biso   1.000  H
  C1369    1.0000 0.10299  0.43618  0.73895  Biso   1.000  C
  C1370    1.0000 0.29571  0.50234  0.05319  Biso   1.000  C
  C1371    1.0000 0.40838  0.55370  0.07615  Biso   1.000  C
  C1372    1.0000 0.18316  0.45804  0.03114  Biso   1.000  C
  N189     1.0000 0.24015  0.79913  0.76628  Biso   1.000  N
  H1415    1.0000 0.27538  0.82006  0.69323  Biso   1.000  H
  C1373    1.0000 0.22687  0.86746  0.70400  Biso   1.000  C
  C1374    1.0000 0.31923  0.96650  0.67263  Biso   1.000  C
  H1416    1.0000 0.37184  0.92234  0.66465  Biso   1.000  H
  H1417    1.0000 0.40226  0.97877  0.70432  Biso   1.000  H
  N190     1.0000 0.42650  0.89229  0.06707  Biso   1.000  N
  H1418    1.0000 0.44290  0.84014  0.11039  Biso   1.000  H
  O103     1.0000 0.49759  0.78060  0.10430  Biso   1.000  O
  N191     1.0000 0.54147  0.70936  0.07914  Biso   1.000  N
  H1419    1.0000 0.55689  0.70893  0.00550  Biso   1.000  H
  C1375    1.0000 0.08732  0.34301  0.65816  Biso   1.000  C
  H1420    1.0000 0.16758  0.35416  0.69343  Biso   1.000  H
  H1421    1.0000 0.11117  0.33083  0.73294  Biso   1.000  H
  C1376    1.0000 0.05695  0.41976  0.69299  Biso   1.000  C
  N192     1.0000 0.12520  0.50121  0.75417  Biso   1.000  N
  H1422    1.0000 0.08097  0.40843  0.76875  Biso   1.000  H
  O104     1.0000 0.28295  0.50239  0.10430  Biso   1.000  O
  N193     1.0000 0.46576  0.57349  0.06707  Biso   1.000  N
  H1423    1.0000 0.39718  0.55713  0.11039  Biso   1.000  H
  N194     1.0000 0.16786  0.45856  0.07914  Biso   1.000  N
  H1424    1.0000 0.15198  0.44309  0.00550  Biso   1.000  H
  C1377    1.0000 0.22034  0.74176  0.75719  Biso   1.000  C
  H1425    1.0000 0.18657  0.83247  0.69343  Biso   1.000  H
  H1426    1.0000 0.21965  0.88886  0.73294  Biso   1.000  H
  C1378    1.0000 0.25568  0.91270  0.65816  Biso   1.000  C
  H1427    1.0000 0.31447  0.99175  0.69952  Biso   1.000  H
  H1428    1.0000 0.33817  0.99297  0.64204  Biso   1.000  H
  C1379    1.0000 0.39732  0.90659  0.11102  Biso   1.000  C
  H1429    1.0000 0.50490  0.75163  0.10768  Biso   1.000  H
  C1380    1.0000 0.56366  0.66651  0.09439  Biso   1.000  C
  H1430    1.0000 0.10948  0.36916  0.62813  Biso   1.000  H
  H1431    1.0000 0.07115  0.29942  0.64822  Biso   1.000  H
  C1381    1.0000 0.03350  0.35275  0.67263  Biso   1.000  C
  H1432    1.0000 0.07766  0.44953  0.66465  Biso   1.000  H
  H1433    1.0000 0.02124  0.42353  0.70432  Biso   1.000  H
  C1382    1.0000 0.12472  0.51654  0.80221  Biso   1.000  C
  H1434    1.0000 0.24668  0.49510  0.10768  Biso   1.000  H
  C1383    1.0000 0.50924  0.60270  0.11102  Biso   1.000  C
  C1384    1.0000 0.10282  0.43632  0.09439  Biso   1.000  C
  C1385    1.0000 0.19252  0.69148  0.79623  Biso   1.000  C
  H1435    1.0000 0.22379  0.73056  0.72295  Biso   1.000  H
  H1436    1.0000 0.25967  0.89055  0.62813  Biso   1.000  H
  H1437    1.0000 0.22823  0.92883  0.64822  Biso   1.000  H
  C1386    1.0000 0.33348  0.89718  0.09439  Biso   1.000  C
  H1438    1.0000 0.39131  0.87804  0.14012  Biso   1.000  H
  C1387    1.0000 0.43979  0.97393  0.12934  Biso   1.000  C
  H1439    1.0000 0.58570  0.66082  0.06459  Biso   1.000  H
  C1388    1.0000 0.60970  0.69619  0.14035  Biso   1.000  C
  H1440    1.0000 0.00828  0.32275  0.69952  Biso   1.000  H
  H1441    1.0000 0.00706  0.34523  0.64204  Biso   1.000  H
  C1389    1.0000 0.14689  0.58139  0.81797  Biso   1.000  C
  H1442    1.0000 0.10979  0.48537  0.82784  Biso   1.000  H
  H1443    1.0000 0.48671  0.60872  0.14012  Biso   1.000  H
  C1390    1.0000 0.53408  0.56019  0.12934  Biso   1.000  C
  C1391    1.0000 0.09343  0.49077  0.11102  Biso   1.000  C
  H1444    1.0000 0.07512  0.41431  0.06459  Biso   1.000  H
  C1392    1.0000 0.08644  0.39028  0.14035  Biso   1.000  C
  C1393    1.0000 0.16902  0.62908  0.78011  Biso   1.000  C
  C1394    1.0000 0.19315  0.70446  0.84931  Biso   1.000  C
  N195     1.0000 0.29066  0.83214  0.07914  Biso   1.000  N
  H1445    1.0000 0.33921  0.92493  0.06459  Biso   1.000  H
  C1395    1.0000 0.30386  0.91359  0.14035  Biso   1.000  C
  C1396    1.0000 0.41097  0.99034  0.17518  Biso   1.000  C
  H1446    1.0000 0.48011  0.97924  0.13988  Biso   1.000  H
  H1447    1.0000 0.44697  0.00247  0.10041  Biso   1.000  H
  C1397    1.0000 0.63315  0.65259  0.16072  Biso   1.000  C
  H1448    1.0000 0.58900  0.70522  0.16870  Biso   1.000  H
  H1449    1.0000 0.64536  0.73560  0.12899  Biso   1.000  H
  C1398    1.0000 0.14890  0.59691  0.87085  Biso   1.000  C
  H1450    1.0000 0.49909  0.51993  0.13988  Biso   1.000  H
  H1451    1.0000 0.55549  0.55299  0.10041  Biso   1.000  H
  C1399    1.0000 0.57932  0.58901  0.17518  Biso   1.000  C
  N196     1.0000 0.10773  0.53427  0.06707  Biso   1.000  N
  H1452    1.0000 0.12200  0.51330  0.14012  Biso   1.000  H
  C1400    1.0000 0.02610  0.46590  0.12934  Biso   1.000  C
  C1401    1.0000 0.01942  0.36686  0.16072  Biso   1.000  C
  H1453    1.0000 0.11619  0.41102  0.16870  Biso   1.000  H
  H1454    1.0000 0.09020  0.35463  0.12899  Biso   1.000  H
  O105     1.0000 0.16902  0.61629  0.72905  Biso   1.000  O
  C1402    1.0000 0.17198  0.65838  0.88823  Biso   1.000  C
  H1455    1.0000 0.20835  0.74594  0.85945  Biso   1.000  H
  C1403    1.0000 0.27488  0.81686  0.03114  Biso   1.000  C
  C1404    1.0000 0.34742  0.98061  0.16072  Biso   1.000  C
  H1456    1.0000 0.29480  0.88383  0.16870  Biso   1.000  H
  H1457    1.0000 0.26439  0.90983  0.12899  Biso   1.000  H
  H1458    1.0000 0.40700  0.96424  0.20518  Biso   1.000  H
  H1459    1.0000 0.43836  0.03389  0.18509  Biso   1.000  H
  H1460    1.0000 0.65836  0.64780  0.13379  Biso   1.000  H
  H1461    1.0000 0.65958  0.67150  0.19130  Biso   1.000  H
  H1462    1.0000 0.13417  0.56484  0.89562  Biso   1.000  H
  H1463    1.0000 0.55717  0.59301  0.20518  Biso   1.000  H
  H1464    1.0000 0.59547  0.56160  0.18509  Biso   1.000  H
  C1405    1.0000 0.14527  0.59160  0.07615  Biso   1.000  C
  H1465    1.0000 0.99744  0.44450  0.10041  Biso   1.000  H
  H1466    1.0000 0.02081  0.50093  0.13988  Biso   1.000  H
  C1406    1.0000 0.00967  0.42066  0.17518  Biso   1.000  C
  H1467    1.0000 0.98941  0.34160  0.13379  Biso   1.000  H
  H1468    1.0000 0.01191  0.34043  0.19130  Biso   1.000  H
  H1469    1.0000 0.16176  0.58003  0.72563  Biso   1.000  H
  C1407    1.0000 0.18028  0.67498  0.94512  Biso   1.000  C
  C1408    1.0000 0.23217  0.75196  0.01533  Biso   1.000  C
  H1470    1.0000 0.29112  0.84804  0.00550  Biso   1.000  H
  H1471    1.0000 0.32850  0.98813  0.19130  Biso   1.000  H
  H1472    1.0000 0.35218  0.01056  0.13379  Biso   1.000  H
  C1409    1.0000 0.16772  0.64187  0.03707  Biso   1.000  C
  H1473    1.0000 0.15991  0.60279  0.11039  Biso   1.000  H
  H1474    1.0000 0.96609  0.40453  0.18509  Biso   1.000  H
  H1475    1.0000 0.03581  0.44281  0.20518  Biso   1.000  H
  C1410    1.0000 0.15536  0.62889  0.98404  Biso   1.000  C
  C1411    1.0000 0.21866  0.73644  0.96249  Biso   1.000  C
  C1412    1.0000 0.20661  0.70428  0.05319  Biso   1.000  C
  H1476    1.0000 0.12909  0.58741  0.97390  Biso   1.000  H
  H1477    1.0000 0.23600  0.76851  0.93769  Biso   1.000  H
  O106     1.0000 0.21940  0.71707  0.10430  Biso   1.000  O
  H1478    1.0000 0.24840  0.75333  0.10768  Biso   1.000  H
  C1413    1.0000 0.69612  0.60970  0.35965  Biso   1.000  C
  C1414    1.0000 0.66649  0.56371  0.40561  Biso   1.000  C
  C1415    1.0000 0.65255  0.63317  0.33928  Biso   1.000  C
  H1479    1.0000 0.70521  0.58901  0.33130  Biso   1.000  H
  H1480    1.0000 0.73560  0.64540  0.37101  Biso   1.000  H
  C1416    1.0000 0.60265  0.50926  0.38898  Biso   1.000  C
  N197     1.0000 0.70929  0.54147  0.42086  Biso   1.000  N
  H1481    1.0000 0.66080  0.58572  0.43541  Biso   1.000  H
  C1417    1.0000 0.58900  0.57937  0.32482  Biso   1.000  C
  H1482    1.0000 0.64779  0.65842  0.36621  Biso   1.000  H
  H1483    1.0000 0.67147  0.65960  0.30870  Biso   1.000  H
  N198     1.0000 0.57345  0.46576  0.43293  Biso   1.000  N
  H1484    1.0000 0.60870  0.48673  0.35988  Biso   1.000  H
  C1418    1.0000 0.56019  0.53413  0.37066  Biso   1.000  C
  C1419    1.0000 0.72512  0.54194  0.46886  Biso   1.000  C
  H1485    1.0000 0.59300  0.55722  0.29482  Biso   1.000  H
  H1486    1.0000 0.56160  0.59550  0.31491  Biso   1.000  H
  C1420    1.0000 0.55371  0.40843  0.42385  Biso   1.000  C
  H1487    1.0000 0.51987  0.49910  0.36012  Biso   1.000  H
  H1488    1.0000 0.55301  0.55553  0.39959  Biso   1.000  H
  C1421    1.0000 0.76781  0.51979  0.48467  Biso   1.000  C
  H1489    1.0000 0.70886  0.55689  0.49450  Biso   1.000  H
  C1422    1.0000 0.52584  0.35816  0.46293  Biso   1.000  C
  H1490    1.0000 0.55709  0.39719  0.38961  Biso   1.000  H
  C1423    1.0000 0.79341  0.49769  0.44681  Biso   1.000  C
  C1424    1.0000 0.78129  0.51777  0.53751  Biso   1.000  C
  C1425    1.0000 0.50234  0.29575  0.44681  Biso   1.000  C
  C1426    1.0000 0.52645  0.37109  0.51596  Biso   1.000  C
  O107     1.0000 0.78055  0.49764  0.39570  Biso   1.000  O
  C1427    1.0000 0.83227  0.47417  0.46293  Biso   1.000  C
  C1428    1.0000 0.81970  0.49472  0.55488  Biso   1.000  C
  H1491    1.0000 0.76400  0.53253  0.56231  Biso   1.000  H
  O108     1.0000 0.50238  0.28296  0.39570  Biso   1.000  O
  C1429    1.0000 0.48025  0.24807  0.48467  Biso   1.000  C
  H1492    1.0000 0.54171  0.41261  0.52610  Biso   1.000  H
  C1430    1.0000 0.50528  0.32500  0.55488  Biso   1.000  C
  H1493    1.0000 0.75158  0.50493  0.39232  Biso   1.000  H
  C1431    1.0000 0.84463  0.47356  0.51596  Biso   1.000  C
  C1432    1.0000 0.85470  0.44629  0.42385  Biso   1.000  C
  C1433    1.0000 0.82800  0.48640  0.61177  Biso   1.000  C
  H1494    1.0000 0.49508  0.24670  0.39232  Biso   1.000  H
  C1434    1.0000 0.48220  0.26354  0.53751  Biso   1.000  C
  C1435    1.0000 0.45802  0.18317  0.46886  Biso   1.000  C
  C1436    1.0000 0.51360  0.34165  0.61177  Biso   1.000  C
  H1495    1.0000 0.87090  0.45832  0.52610  Biso   1.000  H
  N199     1.0000 0.89226  0.42653  0.43293  Biso   1.000  N
  H1496    1.0000 0.84009  0.44290  0.38961  Biso   1.000  H
  C1437    1.0000 0.80686  0.51132  0.65069  Biso   1.000  C
  C1438    1.0000 0.85109  0.44803  0.62915  Biso   1.000  C
  H1497    1.0000 0.46749  0.23151  0.56231  Biso   1.000  H
  N200     1.0000 0.45853  0.16789  0.42086  Biso   1.000  N
  H1498    1.0000 0.44309  0.15199  0.49450  Biso   1.000  H
  C1439    1.0000 0.48868  0.29556  0.65069  Biso   1.000  C
  C1440    1.0000 0.55199  0.40312  0.62915  Biso   1.000  C
  C1441    1.0000 0.90654  0.39733  0.38898  Biso   1.000  C
  C1442    1.0000 0.80748  0.49896  0.70377  Biso   1.000  C
  H1499    1.0000 0.79160  0.53757  0.64055  Biso   1.000  H
  C1443    1.0000 0.85307  0.43448  0.68203  Biso   1.000  C
  H1500    1.0000 0.86583  0.43067  0.60438  Biso   1.000  H
  C1444    1.0000 0.43629  0.10280  0.40561  Biso   1.000  C
  C1445    1.0000 0.50104  0.30854  0.70377  Biso   1.000  C
  H1501    1.0000 0.46245  0.25409  0.64055  Biso   1.000  H
  C1446    1.0000 0.56553  0.41863  0.68203  Biso   1.000  C
  H1502    1.0000 0.56933  0.43519  0.60438  Biso   1.000  H
  C1447    1.0000 0.89715  0.33352  0.40561  Biso   1.000  C
  H1503    1.0000 0.87799  0.39131  0.35988  Biso   1.000  H
  C1448    1.0000 0.97387  0.43980  0.37066  Biso   1.000  C
  C1449    1.0000 0.77960  0.52139  0.74281  Biso   1.000  C
  C1450    1.0000 0.83096  0.46006  0.71989  Biso   1.000  C
  C1451    1.0000 0.87526  0.39178  0.69779  Biso   1.000  C
  C1452    1.0000 0.49074  0.09344  0.38898  Biso   1.000  C
  H1504    1.0000 0.41430  0.07510  0.43541  Biso   1.000  H
  C1453    1.0000 0.39027  0.08644  0.35965  Biso   1.000  C
  C1454    1.0000 0.53994  0.37095  0.71989  Biso   1.000  C
  C1455    1.0000 0.47863  0.25827  0.74281  Biso   1.000  C
  C1456    1.0000 0.60818  0.48348  0.69779  Biso   1.000  C
  N201     1.0000 0.83212  0.29067  0.42086  Biso   1.000  N
  H1505    1.0000 0.92488  0.33921  0.43541  Biso   1.000  H
  C1457    1.0000 0.91355  0.30384  0.35965  Biso   1.000  C
  H1506    1.0000 0.97916  0.48010  0.36012  Biso   1.000  H
  C1458    1.0000 0.99031  0.41102  0.32482  Biso   1.000  C
  H1507    1.0000 0.00251  0.44699  0.39959  Biso   1.000  H
  N202     1.0000 0.75986  0.55896  0.73372  Biso   1.000  N
  H1508    1.0000 0.77620  0.50676  0.77705  Biso   1.000  H
  O109     1.0000 0.83096  0.44727  0.77095  Biso   1.000  O
  N203     1.0000 0.87477  0.37598  0.74583  Biso   1.000  N
  H1509    1.0000 0.89019  0.37556  0.67216  Biso   1.000  H
  N204     1.0000 0.53423  0.10769  0.43293  Biso   1.000  N
  H1510    1.0000 0.51328  0.12199  0.35988  Biso   1.000  H
  C1459    1.0000 0.46591  0.02610  0.37066  Biso   1.000  C
  C1460    1.0000 0.36683  0.01942  0.33928  Biso   1.000  C
  H1511    1.0000 0.41098  0.11620  0.33130  Biso   1.000  H
  H1512    1.0000 0.35461  0.09020  0.37101  Biso   1.000  H
  O110     1.0000 0.55274  0.38369  0.77095  Biso   1.000  O
  N205     1.0000 0.44103  0.20090  0.73372  Biso   1.000  N
  H1513    1.0000 0.49323  0.26946  0.77705  Biso   1.000  H
  N206     1.0000 0.62399  0.49882  0.74583  Biso   1.000  N
  H1514    1.0000 0.62442  0.51466  0.67216  Biso   1.000  H
  C1461    1.0000 0.81680  0.27487  0.46886  Biso   1.000  C
  C1462    1.0000 0.98055  0.34744  0.33928  Biso   1.000  C
  H1515    1.0000 0.88379  0.29481  0.33130  Biso   1.000  H
  H1516    1.0000 0.90979  0.26439  0.37101  Biso   1.000  H
  H1517    1.0000 0.96420  0.40702  0.29482  Biso   1.000  H
  H1518    1.0000 0.03393  0.43839  0.31491  Biso   1.000  H
  C1463    1.0000 0.73064  0.57326  0.77768  Biso   1.000  C
  H1519    1.0000 0.83820  0.41826  0.77437  Biso   1.000  H
  C1464    1.0000 0.89699  0.33319  0.76105  Biso   1.000  C
  C1465    1.0000 0.59157  0.14531  0.42385  Biso   1.000  C
  H1520    1.0000 0.50088  0.02079  0.36012  Biso   1.000  H
  C1466    1.0000 0.42062  0.00964  0.32482  Biso   1.000  C
  H1521    1.0000 0.44451  0.99755  0.39959  Biso   1.000  H
  H1522    1.0000 0.34038  0.01190  0.30870  Biso   1.000  H
  H1523    1.0000 0.34163  0.98947  0.36621  Biso   1.000  H
  H1524    1.0000 0.58173  0.42000  0.77437  Biso   1.000  H
  C1467    1.0000 0.42673  0.15740  0.77768  Biso   1.000  C
  C1468    1.0000 0.66681  0.56385  0.76105  Biso   1.000  C
  C1469    1.0000 0.75192  0.23217  0.48467  Biso   1.000  C
  H1525    1.0000 0.84797  0.29110  0.49450  Biso   1.000  H
  H1526    1.0000 0.98806  0.32848  0.30870  Biso   1.000  H
  H1527    1.0000 0.01062  0.35219  0.36621  Biso   1.000  H
  H1528    1.0000 0.72461  0.54467  0.80677  Biso   1.000  H
  C1470    1.0000 0.77315  0.64060  0.79600  Biso   1.000  C
  C1471    1.0000 0.84254  0.26932  0.77768  Biso   1.000  C
  H1529    1.0000 0.91903  0.32750  0.73125  Biso   1.000  H
  C1472    1.0000 0.94304  0.36281  0.80701  Biso   1.000  C
  C1473    1.0000 0.64186  0.16770  0.46293  Biso   1.000  C
  H1530    1.0000 0.60277  0.15989  0.38961  Biso   1.000  H
  H1531    1.0000 0.44278  0.03579  0.29482  Biso   1.000  H
  H1532    1.0000 0.40449  0.96614  0.31491  Biso   1.000  H
  H1533    1.0000 0.45533  0.17997  0.80677  Biso   1.000  H
  C1474    1.0000 0.35942  0.13257  0.79600  Biso   1.000  C
  C1475    1.0000 0.43614  0.10299  0.76105  Biso   1.000  C
  H1534    1.0000 0.67253  0.59160  0.73125  Biso   1.000  H
  C1476    1.0000 0.63716  0.58022  0.80701  Biso   1.000  C
  C1477    1.0000 0.70423  0.20659  0.44681  Biso   1.000  C
  C1478    1.0000 0.73642  0.21868  0.53751  Biso   1.000  C
  C1479    1.0000 0.74429  0.65701  0.84184  Biso   1.000  C
  H1535    1.0000 0.81341  0.64587  0.80657  Biso   1.000  H
  H1536    1.0000 0.78032  0.66919  0.76706  Biso   1.000  H
  N207     1.0000 0.79906  0.24012  0.73372  Biso   1.000  N
  H1537    1.0000 0.82004  0.27539  0.80677  Biso   1.000  H
  C1480    1.0000 0.86741  0.22686  0.79600  Biso   1.000  C
  C1481    1.0000 0.96647  0.31927  0.82737  Biso   1.000  C
  H1538    1.0000 0.92232  0.37189  0.83535  Biso   1.000  H
  H1539    1.0000 0.97873  0.40227  0.79568  Biso   1.000  H
  C1482    1.0000 0.62890  0.15538  0.51596  Biso   1.000  C
  H1540    1.0000 0.35411  0.16756  0.80657  Biso   1.000  H
  H1541    1.0000 0.33084  0.11117  0.76706  Biso   1.000  H
  C1483    1.0000 0.34299  0.08733  0.84184  Biso   1.000  C
  N208     1.0000 0.50118  0.12523  0.74583  Biso   1.000  N
  H1542    1.0000 0.40844  0.08098  0.73125  Biso   1.000  H
  C1484    1.0000 0.41976  0.05695  0.80701  Biso   1.000  C
  C1485    1.0000 0.68074  0.64728  0.82737  Biso   1.000  C
  H1543    1.0000 0.62812  0.55050  0.83535  Biso   1.000  H
  H1544    1.0000 0.59773  0.57646  0.79568  Biso   1.000  H
  O111     1.0000 0.71704  0.21943  0.39570  Biso   1.000  O
  C1486    1.0000 0.67496  0.18030  0.55488  Biso   1.000  C
  H1545    1.0000 0.76848  0.23598  0.56231  Biso   1.000  H
  H1546    1.0000 0.74030  0.63087  0.87187  Biso   1.000  H
  H1547    1.0000 0.77169  0.70056  0.85178  Biso   1.000  H
  C1487    1.0000 0.74174  0.22037  0.74281  Biso   1.000  C
  H1548    1.0000 0.83239  0.18656  0.80657  Biso   1.000  H
  H1549    1.0000 0.88881  0.21966  0.76706  Biso   1.000  H
  C1488    1.0000 0.91265  0.25569  0.84184  Biso   1.000  C
  H1550    1.0000 0.99172  0.31447  0.80048  Biso   1.000  H
  H1551    1.0000 0.99290  0.33817  0.85796  Biso   1.000  H
  H1552    1.0000 0.58737  0.12909  0.52610  Biso   1.000  H
  H1553    1.0000 0.36913  0.10948  0.87187  Biso   1.000  H
  H1554    1.0000 0.29943  0.07115  0.85178  Biso   1.000  H
  C1489    1.0000 0.35274  0.03353  0.82737  Biso   1.000  C
  C1490    1.0000 0.51652  0.12472  0.69779  Biso   1.000  C
  H1555    1.0000 0.44955  0.07769  0.83535  Biso   1.000  H
  H1556    1.0000 0.42354  0.02126  0.79568  Biso   1.000  H
  H1557    1.0000 0.68552  0.67728  0.80048  Biso   1.000  H
  H1558    1.0000 0.66180  0.65476  0.85796  Biso   1.000  H
  H1559    1.0000 0.75327  0.24840  0.39232  Biso   1.000  H
  C1491    1.0000 0.65833  0.17198  0.61177  Biso   1.000  C
  C1492    1.0000 0.69145  0.19253  0.70377  Biso   1.000  C
  H1560    1.0000 0.73052  0.22375  0.77705  Biso   1.000  H
  H1561    1.0000 0.89054  0.25968  0.87187  Biso   1.000  H
  H1562    1.0000 0.92883  0.22827  0.85178  Biso   1.000  H
  H1563    1.0000 0.32273  0.00828  0.80048  Biso   1.000  H
  H1564    1.0000 0.34521  0.00705  0.85796  Biso   1.000  H
  C1493    1.0000 0.58137  0.14691  0.68203  Biso   1.000  C
  H1565    1.0000 0.48530  0.10976  0.67216  Biso   1.000  H
  C1494    1.0000 0.70443  0.19314  0.65069  Biso   1.000  C
  C1495    1.0000 0.59686  0.14889  0.62915  Biso   1.000  C
  C1496    1.0000 0.62908  0.16901  0.71989  Biso   1.000  C
  H1566    1.0000 0.74593  0.20838  0.64055  Biso   1.000  H
  H1567    1.0000 0.56482  0.13417  0.60438  Biso   1.000  H
  O112     1.0000 0.61627  0.16906  0.77095  Biso   1.000  O
  H1568    1.0000 0.58001  0.16177  0.77437  Biso   1.000  H
  C1497    1.0000 0.91265  0.65701  0.34184  Biso   1.000  C
  C1498    1.0000 0.86743  0.64060  0.29600  Biso   1.000  C
  H1569    1.0000 0.89050  0.63087  0.37187  Biso   1.000  H
  H1570    1.0000 0.92880  0.70056  0.35178  Biso   1.000  H
  C1499    1.0000 0.96647  0.64728  0.32737  Biso   1.000  C
  C1500    1.0000 0.84255  0.57326  0.27768  Biso   1.000  C
  H1571    1.0000 0.83243  0.64587  0.30657  Biso   1.000  H
  H1572    1.0000 0.88881  0.66919  0.26706  Biso   1.000  H
  C1501    1.0000 0.94300  0.58022  0.30701  Biso   1.000  C
  H1573    1.0000 0.99173  0.67728  0.30048  Biso   1.000  H
  H1574    1.0000 0.99289  0.65476  0.35796  Biso   1.000  H
  N209     1.0000 0.79908  0.55896  0.23372  Biso   1.000  N
  H1575    1.0000 0.81999  0.54467  0.30677  Biso   1.000  H
  C1502    1.0000 0.89698  0.56385  0.26105  Biso   1.000  C
  H1576    1.0000 0.92232  0.55050  0.33535  Biso   1.000  H
  H1577    1.0000 0.97871  0.57646  0.29568  Biso   1.000  H
  C1503    1.0000 0.74173  0.52139  0.24281  Biso   1.000  C
  N210     1.0000 0.87477  0.49882  0.24583  Biso   1.000  N
  H1578    1.0000 0.91904  0.59160  0.23125  Biso   1.000  H
  C1504    1.0000 0.69146  0.49896  0.20377  Biso   1.000  C
  H1579    1.0000 0.73050  0.50676  0.27705  Biso   1.000  H
  C1505    1.0000 0.87525  0.48348  0.19779  Biso   1.000  C
  C1506    1.0000 0.62905  0.46006  0.21989  Biso   1.000  C
  C1507    1.0000 0.70444  0.51132  0.15069  Biso   1.000  C
  C1508    1.0000 0.85309  0.41863  0.18203  Biso   1.000  C
  H1580    1.0000 0.89023  0.51466  0.17216  Biso   1.000  H
  C1509    1.0000 0.58135  0.43448  0.18203  Biso   1.000  C
  O113     1.0000 0.61630  0.44727  0.27095  Biso   1.000  O
  C1510    1.0000 0.65834  0.48640  0.11177  Biso   1.000  C
  H1581    1.0000 0.74590  0.53757  0.14055  Biso   1.000  H
  C1511    1.0000 0.83100  0.37095  0.21989  Biso   1.000  C
  C1512    1.0000 0.85107  0.40312  0.12915  Biso   1.000  C
  C1513    1.0000 0.51651  0.39178  0.19779  Biso   1.000  C
  C1514    1.0000 0.59688  0.44803  0.12915  Biso   1.000  C
  H1582    1.0000 0.58000  0.41826  0.27437  Biso   1.000  H
  C1515    1.0000 0.67496  0.49472  0.05488  Biso   1.000  C
  C1516    1.0000 0.80745  0.30854  0.20377  Biso   1.000  C
  O114     1.0000 0.83093  0.38369  0.27095  Biso   1.000  O
  C1517    1.0000 0.82800  0.34165  0.11177  Biso   1.000  C
  H1583    1.0000 0.86580  0.43519  0.10438  Biso   1.000  H
  N211     1.0000 0.50120  0.37598  0.24583  Biso   1.000  N
  H1584    1.0000 0.48531  0.37556  0.17216  Biso   1.000  H
  H1585    1.0000 0.56483  0.43067  0.10438  Biso   1.000  H
  C1518    1.0000 0.62891  0.47356  0.01596  Biso   1.000  C
  C1519    1.0000 0.73641  0.51777  0.03751  Biso   1.000  C
  C1520    1.0000 0.77963  0.25827  0.24281  Biso   1.000  C
  C1521    1.0000 0.80683  0.29556  0.15069  Biso   1.000  C
  H1586    1.0000 0.83821  0.42000  0.27437  Biso   1.000  H
  C1522    1.0000 0.81967  0.32500  0.05488  Biso   1.000  C
  C1523    1.0000 0.43614  0.33319  0.26105  Biso   1.000  C
  H1587    1.0000 0.58741  0.45832  0.02610  Biso   1.000  H
  C1524    1.0000 0.64184  0.47417  0.96293  Biso   1.000  C
  H1588    1.0000 0.76848  0.53253  0.06231  Biso   1.000  H
  C1525    1.0000 0.75196  0.51979  0.98467  Biso   1.000  C
  N212     1.0000 0.75982  0.20090  0.23372  Biso   1.000  N
  H1589    1.0000 0.77623  0.26946  0.27705  Biso   1.000  H
  H1590    1.0000 0.79163  0.25409  0.14055  Biso   1.000  H
  C1526    1.0000 0.84459  0.37109  0.01596  Biso   1.000  C
  C1527    1.0000 0.78129  0.26354  0.03751  Biso   1.000  C
  C1528    1.0000 0.41976  0.36281  0.30701  Biso   1.000  C
  H1591    1.0000 0.40842  0.32750  0.23125  Biso   1.000  H
  C1529    1.0000 0.42674  0.26932  0.27768  Biso   1.000  C
  C1530    1.0000 0.70426  0.49769  0.94681  Biso   1.000  C
  C1531    1.0000 0.59157  0.44629  0.92385  Biso   1.000  C
  C1532    1.0000 0.81679  0.54194  0.96886  Biso   1.000  C
  C1533    1.0000 0.73062  0.15740  0.27768  Biso   1.000  C
  C1534    1.0000 0.83226  0.35816  0.96293  Biso   1.000  C
  H1592    1.0000 0.87089  0.41261  0.02610  Biso   1.000  H
  C1535    1.0000 0.76781  0.24807  0.98467  Biso   1.000  C
  H1593    1.0000 0.76397  0.23151  0.06231  Biso   1.000  H
  C1536    1.0000 0.35274  0.31927  0.32737  Biso   1.000  C
  H1594    1.0000 0.44955  0.37189  0.33535  Biso   1.000  H
  H1595    1.0000 0.42352  0.40227  0.29568  Biso   1.000  H
  C1537    1.0000 0.35940  0.22686  0.29600  Biso   1.000  C
  N213     1.0000 0.44101  0.24012  0.23372  Biso   1.000  N
  H1596    1.0000 0.45534  0.27539  0.30677  Biso   1.000  H
  O115     1.0000 0.71702  0.49764  0.89570  Biso   1.000  O
  N214     1.0000 0.53421  0.42653  0.93293  Biso   1.000  N
  H1597    1.0000 0.60279  0.44290  0.88961  Biso   1.000  H
  N215     1.0000 0.83212  0.54147  0.92086  Biso   1.000  N
  H1598    1.0000 0.84797  0.55689  0.99450  Biso   1.000  H
  C1538    1.0000 0.66681  0.10299  0.26105  Biso   1.000  C
  H1599    1.0000 0.72464  0.17997  0.30677  Biso   1.000  H
  C1539    1.0000 0.77314  0.13257  0.29600  Biso   1.000  C
  C1540    1.0000 0.85471  0.40843  0.92385  Biso   1.000  C
  C1541    1.0000 0.79340  0.29575  0.94681  Biso   1.000  C
  C1542    1.0000 0.72510  0.18317  0.96886  Biso   1.000  C
  H1600    1.0000 0.32273  0.31447  0.30048  Biso   1.000  H
  H1601    1.0000 0.34521  0.33817  0.35796  Biso   1.000  H
  C1543    1.0000 0.34299  0.25569  0.34184  Biso   1.000  C
  H1602    1.0000 0.35412  0.18656  0.30657  Biso   1.000  H
  H1603    1.0000 0.33084  0.21966  0.26706  Biso   1.000  H
  C1544    1.0000 0.47862  0.22037  0.24281  Biso   1.000  C
  H1604    1.0000 0.75329  0.50493  0.89232  Biso   1.000  H
  C1545    1.0000 0.49074  0.39733  0.88898  Biso   1.000  C
  C1546    1.0000 0.89716  0.56371  0.90561  Biso   1.000  C
  N216     1.0000 0.62401  0.12523  0.24583  Biso   1.000  N
  H1605    1.0000 0.67254  0.08098  0.23125  Biso   1.000  H
  C1547    1.0000 0.63715  0.05695  0.30701  Biso   1.000  C
  H1606    1.0000 0.81340  0.16756  0.30657  Biso   1.000  H
  H1607    1.0000 0.78032  0.11117  0.26706  Biso   1.000  H
  C1548    1.0000 0.74429  0.08733  0.34184  Biso   1.000  C
  N217     1.0000 0.89225  0.46576  0.93293  Biso   1.000  N
  H1608    1.0000 0.84009  0.39719  0.88961  Biso   1.000  H
  O116     1.0000 0.78057  0.28296  0.89570  Biso   1.000  O
  N218     1.0000 0.70931  0.16789  0.92086  Biso   1.000  N
  H1609    1.0000 0.70890  0.15199  0.99450  Biso   1.000  H
  H1610    1.0000 0.36914  0.25968  0.37187  Biso   1.000  H
  H1611    1.0000 0.29943  0.22827  0.35178  Biso   1.000  H
  C1549    1.0000 0.50103  0.19253  0.20377  Biso   1.000  C
  H1612    1.0000 0.49322  0.22375  0.27705  Biso   1.000  H
  H1613    1.0000 0.51330  0.39131  0.85988  Biso   1.000  H
  C1550    1.0000 0.46587  0.43980  0.87066  Biso   1.000  C
  C1551    1.0000 0.43631  0.33352  0.90561  Biso   1.000  C
  C1552    1.0000 0.90654  0.50926  0.88898  Biso   1.000  C
  H1614    1.0000 0.92490  0.58572  0.93541  Biso   1.000  H
  C1553    1.0000 0.91351  0.60970  0.85965  Biso   1.000  C
  C1554    1.0000 0.60819  0.12472  0.19779  Biso   1.000  C
  C1555    1.0000 0.68074  0.03353  0.32737  Biso   1.000  C
  H1615    1.0000 0.62813  0.07769  0.33535  Biso   1.000  H
  H1616    1.0000 0.59772  0.02126  0.29568  Biso   1.000  H
  H1617    1.0000 0.74034  0.10948  0.37187  Biso   1.000  H
  H1618    1.0000 0.77172  0.07115  0.35178  Biso   1.000  H
  H1619    1.0000 0.75157  0.24670  0.89232  Biso   1.000  H
  C1556    1.0000 0.66647  0.10280  0.90561  Biso   1.000  C
  C1557    1.0000 0.53993  0.16901  0.21989  Biso   1.000  C
  C1558    1.0000 0.48871  0.19314  0.15069  Biso   1.000  C
  H1620    1.0000 0.50088  0.48010  0.86012  Biso   1.000  H
  H1621    1.0000 0.44450  0.44699  0.89959  Biso   1.000  H
  C1559    1.0000 0.42065  0.41102  0.82482  Biso   1.000  C
  N219     1.0000 0.45855  0.29067  0.92086  Biso   1.000  N
  H1622    1.0000 0.41427  0.33921  0.93541  Biso   1.000  H
  C1560    1.0000 0.39028  0.30384  0.85965  Biso   1.000  C
  H1623    1.0000 0.87801  0.48673  0.85988  Biso   1.000  H
  C1561    1.0000 0.97392  0.53413  0.87066  Biso   1.000  C
  C1562    1.0000 0.98055  0.63317  0.83928  Biso   1.000  C
  H1624    1.0000 0.88378  0.58901  0.83130  Biso   1.000  H
  H1625    1.0000 0.90978  0.64540  0.87101  Biso   1.000  H
  C1563    1.0000 0.56553  0.14691  0.18203  Biso   1.000  C
  H1626    1.0000 0.62442  0.10976  0.17216  Biso   1.000  H
  H1627    1.0000 0.68551  0.00828  0.30048  Biso   1.000  H
  H1628    1.0000 0.66180  0.00705  0.35796  Biso   1.000  H
  C1564    1.0000 0.60266  0.09344  0.88898  Biso   1.000  C
  H1629    1.0000 0.66080  0.07510  0.93541  Biso   1.000  H
  C1565    1.0000 0.69612  0.08644  0.85965  Biso   1.000  C
  O117     1.0000 0.55274  0.16906  0.27095  Biso   1.000  O
  H1630    1.0000 0.46244  0.20838  0.14055  Biso   1.000  H
  C1566    1.0000 0.51360  0.17198  0.11177  Biso   1.000  C
  H1631    1.0000 0.44280  0.40702  0.79482  Biso   1.000  H
  H1632    1.0000 0.40448  0.43839  0.81491  Biso   1.000  H
  C1567    1.0000 0.36683  0.34744  0.83928  Biso   1.000  C
  C1568    1.0000 0.45806  0.27487  0.96886  Biso   1.000  C
  H1633    1.0000 0.41101  0.29481  0.83130  Biso   1.000  H
  H1634    1.0000 0.35459  0.26439  0.87101  Biso   1.000  H
  H1635    1.0000 0.97917  0.49910  0.86012  Biso   1.000  H
  C1569    1.0000 0.99031  0.57937  0.82482  Biso   1.000  C
  H1636    1.0000 0.00253  0.55553  0.89959  Biso   1.000  H
  H1637    1.0000 0.98806  0.65960  0.80870  Biso   1.000  H
  H1638    1.0000 0.01061  0.65842  0.86621  Biso   1.000  H
  C1570    1.0000 0.55198  0.14889  0.12915  Biso   1.000  C
  N220     1.0000 0.57345  0.10769  0.93293  Biso   1.000  N
  H1639    1.0000 0.60866  0.12199  0.85988  Biso   1.000  H
  C1571    1.0000 0.56019  0.02610  0.87066  Biso   1.000  C
  C1572    1.0000 0.65255  0.01942  0.83928  Biso   1.000  C
  H1640    1.0000 0.70518  0.11620  0.83130  Biso   1.000  H
  H1641    1.0000 0.73559  0.09020  0.87101  Biso   1.000  H
  H1642    1.0000 0.58172  0.16177  0.27437  Biso   1.000  H
  C1573    1.0000 0.50530  0.18030  0.05488  Biso   1.000  C
  H1643    1.0000 0.34159  0.35219  0.86621  Biso   1.000  H
  H1644    1.0000 0.34037  0.32848  0.80870  Biso   1.000  H
  C1574    1.0000 0.48020  0.23217  0.98467  Biso   1.000  C
  H1645    1.0000 0.44308  0.29110  0.99450  Biso   1.000  H
  H1646    1.0000 0.96420  0.55722  0.79482  Biso   1.000  H
  H1647    1.0000 0.03388  0.59550  0.81491  Biso   1.000  H
  H1648    1.0000 0.56930  0.13417  0.10438  Biso   1.000  H
  C1575    1.0000 0.55370  0.14531  0.92385  Biso   1.000  C
  H1649    1.0000 0.55300  0.99755  0.89959  Biso   1.000  H
  H1650    1.0000 0.51990  0.02079  0.86012  Biso   1.000  H
  C1576    1.0000 0.58898  0.00964  0.82482  Biso   1.000  C
  H1651    1.0000 0.64784  0.98947  0.86621  Biso   1.000  H
  H1652    1.0000 0.67148  0.01190  0.80870  Biso   1.000  H
  C1577    1.0000 0.52647  0.15538  0.01596  Biso   1.000  C
  C1578    1.0000 0.48221  0.21868  0.03751  Biso   1.000  C
  C1579    1.0000 0.50231  0.20659  0.94681  Biso   1.000  C
  C1580    1.0000 0.52583  0.16770  0.96293  Biso   1.000  C
  H1653    1.0000 0.55708  0.15989  0.88961  Biso   1.000  H
  H1654    1.0000 0.56161  0.96614  0.81491  Biso   1.000  H
  H1655    1.0000 0.59297  0.03579  0.79482  Biso   1.000  H
  H1656    1.0000 0.54167  0.12909  0.02610  Biso   1.000  H
  H1657    1.0000 0.46749  0.23598  0.06231  Biso   1.000  H
  O118     1.0000 0.50238  0.21943  0.89570  Biso   1.000  O
  H1658    1.0000 0.49507  0.24840  0.89232  Biso   1.000  H
  C1581    1.0000 0.54195  0.81686  0.53114  Biso   1.000  C
  C1582    1.0000 0.51977  0.75196  0.51533  Biso   1.000  C
  N221     1.0000 0.54145  0.83214  0.57914  Biso   1.000  N
  H1659    1.0000 0.55689  0.84804  0.50550  Biso   1.000  H
  C1583    1.0000 0.51775  0.73644  0.46249  Biso   1.000  C
  C1584    1.0000 0.49763  0.70428  0.55319  Biso   1.000  C
  C1585    1.0000 0.56366  0.89718  0.59439  Biso   1.000  C
  C1586    1.0000 0.49467  0.67498  0.44512  Biso   1.000  C
  H1660    1.0000 0.53248  0.76851  0.43769  Biso   1.000  H
  C1587    1.0000 0.47413  0.64187  0.53707  Biso   1.000  C
  O119     1.0000 0.49764  0.71707  0.60430  Biso   1.000  O
  C1588    1.0000 0.50923  0.90659  0.61102  Biso   1.000  C
  H1661    1.0000 0.58568  0.92493  0.56459  Biso   1.000  H
  C1589    1.0000 0.60970  0.91359  0.64035  Biso   1.000  C
  C1590    1.0000 0.48637  0.65838  0.38823  Biso   1.000  C
  C1591    1.0000 0.47350  0.62889  0.48404  Biso   1.000  C
  C1592    1.0000 0.44631  0.59160  0.57615  Biso   1.000  C
  H1662    1.0000 0.50489  0.75333  0.60768  Biso   1.000  H
  N222     1.0000 0.46576  0.89229  0.56707  Biso   1.000  N
  H1663    1.0000 0.48669  0.87804  0.64012  Biso   1.000  H
  C1593    1.0000 0.53410  0.97393  0.62934  Biso   1.000  C
  C1594    1.0000 0.63315  0.98061  0.66072  Biso   1.000  C
  H1664    1.0000 0.58899  0.88383  0.66870  Biso   1.000  H
  H1665    1.0000 0.64541  0.90983  0.62899  Biso   1.000  H
  C1595    1.0000 0.44799  0.59691  0.37085  Biso   1.000  C
  C1596    1.0000 0.51129  0.70446  0.34931  Biso   1.000  C
  H1666    1.0000 0.45831  0.58741  0.47390  Biso   1.000  H
  N223     1.0000 0.42652  0.53427  0.56707  Biso   1.000  N
  H1667    1.0000 0.44286  0.60279  0.61039  Biso   1.000  H
  C1597    1.0000 0.40840  0.85472  0.57615  Biso   1.000  C
  H1668    1.0000 0.49909  0.97924  0.63988  Biso   1.000  H
  C1598    1.0000 0.57933  0.99034  0.67518  Biso   1.000  C
  H1669    1.0000 0.55546  0.00247  0.60041  Biso   1.000  H
  H1670    1.0000 0.65959  0.98813  0.69130  Biso   1.000  H
  H1671    1.0000 0.65835  0.01056  0.63379  Biso   1.000  H
  C1599    1.0000 0.43449  0.58139  0.31797  Biso   1.000  C
  H1672    1.0000 0.43065  0.56484  0.39562  Biso   1.000  H
  C1600    1.0000 0.49894  0.69148  0.29623  Biso   1.000  C
  H1673    1.0000 0.53757  0.74594  0.35945  Biso   1.000  H
  C1601    1.0000 0.39732  0.49077  0.61102  Biso   1.000  C
  C1602    1.0000 0.35813  0.83228  0.53707  Biso   1.000  C
  H1674    1.0000 0.39720  0.84014  0.61039  Biso   1.000  H
  H1675    1.0000 0.55720  0.96424  0.70518  Biso   1.000  H
  H1676    1.0000 0.59548  0.03389  0.68509  Biso   1.000  H
  C1603    1.0000 0.39180  0.51654  0.30221  Biso   1.000  C
  C1604    1.0000 0.46004  0.62908  0.28011  Biso   1.000  C
  C1605    1.0000 0.52138  0.74176  0.25719  Biso   1.000  C
  H1677    1.0000 0.39128  0.51330  0.64012  Biso   1.000  H
  C1606    1.0000 0.43978  0.46590  0.62934  Biso   1.000  C
  C1607    1.0000 0.33348  0.43632  0.59439  Biso   1.000  C
  C1608    1.0000 0.37108  0.84465  0.48404  Biso   1.000  C
  C1609    1.0000 0.29575  0.79344  0.55319  Biso   1.000  C
  N224     1.0000 0.37599  0.50121  0.25417  Biso   1.000  N
  H1678    1.0000 0.37556  0.48537  0.32784  Biso   1.000  H
  O120     1.0000 0.44725  0.61629  0.22905  Biso   1.000  O
  N225     1.0000 0.55895  0.79913  0.26628  Biso   1.000  N
  H1679    1.0000 0.50675  0.73056  0.22295  Biso   1.000  H
  H1680    1.0000 0.48010  0.50093  0.63988  Biso   1.000  H
  H1681    1.0000 0.44700  0.44450  0.60041  Biso   1.000  H
  C1610    1.0000 0.41097  0.42066  0.67518  Biso   1.000  C
  N226     1.0000 0.29068  0.45856  0.57914  Biso   1.000  N
  H1682    1.0000 0.33918  0.41431  0.56459  Biso   1.000  H
  C1611    1.0000 0.30383  0.39028  0.64035  Biso   1.000  C
  C1612    1.0000 0.32502  0.81973  0.44512  Biso   1.000  C
  H1683    1.0000 0.41261  0.87094  0.47390  Biso   1.000  H
  C1613    1.0000 0.24803  0.76781  0.51533  Biso   1.000  C
  O121     1.0000 0.28297  0.78060  0.60430  Biso   1.000  O
  C1614    1.0000 0.33317  0.43618  0.23895  Biso   1.000  C
  H1684    1.0000 0.41825  0.58003  0.22563  Biso   1.000  H
  C1615    1.0000 0.57322  0.84258  0.22232  Biso   1.000  C
  H1685    1.0000 0.40698  0.44281  0.70518  Biso   1.000  H
  H1686    1.0000 0.43842  0.40453  0.68509  Biso   1.000  H
  C1616    1.0000 0.34742  0.36686  0.66072  Biso   1.000  C
  C1617    1.0000 0.27487  0.45804  0.53114  Biso   1.000  C
  H1687    1.0000 0.29481  0.41102  0.66870  Biso   1.000  H
  H1688    1.0000 0.26442  0.35463  0.62899  Biso   1.000  H
  C1618    1.0000 0.34164  0.82805  0.38823  Biso   1.000  C
  C1619    1.0000 0.26356  0.78135  0.46249  Biso   1.000  C
  C1620    1.0000 0.18317  0.72516  0.53114  Biso   1.000  C
  H1689    1.0000 0.24670  0.75163  0.60768  Biso   1.000  H
  C1621    1.0000 0.36279  0.41976  0.19299  Biso   1.000  C
  H1690    1.0000 0.32744  0.40843  0.26875  Biso   1.000  H
  C1622    1.0000 0.26933  0.42677  0.22232  Biso   1.000  C
  H1691    1.0000 0.54465  0.82006  0.19323  Biso   1.000  H
  C1623    1.0000 0.64055  0.86746  0.20400  Biso   1.000  C
  C1624    1.0000 0.56383  0.89704  0.23895  Biso   1.000  C
  H1692    1.0000 0.35218  0.34160  0.63379  Biso   1.000  H
  H1693    1.0000 0.32850  0.34043  0.69130  Biso   1.000  H
  C1625    1.0000 0.23217  0.48024  0.51533  Biso   1.000  C
  H1694    1.0000 0.29109  0.44309  0.50550  Biso   1.000  H
  C1626    1.0000 0.40311  0.85114  0.37085  Biso   1.000  C
  C1627    1.0000 0.29555  0.80689  0.34931  Biso   1.000  C
  H1695    1.0000 0.23151  0.76400  0.43769  Biso   1.000  H
  N227     1.0000 0.16786  0.70936  0.57914  Biso   1.000  N
  H1696    1.0000 0.15201  0.70893  0.50550  Biso   1.000  H
  C1628    1.0000 0.31923  0.35275  0.17263  Biso   1.000  C
  H1697    1.0000 0.37185  0.44953  0.16465  Biso   1.000  H
  H1698    1.0000 0.40226  0.42353  0.20432  Biso   1.000  H
  C1629    1.0000 0.22687  0.35943  0.20400  Biso   1.000  C
  N228     1.0000 0.24015  0.44107  0.26628  Biso   1.000  N
  H1699    1.0000 0.27536  0.45536  0.19323  Biso   1.000  H
  H1700    1.0000 0.64587  0.83247  0.19343  Biso   1.000  H
  H1701    1.0000 0.66917  0.88886  0.23294  Biso   1.000  H
  C1630    1.0000 0.65698  0.91270  0.15816  Biso   1.000  C
  N229     1.0000 0.49879  0.87480  0.25417  Biso   1.000  N
  H1702    1.0000 0.59154  0.91905  0.26875  Biso   1.000  H
  C1631    1.0000 0.58022  0.94308  0.19299  Biso   1.000  C
  C1632    1.0000 0.21866  0.48221  0.46249  Biso   1.000  C
  C1633    1.0000 0.20661  0.50234  0.55319  Biso   1.000  C
  C1634    1.0000 0.41860  0.85312  0.31797  Biso   1.000  C
  H1703    1.0000 0.43515  0.86586  0.39562  Biso   1.000  H
  C1635    1.0000 0.30852  0.80750  0.29623  Biso   1.000  C
  H1704    1.0000 0.25405  0.79165  0.35945  Biso   1.000  H
  C1636    1.0000 0.10282  0.66651  0.59439  Biso   1.000  C
  H1705    1.0000 0.31445  0.32275  0.19952  Biso   1.000  H
  H1706    1.0000 0.33815  0.34523  0.14204  Biso   1.000  H
  C1637    1.0000 0.25568  0.34301  0.15816  Biso   1.000  C
  H1707    1.0000 0.18656  0.35416  0.19343  Biso   1.000  H
  H1708    1.0000 0.21966  0.33083  0.23294  Biso   1.000  H
  C1638    1.0000 0.22037  0.47864  0.25719  Biso   1.000  C
  H1709    1.0000 0.63084  0.89055  0.12813  Biso   1.000  H
  H1710    1.0000 0.70056  0.92883  0.14822  Biso   1.000  H
  C1639    1.0000 0.64723  0.96650  0.17263  Biso   1.000  C
  C1640    1.0000 0.48350  0.87531  0.30221  Biso   1.000  C
  H1711    1.0000 0.55046  0.92234  0.16465  Biso   1.000  H
  H1712    1.0000 0.57648  0.97877  0.20432  Biso   1.000  H
  C1641    1.0000 0.18027  0.50530  0.44512  Biso   1.000  C
  H1713    1.0000 0.23598  0.46750  0.43769  Biso   1.000  H
  C1642    1.0000 0.16770  0.52586  0.53707  Biso   1.000  C
  O122     1.0000 0.21942  0.50239  0.60430  Biso   1.000  O
  C1643    1.0000 0.37094  0.83101  0.28011  Biso   1.000  C
  C1644    1.0000 0.25827  0.77966  0.25719  Biso   1.000  C
  C1645    1.0000 0.09344  0.60270  0.61102  Biso   1.000  C
  H1714    1.0000 0.07509  0.66082  0.56459  Biso   1.000  H
  C1646    1.0000 0.08646  0.69619  0.64035  Biso   1.000  C
  H1715    1.0000 0.25967  0.36916  0.12813  Biso   1.000  H
  H1716    1.0000 0.22826  0.29942  0.14822  Biso   1.000  H
  C1647    1.0000 0.19253  0.50107  0.29623  Biso   1.000  C
  H1717    1.0000 0.22378  0.49327  0.22295  Biso   1.000  H
  H1718    1.0000 0.67724  0.99175  0.19952  Biso   1.000  H
  H1719    1.0000 0.65476  0.99297  0.14204  Biso   1.000  H
  H1720    1.0000 0.51467  0.89027  0.32784  Biso   1.000  H
  C1648    1.0000 0.17197  0.51363  0.38823  Biso   1.000  C
  C1649    1.0000 0.15534  0.52647  0.48404  Biso   1.000  C
  C1650    1.0000 0.14530  0.55370  0.57615  Biso   1.000  C
  H1721    1.0000 0.24840  0.49510  0.60768  Biso   1.000  H
  O123     1.0000 0.38370  0.83097  0.22905  Biso   1.000  O
  N230     1.0000 0.20089  0.75986  0.26628  Biso   1.000  N
  H1722    1.0000 0.26947  0.77623  0.22295  Biso   1.000  H
  N231     1.0000 0.10771  0.57349  0.56707  Biso   1.000  N
  H1723    1.0000 0.12198  0.60872  0.64012  Biso   1.000  H
  C1651    1.0000 0.02608  0.56019  0.62934  Biso   1.000  C
  C1652    1.0000 0.01942  0.65259  0.66072  Biso   1.000  C
  H1724    1.0000 0.11619  0.70522  0.66870  Biso   1.000  H
  H1725    1.0000 0.09020  0.73560  0.62899  Biso   1.000  H
  C1653    1.0000 0.16901  0.53996  0.28011  Biso   1.000  C
  C1654    1.0000 0.19311  0.48870  0.34931  Biso   1.000  C
  C1655    1.0000 0.14889  0.55200  0.37085  Biso   1.000  C
  H1726    1.0000 0.12908  0.54170  0.47390  Biso   1.000  H
  H1727    1.0000 0.15992  0.55713  0.61039  Biso   1.000  H
  H1728    1.0000 0.41997  0.83826  0.22563  Biso   1.000  H
  C1656    1.0000 0.15741  0.73066  0.22232  Biso   1.000  C
  H1729    1.0000 0.02082  0.51993  0.63988  Biso   1.000  H
  C1657    1.0000 0.00966  0.58901  0.67518  Biso   1.000  C
  H1730    1.0000 0.99748  0.55299  0.60041  Biso   1.000  H
  H1731    1.0000 0.01189  0.67150  0.69130  Biso   1.000  H
  H1732    1.0000 0.98941  0.64780  0.63379  Biso   1.000  H
  O124     1.0000 0.16906  0.55276  0.22905  Biso   1.000  O
  C1658    1.0000 0.14690  0.56555  0.31797  Biso   1.000  C
  H1733    1.0000 0.20838  0.46246  0.35945  Biso   1.000  H
  H1734    1.0000 0.13419  0.56936  0.39562  Biso   1.000  H
  C1659    1.0000 0.10299  0.66684  0.23895  Biso   1.000  C
  H1735    1.0000 0.17994  0.72464  0.19323  Biso   1.000  H
  C1660    1.0000 0.13257  0.77317  0.20400  Biso   1.000  C
  H1736    1.0000 0.03581  0.59301  0.70518  Biso   1.000  H
  H1737    1.0000 0.96611  0.56160  0.68509  Biso   1.000  H
  H1738    1.0000 0.16175  0.58172  0.22563  Biso   1.000  H
  C1661    1.0000 0.12469  0.60820  0.30221  Biso   1.000  C
  N232     1.0000 0.12521  0.62405  0.25417  Biso   1.000  N
  H1739    1.0000 0.08095  0.67253  0.26875  Biso   1.000  H
  C1662    1.0000 0.05698  0.63722  0.19299  Biso   1.000  C
  H1740    1.0000 0.16758  0.81347  0.19343  Biso   1.000  H
  H1741    1.0000 0.11116  0.78037  0.23294  Biso   1.000  H
  C1663    1.0000 0.08733  0.74434  0.15816  Biso   1.000  C
  H1742    1.0000 0.10976  0.62442  0.32784  Biso   1.000  H
  C1664    1.0000 0.03351  0.68076  0.17263  Biso   1.000  C
  H1743    1.0000 0.07765  0.62814  0.16465  Biso   1.000  H
  H1744    1.0000 0.02129  0.59776  0.20432  Biso   1.000  H
  H1745    1.0000 0.10948  0.74035  0.12813  Biso   1.000  H
  H1746    1.0000 0.07118  0.77176  0.14822  Biso   1.000  H
  H1747    1.0000 0.00829  0.68556  0.19952  Biso   1.000  H
  H1748    1.0000 0.00707  0.66186  0.14204  Biso   1.000  H
