data_image0
_cell_length_a       24.555
_cell_length_b       24.554
_cell_length_c       25.436
_cell_angle_alpha    90
_cell_angle_beta     90
_cell_angle_gamma    120

_symmetry_space_group_name_H-M    "P 1"
_symmetry_int_tables_number       1

loop_
  _symmetry_equiv_pos_as_xyz
  'x, y, z'

loop_
  _atom_site_label
  _atom_site_occupancy
  _atom_site_fract_x
  _atom_site_fract_y
  _atom_site_fract_z
  _atom_site_thermal_displace_type
  _atom_site_B_iso_or_equiv
  _atom_site_type_symbol
  C1       1.0000 0.70423  0.20659  0.44681  Biso   1.000  C
  C2       1.0000 0.64186  0.16770  0.46293  Biso   1.000  C
  O1       1.0000 0.71704  0.21943  0.39570  Biso   1.000  O
  C3       1.0000 0.75192  0.23217  0.48467  Biso   1.000  C
  C4       1.0000 0.59157  0.14531  0.42385  Biso   1.000  C
  C5       1.0000 0.62890  0.15538  0.51596  Biso   1.000  C
  H1       1.0000 0.75327  0.24840  0.39232  Biso   1.000  H
  C6       1.0000 0.73642  0.21868  0.53751  Biso   1.000  C
  C7       1.0000 0.81680  0.27487  0.46886  Biso   1.000  C
  N1       1.0000 0.53423  0.10769  0.43293  Biso   1.000  N
  H2       1.0000 0.60277  0.15989  0.38961  Biso   1.000  H
  H3       1.0000 0.58737  0.12909  0.52610  Biso   1.000  H
  C8       1.0000 0.67496  0.18030  0.55488  Biso   1.000  C
  H4       1.0000 0.76848  0.23598  0.56231  Biso   1.000  H
  N2       1.0000 0.83212  0.29067  0.42086  Biso   1.000  N
  H5       1.0000 0.84797  0.29110  0.49450  Biso   1.000  H
  C9       1.0000 0.49074  0.09344  0.38898  Biso   1.000  C
  C10      1.0000 0.65833  0.17198  0.61177  Biso   1.000  C
  C11      1.0000 0.89715  0.33352  0.40561  Biso   1.000  C
  C12      1.0000 0.43629  0.10280  0.40561  Biso   1.000  C
  H6       1.0000 0.51328  0.12199  0.35988  Biso   1.000  H
  C13      1.0000 0.46591  0.02610  0.37066  Biso   1.000  C
  C14      1.0000 0.70443  0.19314  0.65069  Biso   1.000  C
  C15      1.0000 0.59686  0.14889  0.62915  Biso   1.000  C
  C16      1.0000 0.90654  0.39733  0.38898  Biso   1.000  C
  H7       1.0000 0.92488  0.33921  0.43541  Biso   1.000  H
  C17      1.0000 0.91355  0.30384  0.35965  Biso   1.000  C
  N3       1.0000 0.45853  0.16789  0.42086  Biso   1.000  N
  H8       1.0000 0.41430  0.07510  0.43541  Biso   1.000  H
  C18      1.0000 0.39027  0.08644  0.35965  Biso   1.000  C
  H9       1.0000 0.50088  0.02079  0.36012  Biso   1.000  H
  C19      1.0000 0.42062  0.00964  0.32482  Biso   1.000  C
  H10      1.0000 0.44451  0.99755  0.39959  Biso   1.000  H
  C20      1.0000 0.69145  0.19253  0.70377  Biso   1.000  C
  H11      1.0000 0.74593  0.20838  0.64055  Biso   1.000  H
  C21      1.0000 0.58137  0.14691  0.68203  Biso   1.000  C
  H12      1.0000 0.56482  0.13417  0.60438  Biso   1.000  H
  N4       1.0000 0.89226  0.42653  0.43293  Biso   1.000  N
  H13      1.0000 0.87799  0.39131  0.35988  Biso   1.000  H
  C22      1.0000 0.97387  0.43980  0.37066  Biso   1.000  C
  C23      1.0000 0.98055  0.34744  0.33928  Biso   1.000  C
  H14      1.0000 0.88379  0.29481  0.33130  Biso   1.000  H
  H15      1.0000 0.90979  0.26439  0.37101  Biso   1.000  H
  C24      1.0000 0.45802  0.18317  0.46886  Biso   1.000  C
  C25      1.0000 0.36683  0.01942  0.33928  Biso   1.000  C
  H16      1.0000 0.41098  0.11620  0.33130  Biso   1.000  H
  H17      1.0000 0.35461  0.09020  0.37101  Biso   1.000  H
  H18      1.0000 0.44278  0.03579  0.29482  Biso   1.000  H
  H19      1.0000 0.40449  0.96614  0.31491  Biso   1.000  H
  C26      1.0000 0.62908  0.16901  0.71989  Biso   1.000  C
  C27      1.0000 0.74174  0.22037  0.74281  Biso   1.000  C
  C28      1.0000 0.51652  0.12472  0.69779  Biso   1.000  C
  C29      1.0000 0.85470  0.44629  0.42385  Biso   1.000  C
  H20      1.0000 0.97916  0.48010  0.36012  Biso   1.000  H
  C30      1.0000 0.99031  0.41102  0.32482  Biso   1.000  C
  H21      1.0000 0.00247  0.44699  0.39959  Biso   1.000  H
  H22      1.0000 0.98806  0.32848  0.30870  Biso   1.000  H
  H23      1.0000 0.01058  0.35219  0.36621  Biso   1.000  H
  C31      1.0000 0.48025  0.24807  0.48467  Biso   1.000  C
  H24      1.0000 0.44309  0.15199  0.49450  Biso   1.000  H
  H25      1.0000 0.34038  0.01190  0.30870  Biso   1.000  H
  H26      1.0000 0.34160  0.98942  0.36621  Biso   1.000  H
  O2       1.0000 0.61627  0.16906  0.77095  Biso   1.000  O
  N5       1.0000 0.79906  0.24012  0.73372  Biso   1.000  N
  H27      1.0000 0.73052  0.22375  0.77705  Biso   1.000  H
  N6       1.0000 0.50118  0.12523  0.74583  Biso   1.000  N
  H28      1.0000 0.48530  0.10976  0.67216  Biso   1.000  H
  C32      1.0000 0.83227  0.47417  0.46293  Biso   1.000  C
  H29      1.0000 0.84009  0.44290  0.38961  Biso   1.000  H
  H30      1.0000 0.96420  0.40702  0.29482  Biso   1.000  H
  H31      1.0000 0.03389  0.43839  0.31491  Biso   1.000  H
  C33      1.0000 0.50234  0.29575  0.44681  Biso   1.000  C
  C34      1.0000 0.48220  0.26354  0.53751  Biso   1.000  C
  H32      1.0000 0.58001  0.16177  0.77437  Biso   1.000  H
  C35      1.0000 0.84254  0.26932  0.77768  Biso   1.000  C
  C36      1.0000 0.43614  0.10299  0.76105  Biso   1.000  C
  C37      1.0000 0.79341  0.49769  0.44681  Biso   1.000  C
  C38      1.0000 0.84463  0.47356  0.51596  Biso   1.000  C
  O3       1.0000 0.50238  0.28296  0.39570  Biso   1.000  O
  C39      1.0000 0.52584  0.35816  0.46293  Biso   1.000  C
  C40      1.0000 0.50528  0.32500  0.55488  Biso   1.000  C
  H33      1.0000 0.46749  0.23151  0.56231  Biso   1.000  H
  C41      1.0000 0.89699  0.33319  0.76105  Biso   1.000  C
  H34      1.0000 0.82004  0.27539  0.80677  Biso   1.000  H
  C42      1.0000 0.86741  0.22686  0.79600  Biso   1.000  C
  C43      1.0000 0.42673  0.15740  0.77768  Biso   1.000  C
  H35      1.0000 0.40844  0.08098  0.73125  Biso   1.000  H
  C44      1.0000 0.41976  0.05695  0.80701  Biso   1.000  C
  C45      1.0000 0.76781  0.51979  0.48467  Biso   1.000  C
  O4       1.0000 0.78055  0.49764  0.39570  Biso   1.000  O
  C46      1.0000 0.81970  0.49472  0.55488  Biso   1.000  C
  H36      1.0000 0.87090  0.45832  0.52610  Biso   1.000  H
  H37      1.0000 0.49508  0.24670  0.39232  Biso   1.000  H
  C47      1.0000 0.52645  0.37109  0.51596  Biso   1.000  C
  C48      1.0000 0.55371  0.40843  0.42385  Biso   1.000  C
  C49      1.0000 0.51360  0.34165  0.61177  Biso   1.000  C
  N7       1.0000 0.87477  0.37598  0.74583  Biso   1.000  N
  H38      1.0000 0.91903  0.32750  0.73125  Biso   1.000  H
  C50      1.0000 0.94304  0.36281  0.80701  Biso   1.000  C
  H39      1.0000 0.83239  0.18656  0.80657  Biso   1.000  H
  H40      1.0000 0.88881  0.21966  0.76706  Biso   1.000  H
  C51      1.0000 0.91265  0.25569  0.84184  Biso   1.000  C
  N8       1.0000 0.44103  0.20090  0.73372  Biso   1.000  N
  H41      1.0000 0.45533  0.17997  0.80677  Biso   1.000  H
  C52      1.0000 0.35942  0.13257  0.79600  Biso   1.000  C
  C53      1.0000 0.35274  0.03353  0.82737  Biso   1.000  C
  H42      1.0000 0.44955  0.07769  0.83535  Biso   1.000  H
  H43      1.0000 0.42354  0.02126  0.79568  Biso   1.000  H
  C54      1.0000 0.72512  0.54194  0.46886  Biso   1.000  C
  C55      1.0000 0.78129  0.51777  0.53751  Biso   1.000  C
  H44      1.0000 0.75158  0.50493  0.39232  Biso   1.000  H
  C56      1.0000 0.82800  0.48640  0.61177  Biso   1.000  C
  H45      1.0000 0.54171  0.41261  0.52610  Biso   1.000  H
  N9       1.0000 0.57345  0.46576  0.43293  Biso   1.000  N
  H46      1.0000 0.55709  0.39719  0.38961  Biso   1.000  H
  C57      1.0000 0.48868  0.29556  0.65069  Biso   1.000  C
  C58      1.0000 0.55199  0.40312  0.62915  Biso   1.000  C
  C59      1.0000 0.87526  0.39178  0.69779  Biso   1.000  C
  C60      1.0000 0.96647  0.31927  0.82737  Biso   1.000  C
  H47      1.0000 0.92232  0.37189  0.83535  Biso   1.000  H
  H48      1.0000 0.97873  0.40227  0.79568  Biso   1.000  H
  H49      1.0000 0.89054  0.25968  0.87187  Biso   1.000  H
  H50      1.0000 0.92883  0.22827  0.85178  Biso   1.000  H
  C61      1.0000 0.47863  0.25827  0.74281  Biso   1.000  C
  H51      1.0000 0.35411  0.16756  0.80657  Biso   1.000  H
  H52      1.0000 0.33084  0.11117  0.76706  Biso   1.000  H
  C62      1.0000 0.34299  0.08733  0.84184  Biso   1.000  C
  H53      1.0000 0.32273  0.00828  0.80048  Biso   1.000  H
  H54      1.0000 0.34521  0.00705  0.85796  Biso   1.000  H
  N10      1.0000 0.70929  0.54147  0.42086  Biso   1.000  N
  H55      1.0000 0.70886  0.55689  0.49450  Biso   1.000  H
  H56      1.0000 0.76400  0.53253  0.56231  Biso   1.000  H
  C63      1.0000 0.80686  0.51132  0.65069  Biso   1.000  C
  C64      1.0000 0.85109  0.44803  0.62915  Biso   1.000  C
  C65      1.0000 0.60265  0.50926  0.38898  Biso   1.000  C
  C66      1.0000 0.50104  0.30854  0.70377  Biso   1.000  C
  H57      1.0000 0.46245  0.25409  0.64055  Biso   1.000  H
  C67      1.0000 0.56553  0.41863  0.68203  Biso   1.000  C
  H58      1.0000 0.56933  0.43519  0.60438  Biso   1.000  H
  C68      1.0000 0.85307  0.43448  0.68203  Biso   1.000  C
  H59      1.0000 0.89019  0.37556  0.67216  Biso   1.000  H
  H60      1.0000 0.99172  0.31447  0.80048  Biso   1.000  H
  H61      1.0000 0.99290  0.33817  0.85796  Biso   1.000  H
  H62      1.0000 0.49323  0.26946  0.77705  Biso   1.000  H
  H63      1.0000 0.36913  0.10948  0.87187  Biso   1.000  H
  H64      1.0000 0.29943  0.07115  0.85178  Biso   1.000  H
  C69      1.0000 0.66649  0.56371  0.40561  Biso   1.000  C
  C70      1.0000 0.80748  0.49896  0.70377  Biso   1.000  C
  H65      1.0000 0.79160  0.53757  0.64055  Biso   1.000  H
  H66      1.0000 0.86583  0.43067  0.60438  Biso   1.000  H
  H67      1.0000 0.60870  0.48673  0.35988  Biso   1.000  H
  C71      1.0000 0.56019  0.53413  0.37066  Biso   1.000  C
  C72      1.0000 0.53994  0.37095  0.71989  Biso   1.000  C
  C73      1.0000 0.60818  0.48348  0.69779  Biso   1.000  C
  C74      1.0000 0.83096  0.46006  0.71989  Biso   1.000  C
  H68      1.0000 0.66080  0.58572  0.43541  Biso   1.000  H
  C75      1.0000 0.69612  0.60970  0.35965  Biso   1.000  C
  C76      1.0000 0.77960  0.52139  0.74281  Biso   1.000  C
  H69      1.0000 0.51987  0.49910  0.36012  Biso   1.000  H
  H70      1.0000 0.55301  0.55553  0.39959  Biso   1.000  H
  C77      1.0000 0.58900  0.57937  0.32482  Biso   1.000  C
  O5       1.0000 0.55274  0.38369  0.77095  Biso   1.000  O
  N11      1.0000 0.62399  0.49882  0.74583  Biso   1.000  N
  H71      1.0000 0.62442  0.51466  0.67216  Biso   1.000  H
  O6       1.0000 0.83096  0.44727  0.77095  Biso   1.000  O
  C78      1.0000 0.65255  0.63317  0.33928  Biso   1.000  C
  H72      1.0000 0.70521  0.58901  0.33130  Biso   1.000  H
  H73      1.0000 0.73560  0.64540  0.37101  Biso   1.000  H
  N12      1.0000 0.75986  0.55896  0.73372  Biso   1.000  N
  H74      1.0000 0.77620  0.50676  0.77705  Biso   1.000  H
  H75      1.0000 0.59300  0.55722  0.29482  Biso   1.000  H
  H76      1.0000 0.56160  0.59550  0.31491  Biso   1.000  H
  H77      1.0000 0.58173  0.42000  0.77437  Biso   1.000  H
  C79      1.0000 0.66681  0.56385  0.76105  Biso   1.000  C
  H78      1.0000 0.83820  0.41826  0.77437  Biso   1.000  H
  H79      1.0000 0.64779  0.65842  0.36621  Biso   1.000  H
  H80      1.0000 0.67147  0.65960  0.30870  Biso   1.000  H
  C80      1.0000 0.73064  0.57326  0.77768  Biso   1.000  C
  H81      1.0000 0.67253  0.59160  0.73125  Biso   1.000  H
  C81      1.0000 0.63716  0.58022  0.80701  Biso   1.000  C
  H82      1.0000 0.72461  0.54467  0.80677  Biso   1.000  H
  C82      1.0000 0.77315  0.64060  0.79600  Biso   1.000  C
  C83      1.0000 0.68074  0.64728  0.82737  Biso   1.000  C
  H83      1.0000 0.62812  0.55050  0.83535  Biso   1.000  H
  H84      1.0000 0.59773  0.57646  0.79568  Biso   1.000  H
  H85      1.0000 0.81341  0.64587  0.80657  Biso   1.000  H
  H86      1.0000 0.78032  0.66919  0.76706  Biso   1.000  H
  C84      1.0000 0.74429  0.65701  0.84184  Biso   1.000  C
  H87      1.0000 0.68552  0.67728  0.80048  Biso   1.000  H
  H88      1.0000 0.66180  0.65476  0.85796  Biso   1.000  H
  H89      1.0000 0.74030  0.63087  0.87187  Biso   1.000  H
  H90      1.0000 0.77169  0.70056  0.85178  Biso   1.000  H
  O7       1.0000 0.83093  0.38369  0.27095  Biso   1.000  O
  C85      1.0000 0.83100  0.37095  0.21989  Biso   1.000  C
  H91      1.0000 0.83821  0.42000  0.27437  Biso   1.000  H
  C86      1.0000 0.85309  0.41863  0.18203  Biso   1.000  C
  C87      1.0000 0.80745  0.30854  0.20377  Biso   1.000  C
  C88      1.0000 0.87525  0.48348  0.19779  Biso   1.000  C
  C89      1.0000 0.85107  0.40312  0.12915  Biso   1.000  C
  C90      1.0000 0.77963  0.25827  0.24281  Biso   1.000  C
  C91      1.0000 0.80683  0.29556  0.15069  Biso   1.000  C
  N13      1.0000 0.87477  0.49882  0.24583  Biso   1.000  N
  H92      1.0000 0.89023  0.51466  0.17216  Biso   1.000  H
  C92      1.0000 0.82800  0.34165  0.11177  Biso   1.000  C
  H93      1.0000 0.86580  0.43519  0.10438  Biso   1.000  H
  N14      1.0000 0.75982  0.20090  0.23372  Biso   1.000  N
  H94      1.0000 0.77623  0.26946  0.27705  Biso   1.000  H
  H95      1.0000 0.79163  0.25409  0.14055  Biso   1.000  H
  C93      1.0000 0.89698  0.56385  0.26105  Biso   1.000  C
  C94      1.0000 0.81967  0.32500  0.05488  Biso   1.000  C
  C95      1.0000 0.73062  0.15740  0.27768  Biso   1.000  C
  C96      1.0000 0.84255  0.57326  0.27768  Biso   1.000  C
  H96      1.0000 0.91904  0.59160  0.23125  Biso   1.000  H
  C97      1.0000 0.94300  0.58022  0.30701  Biso   1.000  C
  C98      1.0000 0.84459  0.37109  0.01596  Biso   1.000  C
  C99      1.0000 0.78129  0.26354  0.03751  Biso   1.000  C
  C100     1.0000 0.66681  0.10299  0.26105  Biso   1.000  C
  H97      1.0000 0.72464  0.17997  0.30677  Biso   1.000  H
  C101     1.0000 0.77314  0.13257  0.29600  Biso   1.000  C
  N15      1.0000 0.79908  0.55896  0.23372  Biso   1.000  N
  H98      1.0000 0.81999  0.54467  0.30677  Biso   1.000  H
  C102     1.0000 0.86743  0.64060  0.29600  Biso   1.000  C
  C103     1.0000 0.96647  0.64728  0.32737  Biso   1.000  C
  H99      1.0000 0.92232  0.55050  0.33535  Biso   1.000  H
  H100     1.0000 0.97871  0.57646  0.29568  Biso   1.000  H
  C104     1.0000 0.83226  0.35816  0.96293  Biso   1.000  C
  H101     1.0000 0.87089  0.41261  0.02610  Biso   1.000  H
  C105     1.0000 0.76781  0.24807  0.98467  Biso   1.000  C
  H102     1.0000 0.76397  0.23151  0.06231  Biso   1.000  H
  N16      1.0000 0.62401  0.12523  0.24583  Biso   1.000  N
  H103     1.0000 0.67254  0.08098  0.23125  Biso   1.000  H
  C106     1.0000 0.63715  0.05695  0.30701  Biso   1.000  C
  H104     1.0000 0.81340  0.16756  0.30657  Biso   1.000  H
  H105     1.0000 0.78032  0.11117  0.26706  Biso   1.000  H
  C107     1.0000 0.74429  0.08733  0.34184  Biso   1.000  C
  C108     1.0000 0.74173  0.52139  0.24281  Biso   1.000  C
  H106     1.0000 0.83243  0.64587  0.30657  Biso   1.000  H
  H107     1.0000 0.88881  0.66919  0.26706  Biso   1.000  H
  C109     1.0000 0.91265  0.65701  0.34184  Biso   1.000  C
  H108     1.0000 0.99173  0.67728  0.30048  Biso   1.000  H
  H109     1.0000 0.99289  0.65476  0.35796  Biso   1.000  H
  C110     1.0000 0.85471  0.40843  0.92385  Biso   1.000  C
  C111     1.0000 0.79340  0.29575  0.94681  Biso   1.000  C
  C112     1.0000 0.72510  0.18317  0.96886  Biso   1.000  C
  C113     1.0000 0.60819  0.12472  0.19779  Biso   1.000  C
  C114     1.0000 0.68074  0.03353  0.32737  Biso   1.000  C
  H110     1.0000 0.62813  0.07769  0.33535  Biso   1.000  H
  H111     1.0000 0.59772  0.02126  0.29568  Biso   1.000  H
  H112     1.0000 0.74034  0.10948  0.37187  Biso   1.000  H
  H113     1.0000 0.77172  0.07115  0.35178  Biso   1.000  H
  C115     1.0000 0.69146  0.49896  0.20377  Biso   1.000  C
  H114     1.0000 0.73050  0.50676  0.27705  Biso   1.000  H
  H115     1.0000 0.89050  0.63087  0.37187  Biso   1.000  H
  H116     1.0000 0.92880  0.70056  0.35178  Biso   1.000  H
  N17      1.0000 0.89225  0.46576  0.93293  Biso   1.000  N
  H117     1.0000 0.84009  0.39719  0.88961  Biso   1.000  H
  O8       1.0000 0.78057  0.28296  0.89570  Biso   1.000  O
  N18      1.0000 0.70931  0.16789  0.92086  Biso   1.000  N
  H118     1.0000 0.70890  0.15199  0.99450  Biso   1.000  H
  C116     1.0000 0.56553  0.14691  0.18203  Biso   1.000  C
  H119     1.0000 0.62442  0.10976  0.17216  Biso   1.000  H
  H120     1.0000 0.68551  0.00828  0.30048  Biso   1.000  H
  H121     1.0000 0.66180  0.00705  0.35796  Biso   1.000  H
  C117     1.0000 0.62905  0.46006  0.21989  Biso   1.000  C
  C118     1.0000 0.70444  0.51132  0.15069  Biso   1.000  C
  C119     1.0000 0.90654  0.50926  0.88898  Biso   1.000  C
  H122     1.0000 0.75157  0.24670  0.89232  Biso   1.000  H
  C120     1.0000 0.66647  0.10280  0.90561  Biso   1.000  C
  C121     1.0000 0.53993  0.16901  0.21989  Biso   1.000  C
  C122     1.0000 0.55198  0.14889  0.12915  Biso   1.000  C
  C123     1.0000 0.58135  0.43448  0.18203  Biso   1.000  C
  O9       1.0000 0.61630  0.44727  0.27095  Biso   1.000  O
  C124     1.0000 0.65834  0.48640  0.11177  Biso   1.000  C
  H123     1.0000 0.74590  0.53757  0.14055  Biso   1.000  H
  C125     1.0000 0.89716  0.56371  0.90561  Biso   1.000  C
  H124     1.0000 0.87801  0.48673  0.85988  Biso   1.000  H
  C126     1.0000 0.97392  0.53413  0.87066  Biso   1.000  C
  C127     1.0000 0.60266  0.09344  0.88898  Biso   1.000  C
  H125     1.0000 0.66080  0.07510  0.93541  Biso   1.000  H
  C128     1.0000 0.69612  0.08644  0.85965  Biso   1.000  C
  C129     1.0000 0.50103  0.19253  0.20377  Biso   1.000  C
  O10      1.0000 0.55274  0.16906  0.27095  Biso   1.000  O
  C130     1.0000 0.51360  0.17198  0.11177  Biso   1.000  C
  H126     1.0000 0.56930  0.13417  0.10438  Biso   1.000  H
  C131     1.0000 0.51651  0.39178  0.19779  Biso   1.000  C
  C132     1.0000 0.59688  0.44803  0.12915  Biso   1.000  C
  H127     1.0000 0.58000  0.41826  0.27437  Biso   1.000  H
  C133     1.0000 0.67496  0.49472  0.05488  Biso   1.000  C
  N19      1.0000 0.83212  0.54147  0.92086  Biso   1.000  N
  H128     1.0000 0.92490  0.58572  0.93541  Biso   1.000  H
  C134     1.0000 0.91351  0.60970  0.85965  Biso   1.000  C
  H129     1.0000 0.97917  0.49910  0.86012  Biso   1.000  H
  C135     1.0000 0.99031  0.57937  0.82482  Biso   1.000  C
  H130     1.0000 0.00249  0.55553  0.89959  Biso   1.000  H
  N20      1.0000 0.57345  0.10769  0.93293  Biso   1.000  N
  H131     1.0000 0.60866  0.12199  0.85988  Biso   1.000  H
  C136     1.0000 0.56019  0.02610  0.87066  Biso   1.000  C
  C137     1.0000 0.65255  0.01942  0.83928  Biso   1.000  C
  H132     1.0000 0.70518  0.11620  0.83130  Biso   1.000  H
  H133     1.0000 0.73559  0.09020  0.87101  Biso   1.000  H
  C138     1.0000 0.47862  0.22037  0.24281  Biso   1.000  C
  C139     1.0000 0.48871  0.19314  0.15069  Biso   1.000  C
  H134     1.0000 0.58172  0.16177  0.27437  Biso   1.000  H
  C140     1.0000 0.50530  0.18030  0.05488  Biso   1.000  C
  N21      1.0000 0.50120  0.37598  0.24583  Biso   1.000  N
  H135     1.0000 0.48531  0.37556  0.17216  Biso   1.000  H
  H136     1.0000 0.56483  0.43067  0.10438  Biso   1.000  H
  C141     1.0000 0.62891  0.47356  0.01596  Biso   1.000  C
  C142     1.0000 0.73641  0.51777  0.03751  Biso   1.000  C
  C143     1.0000 0.81679  0.54194  0.96886  Biso   1.000  C
  C144     1.0000 0.98055  0.63317  0.83928  Biso   1.000  C
  H137     1.0000 0.88378  0.58901  0.83130  Biso   1.000  H
  H138     1.0000 0.90978  0.64540  0.87101  Biso   1.000  H
  H139     1.0000 0.96420  0.55722  0.79482  Biso   1.000  H
  H140     1.0000 0.03388  0.59550  0.81491  Biso   1.000  H
  C145     1.0000 0.55370  0.14531  0.92385  Biso   1.000  C
  H141     1.0000 0.55300  0.99755  0.89959  Biso   1.000  H
  H142     1.0000 0.51990  0.02079  0.86012  Biso   1.000  H
  C146     1.0000 0.58898  0.00964  0.82482  Biso   1.000  C
  H143     1.0000 0.64777  0.98942  0.86621  Biso   1.000  H
  H144     1.0000 0.67148  0.01190  0.80870  Biso   1.000  H
  N22      1.0000 0.44101  0.24012  0.23372  Biso   1.000  N
  H145     1.0000 0.49322  0.22375  0.27705  Biso   1.000  H
  H146     1.0000 0.46244  0.20838  0.14055  Biso   1.000  H
  C147     1.0000 0.52647  0.15538  0.01596  Biso   1.000  C
  C148     1.0000 0.48221  0.21868  0.03751  Biso   1.000  C
  C149     1.0000 0.43614  0.33319  0.26105  Biso   1.000  C
  H147     1.0000 0.58741  0.45832  0.02610  Biso   1.000  H
  C150     1.0000 0.64184  0.47417  0.96293  Biso   1.000  C
  H148     1.0000 0.76848  0.53253  0.06231  Biso   1.000  H
  C151     1.0000 0.75196  0.51979  0.98467  Biso   1.000  C
  H149     1.0000 0.84797  0.55689  0.99450  Biso   1.000  H
  H150     1.0000 0.98806  0.65960  0.80870  Biso   1.000  H
  H151     1.0000 0.01061  0.65842  0.86621  Biso   1.000  H
  C152     1.0000 0.52583  0.16770  0.96293  Biso   1.000  C
  H152     1.0000 0.55708  0.15989  0.88961  Biso   1.000  H
  H153     1.0000 0.56161  0.96614  0.81491  Biso   1.000  H
  H154     1.0000 0.59297  0.03579  0.79482  Biso   1.000  H
  C153     1.0000 0.42674  0.26932  0.27768  Biso   1.000  C
  H155     1.0000 0.54167  0.12909  0.02610  Biso   1.000  H
  H156     1.0000 0.46749  0.23598  0.06231  Biso   1.000  H
  C154     1.0000 0.48020  0.23217  0.98467  Biso   1.000  C
  C155     1.0000 0.41976  0.36281  0.30701  Biso   1.000  C
  H157     1.0000 0.40842  0.32750  0.23125  Biso   1.000  H
  C156     1.0000 0.70426  0.49769  0.94681  Biso   1.000  C
  C157     1.0000 0.59157  0.44629  0.92385  Biso   1.000  C
  C158     1.0000 0.50231  0.20659  0.94681  Biso   1.000  C
  C159     1.0000 0.35940  0.22686  0.29600  Biso   1.000  C
  H158     1.0000 0.45534  0.27539  0.30677  Biso   1.000  H
  C160     1.0000 0.45806  0.27487  0.96886  Biso   1.000  C
  C161     1.0000 0.35274  0.31927  0.32737  Biso   1.000  C
  H159     1.0000 0.44955  0.37189  0.33535  Biso   1.000  H
  H160     1.0000 0.42352  0.40227  0.29568  Biso   1.000  H
  O11      1.0000 0.71702  0.49764  0.89570  Biso   1.000  O
  N23      1.0000 0.53421  0.42653  0.93293  Biso   1.000  N
  H161     1.0000 0.60279  0.44290  0.88961  Biso   1.000  H
  O12      1.0000 0.50238  0.21943  0.89570  Biso   1.000  O
  C162     1.0000 0.34299  0.25569  0.34184  Biso   1.000  C
  H162     1.0000 0.35412  0.18656  0.30657  Biso   1.000  H
  H163     1.0000 0.33084  0.21966  0.26706  Biso   1.000  H
  N24      1.0000 0.45855  0.29067  0.92086  Biso   1.000  N
  H164     1.0000 0.44308  0.29110  0.99450  Biso   1.000  H
  H165     1.0000 0.32273  0.31447  0.30048  Biso   1.000  H
  H166     1.0000 0.34521  0.33817  0.35796  Biso   1.000  H
  H167     1.0000 0.75329  0.50493  0.89232  Biso   1.000  H
  C163     1.0000 0.49074  0.39733  0.88898  Biso   1.000  C
  H168     1.0000 0.49507  0.24840  0.89232  Biso   1.000  H
  H169     1.0000 0.36914  0.25968  0.37187  Biso   1.000  H
  H170     1.0000 0.29943  0.22827  0.35178  Biso   1.000  H
  C164     1.0000 0.43631  0.33352  0.90561  Biso   1.000  C
  H171     1.0000 0.51330  0.39131  0.85988  Biso   1.000  H
  C165     1.0000 0.46587  0.43980  0.87066  Biso   1.000  C
  H172     1.0000 0.41427  0.33921  0.93541  Biso   1.000  H
  C166     1.0000 0.39028  0.30384  0.85965  Biso   1.000  C
  H173     1.0000 0.50088  0.48010  0.86012  Biso   1.000  H
  H174     1.0000 0.44450  0.44699  0.89959  Biso   1.000  H
  C167     1.0000 0.42065  0.41102  0.82482  Biso   1.000  C
  C168     1.0000 0.36683  0.34744  0.83928  Biso   1.000  C
  H175     1.0000 0.41101  0.29481  0.83130  Biso   1.000  H
  H176     1.0000 0.35459  0.26439  0.87101  Biso   1.000  H
  H177     1.0000 0.44280  0.40702  0.79482  Biso   1.000  H
  H178     1.0000 0.40448  0.43839  0.81491  Biso   1.000  H
  H179     1.0000 0.34159  0.35219  0.86621  Biso   1.000  H
  H180     1.0000 0.34037  0.32848  0.80870  Biso   1.000  H
  C169     1.0000 0.75395  0.07764  0.49147  Biso   1.000  C
  C170     1.0000 0.79923  0.10647  0.53731  Biso   1.000  C
  C171     1.0000 0.70019  0.01411  0.50598  Biso   1.000  C
  H181     1.0000 0.77612  0.07369  0.46147  Biso   1.000  H
  H182     1.0000 0.73780  0.10506  0.48156  Biso   1.000  H
  C172     1.0000 0.82406  0.06400  0.55567  Biso   1.000  C
  H183     1.0000 0.83421  0.14677  0.52677  Biso   1.000  H
  H184     1.0000 0.77782  0.11366  0.56628  Biso   1.000  H
  H185     1.0000 0.67491  0.01886  0.53287  Biso   1.000  H
  H186     1.0000 0.67372  0.99520  0.47535  Biso   1.000  H
  C173     1.0000 0.72362  0.97056  0.52630  Biso   1.000  C
  N25      1.0000 0.86758  0.09321  0.59958  Biso   1.000  N
  H187     1.0000 0.84662  0.05798  0.52658  Biso   1.000  H
  C174     1.0000 0.76961  0.00014  0.57226  Biso   1.000  C
  H188     1.0000 0.74434  0.96148  0.49796  Biso   1.000  H
  H189     1.0000 0.68793  0.93111  0.53766  Biso   1.000  H
  C175     1.0000 0.92489  0.11296  0.59054  Biso   1.000  C
  H190     1.0000 0.74763  0.00588  0.60206  Biso   1.000  H
  N26      1.0000 0.79189  0.95739  0.58751  Biso   1.000  N
  C176     1.0000 0.97518  0.14080  0.62958  Biso   1.000  C
  H191     1.0000 0.93611  0.10957  0.55626  Biso   1.000  H
  C177     1.0000 0.79140  0.94159  0.63556  Biso   1.000  C
  C178     1.0000 0.96221  0.14019  0.68262  Biso   1.000  C
  C179     1.0000 0.03760  0.16431  0.61346  Biso   1.000  C
  C180     1.0000 0.81355  0.89889  0.65132  Biso   1.000  C
  H192     1.0000 0.77643  0.95782  0.66115  Biso   1.000  H
  H193     1.0000 0.92071  0.12495  0.69276  Biso   1.000  H
  C181     1.0000 0.00830  0.16135  0.72154  Biso   1.000  C
  O13      1.0000 0.05039  0.16431  0.56239  Biso   1.000  O
  C182     1.0000 0.08526  0.18641  0.65132  Biso   1.000  C
  C183     1.0000 0.83566  0.87331  0.61346  Biso   1.000  C
  C184     1.0000 0.81556  0.88540  0.70416  Biso   1.000  C
  C185     1.0000 0.99166  0.15307  0.77846  Biso   1.000  C
  C186     1.0000 0.06978  0.18444  0.70416  Biso   1.000  C
  H194     1.0000 0.08663  0.17155  0.55897  Biso   1.000  H
  C187     1.0000 0.15016  0.20861  0.63556  Biso   1.000  C
  O14      1.0000 0.83570  0.88610  0.56239  Biso   1.000  O
  C188     1.0000 0.85918  0.83442  0.62958  Biso   1.000  C
  C189     1.0000 0.83862  0.84697  0.72154  Biso   1.000  C
  H195     1.0000 0.80083  0.90270  0.72897  Biso   1.000  H
  C190     1.0000 0.93018  0.11465  0.79584  Biso   1.000  C
  C191     1.0000 0.03774  0.17795  0.81738  Biso   1.000  C
  H196     1.0000 0.10182  0.19916  0.72897  Biso   1.000  H
  N27      1.0000 0.16548  0.20814  0.58751  Biso   1.000  N
  H197     1.0000 0.18134  0.22357  0.66115  Biso   1.000  H
  H198     1.0000 0.82842  0.91512  0.55897  Biso   1.000  H
  C192     1.0000 0.85980  0.82205  0.68262  Biso   1.000  C
  C193     1.0000 0.88702  0.81199  0.59054  Biso   1.000  C
  C194     1.0000 0.84692  0.83865  0.77846  Biso   1.000  C
  C195     1.0000 0.91472  0.10116  0.84868  Biso   1.000  C
  H199     1.0000 0.89815  0.09735  0.77103  Biso   1.000  H
  C196     1.0000 0.02482  0.16563  0.87042  Biso   1.000  C
  H200     1.0000 0.07927  0.20424  0.80724  Biso   1.000  H
  C197     1.0000 0.23050  0.23034  0.57226  Biso   1.000  C
  H201     1.0000 0.87502  0.79581  0.69276  Biso   1.000  H
  N28      1.0000 0.90680  0.77441  0.59958  Biso   1.000  N
  H202     1.0000 0.89042  0.82661  0.55626  Biso   1.000  H
  C198     1.0000 0.82205  0.85986  0.81738  Biso   1.000  C
  C199     1.0000 0.88533  0.81561  0.79584  Biso   1.000  C
  C200     1.0000 0.96237  0.12674  0.88654  Biso   1.000  C
  C201     1.0000 0.84983  0.05845  0.86444  Biso   1.000  C
  C202     1.0000 0.07509  0.18806  0.90946  Biso   1.000  C
  C203     1.0000 0.23991  0.17593  0.55567  Biso   1.000  C
  H203     1.0000 0.25822  0.25239  0.60206  Biso   1.000  H
  C204     1.0000 0.24688  0.27638  0.52630  Biso   1.000  C
  C205     1.0000 0.93598  0.76012  0.55567  Biso   1.000  C
  C206     1.0000 0.83435  0.85920  0.87042  Biso   1.000  C
  H204     1.0000 0.79576  0.87505  0.80724  Biso   1.000  H
  C207     1.0000 0.89885  0.81359  0.84868  Biso   1.000  C
  H205     1.0000 0.90265  0.80089  0.77103  Biso   1.000  H
  O15      1.0000 0.94960  0.11390  0.93761  Biso   1.000  O
  N29      1.0000 0.83452  0.04265  0.91249  Biso   1.000  N
  H206     1.0000 0.81863  0.04223  0.83885  Biso   1.000  H
  N30      1.0000 0.13244  0.22564  0.90042  Biso   1.000  N
  H207     1.0000 0.06387  0.17344  0.94374  Biso   1.000  H
  N31      1.0000 0.22561  0.13243  0.59958  Biso   1.000  N
  H208     1.0000 0.21131  0.15335  0.52658  Biso   1.000  H
  C208     1.0000 0.30722  0.20076  0.53731  Biso   1.000  C
  C209     1.0000 0.31392  0.29984  0.50598  Biso   1.000  C
  H209     1.0000 0.21715  0.25569  0.49796  Biso   1.000  H
  H210     1.0000 0.24314  0.31207  0.53766  Biso   1.000  H
  H211     1.0000 0.94201  0.78871  0.52658  Biso   1.000  H
  C210     1.0000 0.99981  0.76952  0.57226  Biso   1.000  C
  C211     1.0000 0.89351  0.69277  0.53731  Biso   1.000  C
  C212     1.0000 0.87325  0.83569  0.88654  Biso   1.000  C
  C213     1.0000 0.81196  0.88709  0.90946  Biso   1.000  C
  C214     1.0000 0.94154  0.79144  0.86444  Biso   1.000  C
  H212     1.0000 0.91337  0.08493  0.94103  Biso   1.000  H
  C215     1.0000 0.76947  0.99986  0.92774  Biso   1.000  C
  C216     1.0000 0.17592  0.23993  0.94433  Biso   1.000  C
  C217     1.0000 0.18805  0.07506  0.59054  Biso   1.000  C
  H213     1.0000 0.31253  0.16577  0.52677  Biso   1.000  H
  H214     1.0000 0.33583  0.22216  0.56628  Biso   1.000  H
  C218     1.0000 0.32367  0.24605  0.49147  Biso   1.000  C
  H215     1.0000 0.34391  0.32505  0.53287  Biso   1.000  H
  H216     1.0000 0.32143  0.32627  0.47535  Biso   1.000  H
  H217     1.0000 0.99415  0.74182  0.60206  Biso   1.000  H
  N32      1.0000 0.04267  0.83456  0.58751  Biso   1.000  N
  C219     1.0000 0.02950  0.75316  0.52630  Biso   1.000  C
  H218     1.0000 0.85325  0.68751  0.52677  Biso   1.000  H
  H219     1.0000 0.88630  0.66418  0.56628  Biso   1.000  H
  C220     1.0000 0.92232  0.67636  0.49147  Biso   1.000  C
  O16      1.0000 0.88606  0.83573  0.93761  Biso   1.000  O
  N33      1.0000 0.77435  0.90684  0.90042  Biso   1.000  N
  H220     1.0000 0.82657  0.89047  0.94374  Biso   1.000  H
  N34      1.0000 0.95733  0.79191  0.91249  Biso   1.000  N
  H221     1.0000 0.95776  0.77648  0.83885  Biso   1.000  H
  C221     1.0000 0.75308  0.02949  0.97370  Biso   1.000  C
  C222     1.0000 0.76008  0.93604  0.94433  Biso   1.000  C
  H222     1.0000 0.74174  0.99417  0.89794  Biso   1.000  H
  H223     1.0000 0.15335  0.21134  0.97342  Biso   1.000  H
  C223     1.0000 0.23035  0.23053  0.92774  Biso   1.000  C
  C224     1.0000 0.20077  0.30723  0.96269  Biso   1.000  C
  C225     1.0000 0.16562  0.02483  0.62958  Biso   1.000  C
  H224     1.0000 0.17341  0.06386  0.55626  Biso   1.000  H
  H225     1.0000 0.29750  0.22385  0.46147  Biso   1.000  H
  H226     1.0000 0.36725  0.26218  0.48156  Biso   1.000  H
  C226     1.0000 0.05848  0.84989  0.63556  Biso   1.000  C
  C227     1.0000 0.98590  0.68614  0.50598  Biso   1.000  C
  H227     1.0000 0.03856  0.78292  0.49796  Biso   1.000  H
  H228     1.0000 0.06893  0.75692  0.53766  Biso   1.000  H
  H229     1.0000 0.92632  0.70251  0.46147  Biso   1.000  H
  H230     1.0000 0.89493  0.63281  0.48156  Biso   1.000  H
  H231     1.0000 0.91504  0.82845  0.94103  Biso   1.000  H
  C228     1.0000 0.00017  0.76966  0.92774  Biso   1.000  C
  H232     1.0000 0.75685  0.06894  0.96234  Biso   1.000  H
  C229     1.0000 0.68607  0.98594  0.99402  Biso   1.000  C
  H233     1.0000 0.78285  0.03852  0.00204  Biso   1.000  H
  H234     1.0000 0.78867  0.94206  0.97342  Biso   1.000  H
  C230     1.0000 0.69275  0.89358  0.96269  Biso   1.000  C
  N35      1.0000 0.20813  0.16549  0.91249  Biso   1.000  N
  H235     1.0000 0.25234  0.25823  0.89794  Biso   1.000  H
  C231     1.0000 0.27636  0.24689  0.97370  Biso   1.000  C
  H236     1.0000 0.16575  0.31254  0.97323  Biso   1.000  H
  H237     1.0000 0.22215  0.33582  0.93372  Biso   1.000  H
  C232     1.0000 0.24602  0.32369  0.00853  Biso   1.000  C
  C233     1.0000 0.12672  0.96243  0.61346  Biso   1.000  C
  C234     1.0000 0.17795  0.03776  0.68262  Biso   1.000  C
  C235     1.0000 0.10113  0.91474  0.65132  Biso   1.000  C
  H238     1.0000 0.04224  0.81871  0.66115  Biso   1.000  H
  H239     1.0000 0.98114  0.65609  0.53287  Biso   1.000  H
  H240     1.0000 0.00486  0.67862  0.47535  Biso   1.000  H
  C236     1.0000 0.97049  0.72367  0.97370  Biso   1.000  C
  C237     1.0000 0.06401  0.82412  0.94433  Biso   1.000  C
  H241     1.0000 0.00586  0.74765  0.89794  Biso   1.000  H
  H242     1.0000 0.65608  0.98119  0.96713  Biso   1.000  H
  C238     1.0000 0.67631  0.92236  0.00853  Biso   1.000  C
  H243     1.0000 0.67858  0.00484  0.02465  Biso   1.000  H
  H244     1.0000 0.68746  0.85328  0.97323  Biso   1.000  H
  H245     1.0000 0.66419  0.88638  0.93372  Biso   1.000  H
  C239     1.0000 0.20861  0.15016  0.86444  Biso   1.000  C
  C240     1.0000 0.29981  0.31391  0.99402  Biso   1.000  C
  H246     1.0000 0.31207  0.24313  0.96234  Biso   1.000  H
  H247     1.0000 0.25566  0.21712  0.00204  Biso   1.000  H
  H248     1.0000 0.22386  0.29754  0.03853  Biso   1.000  H
  H249     1.0000 0.26217  0.36723  0.01844  Biso   1.000  H
  O17      1.0000 0.11392  0.94968  0.56239  Biso   1.000  O
  C241     1.0000 0.15306  0.99172  0.72154  Biso   1.000  C
  H250     1.0000 0.20425  0.07929  0.69276  Biso   1.000  H
  C242     1.0000 0.11467  0.93026  0.70416  Biso   1.000  C
  H251     1.0000 0.93106  0.68798  0.96234  Biso   1.000  H
  H252     1.0000 0.96145  0.74436  0.00204  Biso   1.000  H
  C243     1.0000 0.01411  0.70020  0.99402  Biso   1.000  C
  N36      1.0000 0.09321  0.86762  0.90042  Biso   1.000  N
  H253     1.0000 0.05799  0.84669  0.97342  Biso   1.000  H
  C244     1.0000 0.10649  0.79929  0.96269  Biso   1.000  C
  H254     1.0000 0.70246  0.92636  0.03853  Biso   1.000  H
  H255     1.0000 0.63277  0.89499  0.01844  Biso   1.000  H
  C245     1.0000 0.18645  0.08531  0.84868  Biso   1.000  C
  H256     1.0000 0.22355  0.18134  0.83885  Biso   1.000  H
  H257     1.0000 0.32506  0.34396  0.96713  Biso   1.000  H
  H258     1.0000 0.32625  0.32143  0.02465  Biso   1.000  H
  H259     1.0000 0.08496  0.91342  0.55897  Biso   1.000  H
  C246     1.0000 0.16136  0.00832  0.77846  Biso   1.000  C
  H260     1.0000 0.09733  0.89819  0.72897  Biso   1.000  H
  H261     1.0000 0.99515  0.67377  0.02465  Biso   1.000  H
  H262     1.0000 0.01887  0.67495  0.96713  Biso   1.000  H
  C247     1.0000 0.07766  0.75400  0.00853  Biso   1.000  C
  C248     1.0000 0.11295  0.92494  0.90946  Biso   1.000  C
  H263     1.0000 0.14679  0.83428  0.97323  Biso   1.000  H
  H264     1.0000 0.11365  0.77784  0.93372  Biso   1.000  H
  C249     1.0000 0.16430  0.03757  0.88654  Biso   1.000  C
  C250     1.0000 0.18443  0.06979  0.79584  Biso   1.000  C
  C251     1.0000 0.14021  0.96228  0.81738  Biso   1.000  C
  H265     1.0000 0.07366  0.77615  0.03853  Biso   1.000  H
  H266     1.0000 0.10506  0.73787  0.01844  Biso   1.000  H
  C252     1.0000 0.14082  0.97522  0.87042  Biso   1.000  C
  H267     1.0000 0.10957  0.93618  0.94374  Biso   1.000  H
  O18      1.0000 0.16430  0.05037  0.93761  Biso   1.000  O
  H268     1.0000 0.19914  0.10181  0.77103  Biso   1.000  H
  H269     1.0000 0.12495  0.92076  0.80724  Biso   1.000  H
  H270     1.0000 0.17155  0.08662  0.94103  Biso   1.000  H
  C253     1.0000 0.43978  0.46590  0.62934  Biso   1.000  C
  C254     1.0000 0.39732  0.49077  0.61102  Biso   1.000  C
  H271     1.0000 0.48010  0.50093  0.63988  Biso   1.000  H
  H272     1.0000 0.44700  0.44450  0.60041  Biso   1.000  H
  C255     1.0000 0.41097  0.42066  0.67518  Biso   1.000  C
  N37      1.0000 0.42652  0.53427  0.56707  Biso   1.000  N
  H273     1.0000 0.39128  0.51330  0.64012  Biso   1.000  H
  C256     1.0000 0.33348  0.43632  0.59439  Biso   1.000  C
  C257     1.0000 0.34742  0.36686  0.66072  Biso   1.000  C
  H274     1.0000 0.40698  0.44281  0.70518  Biso   1.000  H
  H275     1.0000 0.43842  0.40453  0.68509  Biso   1.000  H
  C258     1.0000 0.44631  0.59160  0.57615  Biso   1.000  C
  N38      1.0000 0.29068  0.45856  0.57914  Biso   1.000  N
  H276     1.0000 0.33918  0.41431  0.56459  Biso   1.000  H
  C259     1.0000 0.30383  0.39028  0.64035  Biso   1.000  C
  H277     1.0000 0.35218  0.34160  0.63379  Biso   1.000  H
  H278     1.0000 0.32850  0.34043  0.69130  Biso   1.000  H
  C260     1.0000 0.47413  0.64187  0.53707  Biso   1.000  C
  H279     1.0000 0.44286  0.60279  0.61039  Biso   1.000  H
  C261     1.0000 0.27487  0.45804  0.53114  Biso   1.000  C
  H280     1.0000 0.29481  0.41102  0.66870  Biso   1.000  H
  H281     1.0000 0.26442  0.35463  0.62899  Biso   1.000  H
  C262     1.0000 0.47350  0.62889  0.48404  Biso   1.000  C
  C263     1.0000 0.49763  0.70428  0.55319  Biso   1.000  C
  C264     1.0000 0.23217  0.48024  0.51533  Biso   1.000  C
  H282     1.0000 0.29109  0.44309  0.50550  Biso   1.000  H
  C265     1.0000 0.49467  0.67498  0.44512  Biso   1.000  C
  H283     1.0000 0.45831  0.58741  0.47390  Biso   1.000  H
  C266     1.0000 0.51977  0.75196  0.51533  Biso   1.000  C
  O19      1.0000 0.49764  0.71707  0.60430  Biso   1.000  O
  C267     1.0000 0.21866  0.48221  0.46249  Biso   1.000  C
  C268     1.0000 0.20661  0.50234  0.55319  Biso   1.000  C
  C269     1.0000 0.48637  0.65838  0.38823  Biso   1.000  C
  C270     1.0000 0.51775  0.73644  0.46249  Biso   1.000  C
  C271     1.0000 0.54195  0.81686  0.53114  Biso   1.000  C
  H284     1.0000 0.50489  0.75333  0.60768  Biso   1.000  H
  C272     1.0000 0.18027  0.50530  0.44512  Biso   1.000  C
  H285     1.0000 0.23598  0.46750  0.43769  Biso   1.000  H
  C273     1.0000 0.16770  0.52586  0.53707  Biso   1.000  C
  O20      1.0000 0.21942  0.50239  0.60430  Biso   1.000  O
  C274     1.0000 0.44799  0.59691  0.37085  Biso   1.000  C
  C275     1.0000 0.51129  0.70446  0.34931  Biso   1.000  C
  H286     1.0000 0.53248  0.76851  0.43769  Biso   1.000  H
  N39      1.0000 0.54145  0.83214  0.57914  Biso   1.000  N
  H287     1.0000 0.55689  0.84804  0.50550  Biso   1.000  H
  C276     1.0000 0.17197  0.51363  0.38823  Biso   1.000  C
  C277     1.0000 0.15534  0.52647  0.48404  Biso   1.000  C
  C278     1.0000 0.14530  0.55370  0.57615  Biso   1.000  C
  H288     1.0000 0.24840  0.49510  0.60768  Biso   1.000  H
  C279     1.0000 0.43449  0.58139  0.31797  Biso   1.000  C
  H289     1.0000 0.43065  0.56484  0.39562  Biso   1.000  H
  C280     1.0000 0.49894  0.69148  0.29623  Biso   1.000  C
  H290     1.0000 0.53757  0.74594  0.35945  Biso   1.000  H
  C281     1.0000 0.56366  0.89718  0.59439  Biso   1.000  C
  C282     1.0000 0.19311  0.48870  0.34931  Biso   1.000  C
  C283     1.0000 0.14889  0.55200  0.37085  Biso   1.000  C
  H291     1.0000 0.12908  0.54170  0.47390  Biso   1.000  H
  N40      1.0000 0.10771  0.57349  0.56707  Biso   1.000  N
  H292     1.0000 0.15992  0.55713  0.61039  Biso   1.000  H
  C284     1.0000 0.39180  0.51654  0.30221  Biso   1.000  C
  C285     1.0000 0.46004  0.62908  0.28011  Biso   1.000  C
  C286     1.0000 0.52138  0.74176  0.25719  Biso   1.000  C
  C287     1.0000 0.50923  0.90659  0.61102  Biso   1.000  C
  H293     1.0000 0.58568  0.92493  0.56459  Biso   1.000  H
  C288     1.0000 0.60970  0.91359  0.64035  Biso   1.000  C
  C289     1.0000 0.19253  0.50107  0.29623  Biso   1.000  C
  H294     1.0000 0.20838  0.46246  0.35945  Biso   1.000  H
  C290     1.0000 0.14690  0.56555  0.31797  Biso   1.000  C
  H295     1.0000 0.13419  0.56936  0.39562  Biso   1.000  H
  C291     1.0000 0.09344  0.60270  0.61102  Biso   1.000  C
  N41      1.0000 0.37599  0.50121  0.25417  Biso   1.000  N
  H296     1.0000 0.37556  0.48537  0.32784  Biso   1.000  H
  O21      1.0000 0.44725  0.61629  0.22905  Biso   1.000  O
  N42      1.0000 0.55895  0.79913  0.26628  Biso   1.000  N
  H297     1.0000 0.50675  0.73056  0.22295  Biso   1.000  H
  N43      1.0000 0.46576  0.89229  0.56707  Biso   1.000  N
  H298     1.0000 0.48669  0.87804  0.64012  Biso   1.000  H
  C292     1.0000 0.53410  0.97393  0.62934  Biso   1.000  C
  C293     1.0000 0.63315  0.98061  0.66072  Biso   1.000  C
  H299     1.0000 0.58899  0.88383  0.66870  Biso   1.000  H
  H300     1.0000 0.64541  0.90983  0.62899  Biso   1.000  H
  C294     1.0000 0.22037  0.47864  0.25719  Biso   1.000  C
  C295     1.0000 0.16901  0.53996  0.28011  Biso   1.000  C
  C296     1.0000 0.12469  0.60820  0.30221  Biso   1.000  C
  H301     1.0000 0.12198  0.60872  0.64012  Biso   1.000  H
  C297     1.0000 0.10282  0.66651  0.59439  Biso   1.000  C
  C298     1.0000 0.02608  0.56019  0.62934  Biso   1.000  C
  C299     1.0000 0.33317  0.43618  0.23895  Biso   1.000  C
  H302     1.0000 0.41825  0.58003  0.22563  Biso   1.000  H
  C300     1.0000 0.57322  0.84258  0.22232  Biso   1.000  C
  C301     1.0000 0.40840  0.85472  0.57615  Biso   1.000  C
  H303     1.0000 0.49909  0.97924  0.63988  Biso   1.000  H
  C302     1.0000 0.57933  0.99034  0.67518  Biso   1.000  C
  H304     1.0000 0.55546  0.00247  0.60041  Biso   1.000  H
  H305     1.0000 0.65959  0.98813  0.69130  Biso   1.000  H
  H306     1.0000 0.65839  0.01056  0.63379  Biso   1.000  H
  N44      1.0000 0.24015  0.44107  0.26628  Biso   1.000  N
  H307     1.0000 0.22378  0.49327  0.22295  Biso   1.000  H
  O22      1.0000 0.16906  0.55276  0.22905  Biso   1.000  O
  N45      1.0000 0.12521  0.62405  0.25417  Biso   1.000  N
  H308     1.0000 0.10976  0.62442  0.32784  Biso   1.000  H
  N46      1.0000 0.16786  0.70936  0.57914  Biso   1.000  N
  H309     1.0000 0.07509  0.66082  0.56459  Biso   1.000  H
  C303     1.0000 0.08646  0.69619  0.64035  Biso   1.000  C
  H310     1.0000 0.02082  0.51993  0.63988  Biso   1.000  H
  C304     1.0000 0.00966  0.58901  0.67518  Biso   1.000  C
  H311     1.0000 0.99748  0.55299  0.60041  Biso   1.000  H
  C305     1.0000 0.36279  0.41976  0.19299  Biso   1.000  C
  C306     1.0000 0.26933  0.42677  0.22232  Biso   1.000  C
  H312     1.0000 0.32744  0.40843  0.26875  Biso   1.000  H
  H313     1.0000 0.54465  0.82006  0.19323  Biso   1.000  H
  C307     1.0000 0.56383  0.89704  0.23895  Biso   1.000  C
  C308     1.0000 0.64055  0.86746  0.20400  Biso   1.000  C
  C309     1.0000 0.35813  0.83228  0.53707  Biso   1.000  C
  H314     1.0000 0.39720  0.84014  0.61039  Biso   1.000  H
  H315     1.0000 0.55720  0.96424  0.70518  Biso   1.000  H
  H316     1.0000 0.59548  0.03389  0.68509  Biso   1.000  H
  H317     1.0000 0.16175  0.58172  0.22563  Biso   1.000  H
  C310     1.0000 0.10299  0.66684  0.23895  Biso   1.000  C
  C311     1.0000 0.18317  0.72516  0.53114  Biso   1.000  C
  C312     1.0000 0.01942  0.65259  0.66072  Biso   1.000  C
  H318     1.0000 0.11619  0.70522  0.66870  Biso   1.000  H
  H319     1.0000 0.09020  0.73560  0.62899  Biso   1.000  H
  H320     1.0000 0.03581  0.59301  0.70518  Biso   1.000  H
  H321     1.0000 0.96606  0.56160  0.68509  Biso   1.000  H
  C313     1.0000 0.31923  0.35275  0.17263  Biso   1.000  C
  H322     1.0000 0.37185  0.44953  0.16465  Biso   1.000  H
  H323     1.0000 0.40226  0.42353  0.20432  Biso   1.000  H
  C314     1.0000 0.22687  0.35943  0.20400  Biso   1.000  C
  H324     1.0000 0.27536  0.45536  0.19323  Biso   1.000  H
  N47      1.0000 0.49879  0.87480  0.25417  Biso   1.000  N
  H325     1.0000 0.59154  0.91905  0.26875  Biso   1.000  H
  C315     1.0000 0.58022  0.94308  0.19299  Biso   1.000  C
  H326     1.0000 0.64587  0.83247  0.19343  Biso   1.000  H
  H327     1.0000 0.66917  0.88886  0.23294  Biso   1.000  H
  C316     1.0000 0.65698  0.91270  0.15816  Biso   1.000  C
  C317     1.0000 0.37108  0.84465  0.48404  Biso   1.000  C
  C318     1.0000 0.29575  0.79344  0.55319  Biso   1.000  C
  C319     1.0000 0.15741  0.73066  0.22232  Biso   1.000  C
  H328     1.0000 0.08095  0.67253  0.26875  Biso   1.000  H
  C320     1.0000 0.05698  0.63722  0.19299  Biso   1.000  C
  C321     1.0000 0.24803  0.76781  0.51533  Biso   1.000  C
  H329     1.0000 0.15201  0.70893  0.50550  Biso   1.000  H
  H330     1.0000 0.01189  0.67150  0.69130  Biso   1.000  H
  H331     1.0000 0.98937  0.64780  0.63379  Biso   1.000  H
  H332     1.0000 0.31445  0.32275  0.19952  Biso   1.000  H
  H333     1.0000 0.33815  0.34523  0.14204  Biso   1.000  H
  C322     1.0000 0.25568  0.34301  0.15816  Biso   1.000  C
  H334     1.0000 0.18656  0.35416  0.19343  Biso   1.000  H
  H335     1.0000 0.21966  0.33083  0.23294  Biso   1.000  H
  C323     1.0000 0.48350  0.87531  0.30221  Biso   1.000  C
  C324     1.0000 0.64723  0.96650  0.17263  Biso   1.000  C
  H336     1.0000 0.55046  0.92234  0.16465  Biso   1.000  H
  H337     1.0000 0.57648  0.97877  0.20432  Biso   1.000  H
  H338     1.0000 0.63084  0.89055  0.12813  Biso   1.000  H
  H339     1.0000 0.70056  0.92883  0.14822  Biso   1.000  H
  C325     1.0000 0.32502  0.81973  0.44512  Biso   1.000  C
  H340     1.0000 0.41261  0.87094  0.47390  Biso   1.000  H
  O23      1.0000 0.28297  0.78060  0.60430  Biso   1.000  O
  N48      1.0000 0.20089  0.75986  0.26628  Biso   1.000  N
  H341     1.0000 0.17994  0.72464  0.19323  Biso   1.000  H
  C326     1.0000 0.13257  0.77317  0.20400  Biso   1.000  C
  C327     1.0000 0.03351  0.68076  0.17263  Biso   1.000  C
  H342     1.0000 0.07765  0.62814  0.16465  Biso   1.000  H
  H343     1.0000 0.02129  0.59776  0.20432  Biso   1.000  H
  C328     1.0000 0.26356  0.78135  0.46249  Biso   1.000  C
  H344     1.0000 0.25967  0.36916  0.12813  Biso   1.000  H
  H345     1.0000 0.22826  0.29942  0.14822  Biso   1.000  H
  C329     1.0000 0.41860  0.85312  0.31797  Biso   1.000  C
  H346     1.0000 0.51467  0.89027  0.32784  Biso   1.000  H
  H347     1.0000 0.67724  0.99175  0.19952  Biso   1.000  H
  H348     1.0000 0.65476  0.99297  0.14204  Biso   1.000  H
  C330     1.0000 0.34164  0.82805  0.38823  Biso   1.000  C
  H349     1.0000 0.24670  0.75163  0.60768  Biso   1.000  H
  C331     1.0000 0.25827  0.77966  0.25719  Biso   1.000  C
  H350     1.0000 0.16758  0.81347  0.19343  Biso   1.000  H
  H351     1.0000 0.11116  0.78037  0.23294  Biso   1.000  H
  C332     1.0000 0.08733  0.74434  0.15816  Biso   1.000  C
  H352     1.0000 0.00829  0.68556  0.19952  Biso   1.000  H
  H353     1.0000 0.00707  0.66186  0.14204  Biso   1.000  H
  H354     1.0000 0.23151  0.76400  0.43769  Biso   1.000  H
  C333     1.0000 0.37094  0.83101  0.28011  Biso   1.000  C
  C334     1.0000 0.40311  0.85114  0.37085  Biso   1.000  C
  C335     1.0000 0.29555  0.80689  0.34931  Biso   1.000  C
  C336     1.0000 0.30852  0.80750  0.29623  Biso   1.000  C
  H355     1.0000 0.26947  0.77623  0.22295  Biso   1.000  H
  H356     1.0000 0.10948  0.74035  0.12813  Biso   1.000  H
  H357     1.0000 0.07118  0.77176  0.14822  Biso   1.000  H
  O24      1.0000 0.38370  0.83097  0.22905  Biso   1.000  O
  H358     1.0000 0.43515  0.86586  0.39562  Biso   1.000  H
  H359     1.0000 0.25405  0.79165  0.35945  Biso   1.000  H
  H360     1.0000 0.41997  0.83826  0.22563  Biso   1.000  H
  C337     1.0000 0.97048  0.24689  0.47370  Biso   1.000  C
  C338     1.0000 0.00017  0.23053  0.42774  Biso   1.000  C
  H361     1.0000 0.96146  0.21712  0.50204  Biso   1.000  H
  H362     1.0000 0.93105  0.24313  0.46234  Biso   1.000  H
  C339     1.0000 0.01408  0.31391  0.49402  Biso   1.000  C
  N49      1.0000 0.95735  0.16549  0.41249  Biso   1.000  N
  C340     1.0000 0.06400  0.23993  0.44433  Biso   1.000  C
  H363     1.0000 0.00587  0.25823  0.39794  Biso   1.000  H
  H364     1.0000 0.99516  0.32143  0.52465  Biso   1.000  H
  H365     1.0000 0.01889  0.34396  0.46713  Biso   1.000  H
  C341     1.0000 0.07766  0.32369  0.50853  Biso   1.000  C
  C342     1.0000 0.94150  0.15016  0.36444  Biso   1.000  C
  N50      1.0000 0.09318  0.22564  0.40042  Biso   1.000  N
  H366     1.0000 0.05798  0.21134  0.47342  Biso   1.000  H
  C343     1.0000 0.10645  0.30723  0.46269  Biso   1.000  C
  H367     1.0000 0.07367  0.29754  0.53853  Biso   1.000  H
  H368     1.0000 0.10505  0.36723  0.51844  Biso   1.000  H
  C344     1.0000 0.89885  0.08531  0.34868  Biso   1.000  C
  H369     1.0000 0.95774  0.18134  0.33885  Biso   1.000  H
  C345     1.0000 0.11296  0.18806  0.40946  Biso   1.000  C
  H370     1.0000 0.14678  0.31254  0.47323  Biso   1.000  H
  H371     1.0000 0.11366  0.33582  0.43372  Biso   1.000  H
  C346     1.0000 0.88531  0.06979  0.29584  Biso   1.000  C
  C347     1.0000 0.87324  0.03757  0.38654  Biso   1.000  C
  C348     1.0000 0.14080  0.16563  0.37042  Biso   1.000  C
  H372     1.0000 0.10956  0.17344  0.44374  Biso   1.000  H
  C349     1.0000 0.84692  0.00832  0.27846  Biso   1.000  C
  H373     1.0000 0.90263  0.10181  0.27103  Biso   1.000  H
  C350     1.0000 0.83436  0.97522  0.37042  Biso   1.000  C
  O25      1.0000 0.88607  0.05037  0.43761  Biso   1.000  O
  C351     1.0000 0.14020  0.17795  0.31738  Biso   1.000  C
  C352     1.0000 0.16432  0.12674  0.38654  Biso   1.000  C
  C353     1.0000 0.83862  0.99172  0.22154  Biso   1.000  C
  C354     1.0000 0.82203  0.96228  0.31738  Biso   1.000  C
  C355     1.0000 0.81195  0.92494  0.40946  Biso   1.000  C
  H374     1.0000 0.91503  0.08662  0.44103  Biso   1.000  H
  C356     1.0000 0.16136  0.15307  0.27846  Biso   1.000  C
  H375     1.0000 0.12496  0.20424  0.30724  Biso   1.000  H
  C357     1.0000 0.18643  0.10116  0.34868  Biso   1.000  C
  O26      1.0000 0.16426  0.11390  0.43761  Biso   1.000  O
  C358     1.0000 0.85977  0.03776  0.18262  Biso   1.000  C
  C359     1.0000 0.81555  0.93026  0.20416  Biso   1.000  C
  H376     1.0000 0.79577  0.92076  0.30724  Biso   1.000  H
  N51      1.0000 0.77437  0.86762  0.40042  Biso   1.000  N
  H377     1.0000 0.82657  0.93618  0.44374  Biso   1.000  H
  C360     1.0000 0.15304  0.16135  0.22154  Biso   1.000  C
  C361     1.0000 0.18443  0.11465  0.29584  Biso   1.000  C
  C362     1.0000 0.20862  0.05845  0.36444  Biso   1.000  C
  H378     1.0000 0.17156  0.08493  0.44103  Biso   1.000  H
  C363     1.0000 0.85917  0.02483  0.12958  Biso   1.000  C
  H379     1.0000 0.87503  0.07929  0.19276  Biso   1.000  H
  C364     1.0000 0.81357  0.91474  0.15132  Biso   1.000  C
  H380     1.0000 0.80082  0.89819  0.22897  Biso   1.000  H
  C365     1.0000 0.76008  0.82412  0.44433  Biso   1.000  C
  C366     1.0000 0.11466  0.18444  0.20416  Biso   1.000  C
  C367     1.0000 0.17797  0.14019  0.18262  Biso   1.000  C
  H381     1.0000 0.19915  0.09735  0.27103  Biso   1.000  H
  N52      1.0000 0.20813  0.04265  0.41249  Biso   1.000  N
  H382     1.0000 0.22356  0.04223  0.33885  Biso   1.000  H
  C368     1.0000 0.88701  0.07506  0.09054  Biso   1.000  C
  C369     1.0000 0.83566  0.96243  0.11346  Biso   1.000  C
  C370     1.0000 0.79137  0.84989  0.13556  Biso   1.000  C
  H383     1.0000 0.78867  0.84669  0.47342  Biso   1.000  H
  C371     1.0000 0.76946  0.76966  0.42774  Biso   1.000  C
  C372     1.0000 0.69277  0.79929  0.46269  Biso   1.000  C
  C373     1.0000 0.10115  0.18641  0.15132  Biso   1.000  C
  H384     1.0000 0.09734  0.19916  0.22897  Biso   1.000  H
  C374     1.0000 0.16561  0.14080  0.12958  Biso   1.000  C
  H385     1.0000 0.20424  0.12495  0.19276  Biso   1.000  H
  C375     1.0000 0.23035  0.99986  0.42774  Biso   1.000  C
  N53      1.0000 0.90677  0.13243  0.09958  Biso   1.000  N
  H386     1.0000 0.89041  0.06386  0.05626  Biso   1.000  H
  O27      1.0000 0.83573  0.94968  0.06239  Biso   1.000  O
  N54      1.0000 0.79185  0.83456  0.08751  Biso   1.000  N
  H387     1.0000 0.77643  0.81871  0.16115  Biso   1.000  H
  N55      1.0000 0.83450  0.79191  0.41249  Biso   1.000  N
  H388     1.0000 0.74176  0.74765  0.39794  Biso   1.000  H
  C376     1.0000 0.75310  0.72367  0.47370  Biso   1.000  C
  H389     1.0000 0.68745  0.83428  0.47323  Biso   1.000  H
  H390     1.0000 0.66417  0.77784  0.43372  Biso   1.000  H
  C377     1.0000 0.67631  0.75400  0.50853  Biso   1.000  C
  C378     1.0000 0.05845  0.20861  0.13556  Biso   1.000  C
  C379     1.0000 0.12671  0.16431  0.11346  Biso   1.000  C
  C380     1.0000 0.18802  0.11296  0.09054  Biso   1.000  C
  C381     1.0000 0.17592  0.93604  0.44433  Biso   1.000  C
  H391     1.0000 0.25239  0.99417  0.39794  Biso   1.000  H
  C382     1.0000 0.27636  0.02949  0.47370  Biso   1.000  C
  C383     1.0000 0.93598  0.17593  0.05567  Biso   1.000  C
  H392     1.0000 0.82843  0.91342  0.05897  Biso   1.000  H
  C384     1.0000 0.76964  0.76952  0.07226  Biso   1.000  C
  C385     1.0000 0.84987  0.79144  0.36444  Biso   1.000  C
  C386     1.0000 0.68607  0.70020  0.49402  Biso   1.000  C
  H393     1.0000 0.78288  0.74436  0.50204  Biso   1.000  H
  H394     1.0000 0.75688  0.68798  0.46234  Biso   1.000  H
  H395     1.0000 0.70246  0.77615  0.53853  Biso   1.000  H
  H396     1.0000 0.63278  0.73787  0.51844  Biso   1.000  H
  N56      1.0000 0.04265  0.20814  0.08751  Biso   1.000  N
  H397     1.0000 0.04222  0.22357  0.16115  Biso   1.000  H
  O28      1.0000 0.11392  0.16431  0.06239  Biso   1.000  O
  N57      1.0000 0.22563  0.09321  0.09958  Biso   1.000  N
  H398     1.0000 0.17342  0.10957  0.05626  Biso   1.000  H
  N58      1.0000 0.13245  0.90684  0.40042  Biso   1.000  N
  H399     1.0000 0.15336  0.94206  0.47342  Biso   1.000  H
  C387     1.0000 0.20079  0.89358  0.46269  Biso   1.000  C
  C388     1.0000 0.29983  0.98594  0.49402  Biso   1.000  C
  H400     1.0000 0.25566  0.03852  0.50204  Biso   1.000  H
  H401     1.0000 0.31205  0.06894  0.46234  Biso   1.000  H
  C389     1.0000 0.89349  0.20076  0.03731  Biso   1.000  C
  H402     1.0000 0.94200  0.15335  0.02658  Biso   1.000  H
  C390     1.0000 0.99983  0.23034  0.07226  Biso   1.000  C
  C391     1.0000 0.82407  0.76012  0.05567  Biso   1.000  C
  H403     1.0000 0.74764  0.74182  0.10206  Biso   1.000  H
  C392     1.0000 0.72362  0.75316  0.02630  Biso   1.000  C
  C393     1.0000 0.91470  0.81359  0.34868  Biso   1.000  C
  H404     1.0000 0.81865  0.77648  0.33885  Biso   1.000  H
  H405     1.0000 0.65605  0.67495  0.46713  Biso   1.000  H
  H406     1.0000 0.67856  0.67377  0.52465  Biso   1.000  H
  H407     1.0000 0.08492  0.17155  0.05897  Biso   1.000  H
  C394     1.0000 0.23990  0.06400  0.05567  Biso   1.000  C
  C395     1.0000 0.07509  0.88709  0.40946  Biso   1.000  C
  H408     1.0000 0.16578  0.85328  0.47323  Biso   1.000  H
  H409     1.0000 0.22216  0.88638  0.43372  Biso   1.000  H
  C396     1.0000 0.24601  0.92236  0.50853  Biso   1.000  C
  H410     1.0000 0.32507  0.98119  0.46713  Biso   1.000  H
  H411     1.0000 0.32627  0.00484  0.52465  Biso   1.000  H
  H412     1.0000 0.85323  0.16577  0.02677  Biso   1.000  H
  H413     1.0000 0.88631  0.22216  0.06628  Biso   1.000  H
  C397     1.0000 0.92233  0.24605  0.99147  Biso   1.000  C
  H414     1.0000 0.99412  0.25239  0.10206  Biso   1.000  H
  C398     1.0000 0.02949  0.27638  0.02630  Biso   1.000  C
  N59      1.0000 0.86758  0.77441  0.09958  Biso   1.000  N
  H415     1.0000 0.84663  0.78871  0.02658  Biso   1.000  H
  C399     1.0000 0.79923  0.69277  0.03731  Biso   1.000  C
  H416     1.0000 0.74433  0.78292  0.99796  Biso   1.000  H
  C400     1.0000 0.70017  0.68614  0.00598  Biso   1.000  C
  H417     1.0000 0.68795  0.75692  0.03766  Biso   1.000  H
  C401     1.0000 0.96240  0.83569  0.38654  Biso   1.000  C
  C402     1.0000 0.93021  0.81561  0.29584  Biso   1.000  C
  H418     1.0000 0.21136  0.05798  0.02658  Biso   1.000  H
  C403     1.0000 0.23049  0.00014  0.07226  Biso   1.000  C
  C404     1.0000 0.30723  0.10647  0.03731  Biso   1.000  C
  C405     1.0000 0.02482  0.85920  0.37042  Biso   1.000  C
  H419     1.0000 0.06387  0.89047  0.44374  Biso   1.000  H
  H420     1.0000 0.22386  0.92636  0.53853  Biso   1.000  H
  H421     1.0000 0.26218  0.89499  0.51844  Biso   1.000  H
  C406     1.0000 0.98588  0.29984  0.00598  Biso   1.000  C
  H422     1.0000 0.92630  0.22385  0.96147  Biso   1.000  H
  H423     1.0000 0.89492  0.26218  0.98156  Biso   1.000  H
  H424     1.0000 0.03853  0.25569  0.99796  Biso   1.000  H
  H425     1.0000 0.06892  0.31207  0.03766  Biso   1.000  H
  C407     1.0000 0.92489  0.81199  0.09054  Biso   1.000  C
  C408     1.0000 0.75397  0.67636  0.99147  Biso   1.000  C
  H426     1.0000 0.83423  0.68751  0.02677  Biso   1.000  H
  H427     1.0000 0.77781  0.66418  0.06628  Biso   1.000  H
  H428     1.0000 0.67373  0.67862  0.97535  Biso   1.000  H
  H429     1.0000 0.67493  0.65609  0.03287  Biso   1.000  H
  O29      1.0000 0.94960  0.83573  0.43761  Biso   1.000  O
  C409     1.0000 0.99166  0.83865  0.27846  Biso   1.000  C
  H430     1.0000 0.89817  0.80089  0.27103  Biso   1.000  H
  N60      1.0000 0.16546  0.95739  0.08751  Biso   1.000  N
  C410     1.0000 0.24690  0.97056  0.02630  Biso   1.000  C
  H431     1.0000 0.25824  0.00588  0.10206  Biso   1.000  H
  C411     1.0000 0.32365  0.07764  0.99147  Biso   1.000  C
  H432     1.0000 0.31252  0.14677  0.02677  Biso   1.000  H
  H433     1.0000 0.33584  0.11366  0.06628  Biso   1.000  H
  C412     1.0000 0.03777  0.85986  0.31738  Biso   1.000  C
  H434     1.0000 0.98109  0.32505  0.03287  Biso   1.000  H
  H435     1.0000 0.00483  0.32627  0.97535  Biso   1.000  H
  C413     1.0000 0.97520  0.83442  0.12958  Biso   1.000  C
  H436     1.0000 0.93612  0.82661  0.05626  Biso   1.000  H
  H437     1.0000 0.77612  0.70251  0.96147  Biso   1.000  H
  H438     1.0000 0.73782  0.63281  0.98156  Biso   1.000  H
  H439     1.0000 0.91333  0.82845  0.44103  Biso   1.000  H
  C414     1.0000 0.00832  0.84697  0.22154  Biso   1.000  C
  C415     1.0000 0.15015  0.94159  0.13556  Biso   1.000  C
  H440     1.0000 0.21711  0.96148  0.99796  Biso   1.000  H
  H441     1.0000 0.24314  0.93111  0.03766  Biso   1.000  H
  C416     1.0000 0.31392  0.01411  0.00598  Biso   1.000  C
  H442     1.0000 0.29752  0.07369  0.96147  Biso   1.000  H
  H443     1.0000 0.36721  0.10506  0.98156  Biso   1.000  H
  H444     1.0000 0.07925  0.87505  0.30724  Biso   1.000  H
  C417     1.0000 0.96222  0.82205  0.18262  Biso   1.000  C
  C418     1.0000 0.03761  0.87331  0.11346  Biso   1.000  C
  C419     1.0000 0.06980  0.88540  0.20416  Biso   1.000  C
  C420     1.0000 0.08531  0.89889  0.15132  Biso   1.000  C
  H445     1.0000 0.18135  0.95782  0.16115  Biso   1.000  H
  H446     1.0000 0.32145  0.99520  0.97535  Biso   1.000  H
  H447     1.0000 0.34390  0.01886  0.03287  Biso   1.000  H
  H448     1.0000 0.92071  0.79581  0.19276  Biso   1.000  H
  O30      1.0000 0.05036  0.88610  0.06239  Biso   1.000  O
  H449     1.0000 0.10183  0.90270  0.22897  Biso   1.000  H
  H450     1.0000 0.08666  0.91512  0.05897  Biso   1.000  H
  C421     1.0000 0.64723  0.68076  0.67263  Biso   1.000  C
  C422     1.0000 0.58021  0.63722  0.69299  Biso   1.000  C
  C423     1.0000 0.65699  0.74434  0.65816  Biso   1.000  C
  H451     1.0000 0.67724  0.68556  0.69952  Biso   1.000  H
  H452     1.0000 0.65476  0.66186  0.64204  Biso   1.000  H
  C424     1.0000 0.56383  0.66684  0.73895  Biso   1.000  C
  H453     1.0000 0.55046  0.62814  0.66465  Biso   1.000  H
  H454     1.0000 0.57645  0.59776  0.70432  Biso   1.000  H
  C425     1.0000 0.64057  0.77317  0.70400  Biso   1.000  C
  H455     1.0000 0.63084  0.74035  0.62813  Biso   1.000  H
  H456     1.0000 0.70055  0.77176  0.64822  Biso   1.000  H
  N61      1.0000 0.49882  0.62405  0.75417  Biso   1.000  N
  C426     1.0000 0.57321  0.73066  0.72232  Biso   1.000  C
  H457     1.0000 0.59156  0.67253  0.76875  Biso   1.000  H
  H458     1.0000 0.64586  0.81347  0.69343  Biso   1.000  H
  H459     1.0000 0.66917  0.78037  0.73294  Biso   1.000  H
  C427     1.0000 0.48348  0.60820  0.80221  Biso   1.000  C
  N62      1.0000 0.55894  0.75986  0.76628  Biso   1.000  N
  H460     1.0000 0.54467  0.72464  0.69323  Biso   1.000  H
  C428     1.0000 0.41862  0.56555  0.81797  Biso   1.000  C
  H461     1.0000 0.51464  0.62442  0.82784  Biso   1.000  H
  C429     1.0000 0.52136  0.77966  0.75719  Biso   1.000  C
  C430     1.0000 0.37093  0.53996  0.78011  Biso   1.000  C
  C431     1.0000 0.40309  0.55200  0.87085  Biso   1.000  C
  C432     1.0000 0.49895  0.80750  0.79623  Biso   1.000  C
  H462     1.0000 0.50673  0.77623  0.72295  Biso   1.000  H
  C433     1.0000 0.30852  0.50107  0.79623  Biso   1.000  C
  O31      1.0000 0.38368  0.55276  0.72905  Biso   1.000  O
  C434     1.0000 0.34163  0.51363  0.88823  Biso   1.000  C
  H463     1.0000 0.43514  0.56936  0.89562  Biso   1.000  H
  C435     1.0000 0.46004  0.83101  0.78011  Biso   1.000  C
  C436     1.0000 0.51131  0.80689  0.84931  Biso   1.000  C
  C437     1.0000 0.25825  0.47864  0.75719  Biso   1.000  C
  C438     1.0000 0.29557  0.48870  0.84931  Biso   1.000  C
  H464     1.0000 0.41995  0.58172  0.72563  Biso   1.000  H
  C439     1.0000 0.32501  0.50530  0.94512  Biso   1.000  C
  C440     1.0000 0.43448  0.85312  0.81797  Biso   1.000  C
  O32      1.0000 0.44723  0.83097  0.72905  Biso   1.000  O
  H465     1.0000 0.53757  0.79165  0.85945  Biso   1.000  H
  C441     1.0000 0.48638  0.82805  0.88823  Biso   1.000  C
  N63      1.0000 0.20089  0.44107  0.76628  Biso   1.000  N
  H466     1.0000 0.26947  0.49327  0.72295  Biso   1.000  H
  H467     1.0000 0.25407  0.46246  0.85945  Biso   1.000  H
  C442     1.0000 0.37110  0.52647  0.98404  Biso   1.000  C
  C443     1.0000 0.26354  0.48221  0.96249  Biso   1.000  C
  C444     1.0000 0.39178  0.87531  0.80221  Biso   1.000  C
  C445     1.0000 0.44799  0.85114  0.87085  Biso   1.000  C
  H468     1.0000 0.41826  0.83826  0.72563  Biso   1.000  H
  C446     1.0000 0.49468  0.81973  0.94512  Biso   1.000  C
  C447     1.0000 0.15742  0.42677  0.72232  Biso   1.000  C
  H469     1.0000 0.41260  0.54170  0.97390  Biso   1.000  H
  C448     1.0000 0.35813  0.52586  0.03707  Biso   1.000  C
  H470     1.0000 0.23150  0.46750  0.93769  Biso   1.000  H
  C449     1.0000 0.24805  0.48024  0.01533  Biso   1.000  C
  N64      1.0000 0.37597  0.87480  0.75417  Biso   1.000  N
  H471     1.0000 0.37556  0.89027  0.82784  Biso   1.000  H
  H472     1.0000 0.43067  0.86586  0.89562  Biso   1.000  H
  C450     1.0000 0.47354  0.84465  0.98404  Biso   1.000  C
  C451     1.0000 0.51776  0.78135  0.96249  Biso   1.000  C
  C452     1.0000 0.13255  0.35943  0.70400  Biso   1.000  C
  H473     1.0000 0.17998  0.45536  0.69323  Biso   1.000  H
  C453     1.0000 0.10299  0.43618  0.73895  Biso   1.000  C
  C454     1.0000 0.29571  0.50234  0.05319  Biso   1.000  C
  C455     1.0000 0.40838  0.55370  0.07615  Biso   1.000  C
  C456     1.0000 0.18316  0.45804  0.03114  Biso   1.000  C
  C457     1.0000 0.33317  0.89704  0.73895  Biso   1.000  C
  C458     1.0000 0.47412  0.83228  0.03707  Biso   1.000  C
  H474     1.0000 0.45830  0.87094  0.97390  Biso   1.000  H
  C459     1.0000 0.51975  0.76781  0.01533  Biso   1.000  C
  H475     1.0000 0.53246  0.76400  0.93769  Biso   1.000  H
  C460     1.0000 0.08732  0.34301  0.65816  Biso   1.000  C
  H476     1.0000 0.16758  0.35416  0.69343  Biso   1.000  H
  H477     1.0000 0.11117  0.33083  0.73294  Biso   1.000  H
  C461     1.0000 0.05695  0.41976  0.69299  Biso   1.000  C
  N65      1.0000 0.12520  0.50121  0.75417  Biso   1.000  N
  H478     1.0000 0.08097  0.40843  0.76875  Biso   1.000  H
  O33      1.0000 0.28295  0.50239  0.10430  Biso   1.000  O
  N66      1.0000 0.46576  0.57349  0.06707  Biso   1.000  N
  H479     1.0000 0.39718  0.55713  0.11039  Biso   1.000  H
  N67      1.0000 0.16786  0.45856  0.07914  Biso   1.000  N
  H480     1.0000 0.15198  0.44309  0.00550  Biso   1.000  H
  C462     1.0000 0.26933  0.84258  0.72232  Biso   1.000  C
  H481     1.0000 0.32748  0.91905  0.76875  Biso   1.000  H
  C463     1.0000 0.36283  0.94308  0.69299  Biso   1.000  C
  C464     1.0000 0.44628  0.85472  0.07615  Biso   1.000  C
  C465     1.0000 0.49766  0.79344  0.05319  Biso   1.000  C
  C466     1.0000 0.54196  0.72516  0.03114  Biso   1.000  C
  C467     1.0000 0.03350  0.35275  0.67263  Biso   1.000  C
  H482     1.0000 0.10948  0.36916  0.62813  Biso   1.000  H
  H483     1.0000 0.07115  0.29942  0.64822  Biso   1.000  H
  H484     1.0000 0.07766  0.44953  0.66465  Biso   1.000  H
  H485     1.0000 0.02124  0.42353  0.70432  Biso   1.000  H
  C468     1.0000 0.12472  0.51654  0.80221  Biso   1.000  C
  H486     1.0000 0.24668  0.49510  0.10768  Biso   1.000  H
  C469     1.0000 0.50924  0.60270  0.11102  Biso   1.000  C
  C470     1.0000 0.10282  0.43632  0.09439  Biso   1.000  C
  N68      1.0000 0.24015  0.79913  0.76628  Biso   1.000  N
  H487     1.0000 0.27538  0.82006  0.69323  Biso   1.000  H
  C471     1.0000 0.22687  0.86746  0.70400  Biso   1.000  C
  C472     1.0000 0.31923  0.96650  0.67263  Biso   1.000  C
  H488     1.0000 0.37184  0.92234  0.66465  Biso   1.000  H
  H489     1.0000 0.40226  0.97877  0.70432  Biso   1.000  H
  N69      1.0000 0.42650  0.89229  0.06707  Biso   1.000  N
  H490     1.0000 0.44290  0.84014  0.11039  Biso   1.000  H
  O34      1.0000 0.49759  0.78060  0.10430  Biso   1.000  O
  N70      1.0000 0.54147  0.70936  0.07914  Biso   1.000  N
  H491     1.0000 0.55689  0.70893  0.00550  Biso   1.000  H
  H492     1.0000 0.00828  0.32275  0.69952  Biso   1.000  H
  H493     1.0000 0.00706  0.34523  0.64204  Biso   1.000  H
  C473     1.0000 0.14689  0.58139  0.81797  Biso   1.000  C
  H494     1.0000 0.10979  0.48537  0.82784  Biso   1.000  H
  H495     1.0000 0.48671  0.60872  0.14012  Biso   1.000  H
  C474     1.0000 0.56366  0.66651  0.09439  Biso   1.000  C
  C475     1.0000 0.53408  0.56019  0.12934  Biso   1.000  C
  C476     1.0000 0.09343  0.49077  0.11102  Biso   1.000  C
  H496     1.0000 0.07512  0.41431  0.06459  Biso   1.000  H
  C477     1.0000 0.08644  0.39028  0.14035  Biso   1.000  C
  C478     1.0000 0.22034  0.74176  0.75719  Biso   1.000  C
  H497     1.0000 0.18657  0.83247  0.69343  Biso   1.000  H
  H498     1.0000 0.21965  0.88886  0.73294  Biso   1.000  H
  C479     1.0000 0.25568  0.91270  0.65816  Biso   1.000  C
  H499     1.0000 0.31447  0.99175  0.69952  Biso   1.000  H
  H500     1.0000 0.33817  0.99297  0.64204  Biso   1.000  H
  C480     1.0000 0.39732  0.90659  0.11102  Biso   1.000  C
  H501     1.0000 0.50490  0.75163  0.10768  Biso   1.000  H
  C481     1.0000 0.16902  0.62908  0.78011  Biso   1.000  C
  C482     1.0000 0.14890  0.59691  0.87085  Biso   1.000  C
  H502     1.0000 0.58570  0.66082  0.06459  Biso   1.000  H
  C483     1.0000 0.60970  0.69619  0.14035  Biso   1.000  C
  H503     1.0000 0.49909  0.51993  0.13988  Biso   1.000  H
  H504     1.0000 0.55549  0.55299  0.10041  Biso   1.000  H
  C484     1.0000 0.57932  0.58901  0.17518  Biso   1.000  C
  N71      1.0000 0.10773  0.53427  0.06707  Biso   1.000  N
  H505     1.0000 0.12200  0.51330  0.14012  Biso   1.000  H
  C485     1.0000 0.02610  0.46590  0.12934  Biso   1.000  C
  C486     1.0000 0.01942  0.36686  0.16072  Biso   1.000  C
  H506     1.0000 0.11619  0.41102  0.16870  Biso   1.000  H
  H507     1.0000 0.09020  0.35463  0.12899  Biso   1.000  H
  C487     1.0000 0.19252  0.69148  0.79623  Biso   1.000  C
  H508     1.0000 0.22379  0.73056  0.72295  Biso   1.000  H
  H509     1.0000 0.25967  0.89055  0.62813  Biso   1.000  H
  H510     1.0000 0.22823  0.92883  0.64822  Biso   1.000  H
  C488     1.0000 0.33348  0.89718  0.09439  Biso   1.000  C
  H511     1.0000 0.39131  0.87804  0.14012  Biso   1.000  H
  C489     1.0000 0.43979  0.97393  0.12934  Biso   1.000  C
  O35      1.0000 0.16902  0.61629  0.72905  Biso   1.000  O
  C490     1.0000 0.17198  0.65838  0.88823  Biso   1.000  C
  H512     1.0000 0.13417  0.56484  0.89562  Biso   1.000  H
  C491     1.0000 0.63315  0.65259  0.16072  Biso   1.000  C
  H513     1.0000 0.58900  0.70522  0.16870  Biso   1.000  H
  H514     1.0000 0.64536  0.73560  0.12899  Biso   1.000  H
  H515     1.0000 0.55717  0.59301  0.20518  Biso   1.000  H
  H516     1.0000 0.59547  0.56160  0.18509  Biso   1.000  H
  C492     1.0000 0.14527  0.59160  0.07615  Biso   1.000  C
  H517     1.0000 0.99748  0.44450  0.10041  Biso   1.000  H
  H518     1.0000 0.02081  0.50093  0.13988  Biso   1.000  H
  C493     1.0000 0.00967  0.42066  0.17518  Biso   1.000  C
  H519     1.0000 0.98937  0.34160  0.13379  Biso   1.000  H
  H520     1.0000 0.01191  0.34043  0.19130  Biso   1.000  H
  C494     1.0000 0.19315  0.70446  0.84931  Biso   1.000  C
  N72      1.0000 0.29066  0.83214  0.07914  Biso   1.000  N
  H521     1.0000 0.33921  0.92493  0.06459  Biso   1.000  H
  C495     1.0000 0.30386  0.91359  0.14035  Biso   1.000  C
  H522     1.0000 0.48011  0.97924  0.13988  Biso   1.000  H
  C496     1.0000 0.41097  0.99034  0.17518  Biso   1.000  C
  H523     1.0000 0.44697  0.00247  0.10041  Biso   1.000  H
  H524     1.0000 0.16176  0.58003  0.72563  Biso   1.000  H
  C497     1.0000 0.18028  0.67498  0.94512  Biso   1.000  C
  H525     1.0000 0.65836  0.64780  0.13379  Biso   1.000  H
  H526     1.0000 0.65958  0.67150  0.19130  Biso   1.000  H
  C498     1.0000 0.16772  0.64187  0.03707  Biso   1.000  C
  H527     1.0000 0.15991  0.60279  0.11039  Biso   1.000  H
  H528     1.0000 0.96609  0.40453  0.18509  Biso   1.000  H
  H529     1.0000 0.03581  0.44281  0.20518  Biso   1.000  H
  H530     1.0000 0.20835  0.74594  0.85945  Biso   1.000  H
  C499     1.0000 0.27488  0.81686  0.03114  Biso   1.000  C
  C500     1.0000 0.34742  0.98061  0.16072  Biso   1.000  C
  H531     1.0000 0.29480  0.88383  0.16870  Biso   1.000  H
  H532     1.0000 0.26439  0.90983  0.12899  Biso   1.000  H
  H533     1.0000 0.40700  0.96424  0.20518  Biso   1.000  H
  H534     1.0000 0.43836  0.03389  0.18509  Biso   1.000  H
  C501     1.0000 0.15536  0.62889  0.98404  Biso   1.000  C
  C502     1.0000 0.21866  0.73644  0.96249  Biso   1.000  C
  C503     1.0000 0.20661  0.70428  0.05319  Biso   1.000  C
  C504     1.0000 0.23217  0.75196  0.01533  Biso   1.000  C
  H535     1.0000 0.29112  0.84804  0.00550  Biso   1.000  H
  H536     1.0000 0.32850  0.98813  0.19130  Biso   1.000  H
  H537     1.0000 0.35218  0.01056  0.13379  Biso   1.000  H
  H538     1.0000 0.12909  0.58741  0.97390  Biso   1.000  H
  H539     1.0000 0.23600  0.76851  0.93769  Biso   1.000  H
  O36      1.0000 0.21940  0.71707  0.10430  Biso   1.000  O
  H540     1.0000 0.24840  0.75333  0.10768  Biso   1.000  H
  Ne1      1.0000 0.66665  0.33334  0.08333  Biso   1.000  Ne
  He1      1.0000 0.66667  0.33335  0.22690  Biso   1.000  He
  He2      1.0000 0.46083  0.34379  0.07985  Biso   1.000  He
  He3      1.0000 0.78604  0.46975  0.11347  Biso   1.000  He
  He4      1.0000 0.65685  0.11822  0.08007  Biso   1.000  He
  He5      1.0000 0.66665  0.33334  0.94067  Biso   1.000  He
  Ar1      1.0000 0.66665  0.33335  0.08333  Biso   1.000  Ar
  Ne2      1.0000 0.33333  0.66668  0.41667  Biso   1.000  Ne
  He6      1.0000 0.33331  0.66669  0.56021  Biso   1.000  He
  He7      1.0000 0.12750  0.67709  0.41321  Biso   1.000  He
  He8      1.0000 0.45274  0.80313  0.44684  Biso   1.000  He
  He9      1.0000 0.32358  0.45163  0.41343  Biso   1.000  He
  He10     1.0000 0.33333  0.66669  0.27398  Biso   1.000  He
  Ar2      1.0000 0.33333  0.66668  0.41667  Biso   1.000  Ar
  Ne3      1.0000 0.66665  0.33334  0.58333  Biso   1.000  Ne
  He11     1.0000 0.66665  0.33333  0.72475  Biso   1.000  He
  He12     1.0000 0.65646  0.48248  0.55922  Biso   1.000  He
  He13     1.0000 0.81801  0.32388  0.60645  Biso   1.000  He
  He14     1.0000 0.51291  0.17082  0.56118  Biso   1.000  He
  He15     1.0000 0.66667  0.33336  0.44257  Biso   1.000  He
  Ar3      1.0000 0.66665  0.33335  0.58333  Biso   1.000  Ar
  Ne4      1.0000 0.33333  0.66668  0.91667  Biso   1.000  Ne
  He16     1.0000 0.33335  0.66669  0.05806  Biso   1.000  He
  He17     1.0000 0.32316  0.81581  0.89257  Biso   1.000  He
  He18     1.0000 0.48465  0.65719  0.93984  Biso   1.000  He
  He19     1.0000 0.17584  0.52018  0.94188  Biso   1.000  He
  He20     1.0000 0.33333  0.66669  0.77588  Biso   1.000  He
  Ar4      1.0000 0.33333  0.66668  0.91667  Biso   1.000  Ar
  Ne5      1.0000 0.99999  0.00002  0.75000  Biso   1.000  Ne
  He21     1.0000 0.99999  0.00002  0.89355  Biso   1.000  He
  He22     1.0000 0.79414  0.01044  0.74654  Biso   1.000  He
  He23     1.0000 0.11940  0.13643  0.78019  Biso   1.000  He
  He24     1.0000 0.99093  0.78526  0.74698  Biso   1.000  He
  He25     1.0000 0.99999  0.99999  0.60733  Biso   1.000  He
  Ar5      1.0000 1.00000  0.99999  0.75001  Biso   1.000  Ar
  Ne6      1.0000 0.99999  0.00002  0.25000  Biso   1.000  Ne
  He26     1.0000 0.99999  0.00002  0.39141  Biso   1.000  He
  He27     1.0000 0.98981  0.14910  0.22593  Biso   1.000  He
  He28     1.0000 0.15133  0.99052  0.27316  Biso   1.000  He
  He29     1.0000 0.84621  0.83753  0.22789  Biso   1.000  He
  He30     1.0000 0.99997  1.00000  0.10923  Biso   1.000  He
  Ar6      1.0000 0.99997  0.00001  0.25000  Biso   1.000  Ar
