data_image0
_cell_length_a       23.948
_cell_length_b       23.948
_cell_length_c       23.948
_cell_angle_alpha    90
_cell_angle_beta     90
_cell_angle_gamma    90

_symmetry_space_group_name_H-M    "P 1"
_symmetry_int_tables_number       1

loop_
  _symmetry_equiv_pos_as_xyz
  'x, y, z'

loop_
  _atom_site_label
  _atom_site_occupancy
  _atom_site_fract_x
  _atom_site_fract_y
  _atom_site_fract_z
  _atom_site_thermal_displace_type
  _atom_site_B_iso_or_equiv
  _atom_site_type_symbol
  C1       1.0000 0.38559  0.19263  0.36688  Biso   1.000  C
  C2       1.0000 0.39974  0.16018  0.32065  Biso   1.000  C
  C3       1.0000 0.33982  0.17935  0.39974  Biso   1.000  C
  H1       1.0000 0.40759  0.22428  0.37598  Biso   1.000  H
  C4       1.0000 0.44881  0.17296  0.28629  Biso   1.000  C
  C5       1.0000 0.36688  0.11441  0.30737  Biso   1.000  C
  C6       1.0000 0.32704  0.21371  0.44881  Biso   1.000  C
  C7       1.0000 0.30737  0.13308  0.38559  Biso   1.000  C
  N1       1.0000 0.48280  0.21108  0.29894  Biso   1.000  N
  H2       1.0000 0.45519  0.15179  0.25338  Biso   1.000  H
  C8       1.0000 0.32065  0.10026  0.33982  Biso   1.000  C
  H3       1.0000 0.37598  0.09241  0.27568  Biso   1.000  H
  N2       1.0000 0.28892  0.20106  0.48280  Biso   1.000  N
  H4       1.0000 0.34821  0.24662  0.45519  Biso   1.000  H
  H5       1.0000 0.27568  0.12402  0.40759  Biso   1.000  H
  C9       1.0000 0.52931  0.22027  0.26098  Biso   1.000  C
  C10      1.0000 0.28629  0.05115  0.32704  Biso   1.000  C
  C11      1.0000 0.27973  0.23902  0.52931  Biso   1.000  C
  C12      1.0000 0.52931  0.27973  0.23902  Biso   1.000  C
  H6       1.0000 0.52639  0.19371  0.22891  Biso   1.000  H
  C13      1.0000 0.58723  0.21613  0.28625  Biso   1.000  C
  C14      1.0000 0.57541  0.19300  0.30938  Biso   1.000  C
  N3       1.0000 0.29894  0.01716  0.28892  Biso   1.000  N
  H7       1.0000 0.25338  0.04481  0.34821  Biso   1.000  H
  C15      1.0000 0.22027  0.26098  0.52931  Biso   1.000  C
  H8       1.0000 0.30629  0.27109  0.52639  Biso   1.000  H
  C16      1.0000 0.28387  0.21375  0.58723  Biso   1.000  C
  C17      1.0000 0.30700  0.19058  0.57541  Biso   1.000  C
  N4       1.0000 0.48280  0.28892  0.20106  Biso   1.000  N
  H9       1.0000 0.52639  0.30629  0.27109  Biso   1.000  H
  C18      1.0000 0.58723  0.28387  0.21375  Biso   1.000  C
  C19      1.0000 0.57541  0.30700  0.19058  Biso   1.000  C
  H10      1.0000 0.59871  0.17651  0.28821  Biso   1.000  H
  H11      1.0000 0.58660  0.23121  0.32470  Biso   1.000  H
  C20      1.0000 0.63083  0.25000  0.25000  Biso   1.000  C
  C21      1.0000 0.63041  0.20219  0.27639  Biso   1.000  C
  H12      1.0000 0.57491  0.21409  0.34491  Biso   1.000  H
  H13      1.0000 0.56831  0.15300  0.31681  Biso   1.000  H
  C22      1.0000 0.26098  0.97069  0.27973  Biso   1.000  C
  N5       1.0000 0.21108  0.29894  0.48280  Biso   1.000  N
  H14      1.0000 0.19371  0.22891  0.52639  Biso   1.000  H
  C23      1.0000 0.21613  0.28625  0.58723  Biso   1.000  C
  C24      1.0000 0.19300  0.30938  0.57541  Biso   1.000  C
  H15      1.0000 0.32349  0.21179  0.59871  Biso   1.000  H
  H16      1.0000 0.26879  0.17530  0.58660  Biso   1.000  H
  C25      1.0000 0.25000  0.25000  0.63083  Biso   1.000  C
  C26      1.0000 0.29781  0.22361  0.63041  Biso   1.000  C
  H17      1.0000 0.28591  0.15509  0.57491  Biso   1.000  H
  H18      1.0000 0.34700  0.18319  0.56831  Biso   1.000  H
  C27      1.0000 0.44881  0.32704  0.21371  Biso   1.000  C
  H19      1.0000 0.59871  0.32349  0.21179  Biso   1.000  H
  H20      1.0000 0.58660  0.26879  0.17530  Biso   1.000  H
  C28      1.0000 0.63041  0.29781  0.22361  Biso   1.000  C
  H21      1.0000 0.57491  0.28591  0.15509  Biso   1.000  H
  H22      1.0000 0.56831  0.34700  0.18319  Biso   1.000  H
  H23      1.0000 0.65458  0.22528  0.22691  Biso   1.000  H
  H24      1.0000 0.65458  0.27468  0.27309  Biso   1.000  H
  H25      1.0000 0.66231  0.20102  0.30270  Biso   1.000  H
  H26      1.0000 0.63521  0.17150  0.24908  Biso   1.000  H
  C29      1.0000 0.23902  0.97069  0.22027  Biso   1.000  C
  H27      1.0000 0.22891  0.97361  0.30629  Biso   1.000  H
  C30      1.0000 0.28625  0.91277  0.28387  Biso   1.000  C
  C31      1.0000 0.30938  0.92459  0.30700  Biso   1.000  C
  C32      1.0000 0.17296  0.28629  0.44881  Biso   1.000  C
  H28      1.0000 0.17651  0.28821  0.59871  Biso   1.000  H
  H29      1.0000 0.23121  0.32470  0.58660  Biso   1.000  H
  C33      1.0000 0.20219  0.27639  0.63041  Biso   1.000  C
  H30      1.0000 0.21409  0.34491  0.57491  Biso   1.000  H
  H31      1.0000 0.15300  0.31681  0.56831  Biso   1.000  H
  H32      1.0000 0.22528  0.22691  0.65458  Biso   1.000  H
  H33      1.0000 0.27468  0.27309  0.65458  Biso   1.000  H
  H34      1.0000 0.29898  0.19730  0.66231  Biso   1.000  H
  H35      1.0000 0.32850  0.25092  0.63521  Biso   1.000  H
  H36      1.0000 0.45519  0.34821  0.24662  Biso   1.000  H
  C34      1.0000 0.39974  0.33982  0.17935  Biso   1.000  C
  H37      1.0000 0.66231  0.29898  0.19730  Biso   1.000  H
  H38      1.0000 0.63521  0.32850  0.25092  Biso   1.000  H
  N6       1.0000 0.20106  0.01716  0.21108  Biso   1.000  N
  H39      1.0000 0.27109  0.97361  0.19371  Biso   1.000  H
  C35      1.0000 0.21375  0.91277  0.21613  Biso   1.000  C
  C36      1.0000 0.19058  0.92459  0.19300  Biso   1.000  C
  H40      1.0000 0.28821  0.90129  0.32349  Biso   1.000  H
  H41      1.0000 0.32470  0.91340  0.26879  Biso   1.000  H
  C37      1.0000 0.25000  0.86917  0.25000  Biso   1.000  C
  C38      1.0000 0.27639  0.86959  0.29781  Biso   1.000  C
  H42      1.0000 0.34491  0.92509  0.28591  Biso   1.000  H
  H43      1.0000 0.31681  0.93169  0.34700  Biso   1.000  H
  H44      1.0000 0.15179  0.25338  0.45519  Biso   1.000  H
  C39      1.0000 0.16018  0.32065  0.39974  Biso   1.000  C
  H45      1.0000 0.20102  0.30270  0.66231  Biso   1.000  H
  H46      1.0000 0.17150  0.24908  0.63521  Biso   1.000  H
  C40      1.0000 0.38559  0.30737  0.13308  Biso   1.000  C
  C41      1.0000 0.36688  0.38559  0.19263  Biso   1.000  C
  C42      1.0000 0.21371  0.05115  0.17296  Biso   1.000  C
  H47      1.0000 0.21179  0.90129  0.17651  Biso   1.000  H
  H48      1.0000 0.17530  0.91340  0.23121  Biso   1.000  H
  C43      1.0000 0.22361  0.86959  0.20219  Biso   1.000  C
  H49      1.0000 0.15509  0.92509  0.21409  Biso   1.000  H
  H50      1.0000 0.18319  0.93169  0.15300  Biso   1.000  H
  H51      1.0000 0.27309  0.84542  0.22528  Biso   1.000  H
  H52      1.0000 0.22691  0.84542  0.27468  Biso   1.000  H
  H53      1.0000 0.30270  0.83769  0.29898  Biso   1.000  H
  H54      1.0000 0.24908  0.86479  0.32850  Biso   1.000  H
  C44      1.0000 0.19263  0.36688  0.38559  Biso   1.000  C
  C45      1.0000 0.11441  0.30737  0.36688  Biso   1.000  C
  C46      1.0000 0.33982  0.32065  0.10026  Biso   1.000  C
  H55      1.0000 0.40759  0.27568  0.12402  Biso   1.000  H
  C47      1.0000 0.32065  0.39974  0.16018  Biso   1.000  C
  H56      1.0000 0.37598  0.40759  0.22428  Biso   1.000  H
  H57      1.0000 0.24662  0.04481  0.15179  Biso   1.000  H
  C48      1.0000 0.17935  0.10026  0.16018  Biso   1.000  C
  H58      1.0000 0.19730  0.83769  0.20102  Biso   1.000  H
  H59      1.0000 0.25092  0.86479  0.17150  Biso   1.000  H
  C49      1.0000 0.17935  0.39974  0.33982  Biso   1.000  C
  H60      1.0000 0.22428  0.37598  0.40759  Biso   1.000  H
  C50      1.0000 0.10026  0.33982  0.32065  Biso   1.000  C
  H61      1.0000 0.09241  0.27568  0.37598  Biso   1.000  H
  C51      1.0000 0.32704  0.28629  0.05115  Biso   1.000  C
  C52      1.0000 0.30737  0.36688  0.11441  Biso   1.000  C
  C53      1.0000 0.28629  0.44881  0.17296  Biso   1.000  C
  C54      1.0000 0.13308  0.11441  0.19263  Biso   1.000  C
  C55      1.0000 0.19263  0.13308  0.11441  Biso   1.000  C
  C56      1.0000 0.21371  0.44881  0.32704  Biso   1.000  C
  C57      1.0000 0.13308  0.38559  0.30737  Biso   1.000  C
  C58      1.0000 0.05115  0.32704  0.28629  Biso   1.000  C
  N7       1.0000 0.28892  0.29894  0.01716  Biso   1.000  N
  H62      1.0000 0.34821  0.25338  0.04481  Biso   1.000  H
  H63      1.0000 0.27568  0.37598  0.09241  Biso   1.000  H
  N8       1.0000 0.29894  0.48280  0.21108  Biso   1.000  N
  H64      1.0000 0.25338  0.45519  0.15179  Biso   1.000  H
  C59      1.0000 0.10026  0.16018  0.17935  Biso   1.000  C
  H65      1.0000 0.12402  0.09241  0.22428  Biso   1.000  H
  C60      1.0000 0.16018  0.17935  0.10026  Biso   1.000  C
  H66      1.0000 0.22428  0.12402  0.09241  Biso   1.000  H
  N9       1.0000 0.20106  0.48280  0.28892  Biso   1.000  N
  H67      1.0000 0.24662  0.45519  0.34821  Biso   1.000  H
  H68      1.0000 0.12402  0.40759  0.27568  Biso   1.000  H
  N10      1.0000 0.01716  0.28892  0.29894  Biso   1.000  N
  H69      1.0000 0.04481  0.34821  0.25338  Biso   1.000  H
  C61      1.0000 0.27973  0.26098  0.97069  Biso   1.000  C
  C62      1.0000 0.26098  0.52931  0.22027  Biso   1.000  C
  C63      1.0000 0.05115  0.17296  0.21371  Biso   1.000  C
  C64      1.0000 0.11441  0.19263  0.13308  Biso   1.000  C
  C65      1.0000 0.17296  0.21371  0.05115  Biso   1.000  C
  C66      1.0000 0.23902  0.52931  0.27973  Biso   1.000  C
  C67      1.0000 0.97069  0.27973  0.26098  Biso   1.000  C
  C68      1.0000 0.22027  0.23902  0.97069  Biso   1.000  C
  H70      1.0000 0.30629  0.22891  0.97361  Biso   1.000  H
  C69      1.0000 0.28387  0.28625  0.91277  Biso   1.000  C
  C70      1.0000 0.30700  0.30938  0.92459  Biso   1.000  C
  H71      1.0000 0.22891  0.52639  0.19371  Biso   1.000  H
  C71      1.0000 0.28625  0.58723  0.21613  Biso   1.000  C
  C72      1.0000 0.30938  0.57541  0.19300  Biso   1.000  C
  N11      1.0000 0.01716  0.21108  0.20106  Biso   1.000  N
  H72      1.0000 0.04481  0.15179  0.24662  Biso   1.000  H
  H73      1.0000 0.09241  0.22428  0.12402  Biso   1.000  H
  N12      1.0000 0.21108  0.20106  0.01716  Biso   1.000  N
  H74      1.0000 0.15179  0.24662  0.04481  Biso   1.000  H
  H75      1.0000 0.27109  0.52639  0.30629  Biso   1.000  H
  C73      1.0000 0.21375  0.58723  0.28387  Biso   1.000  C
  C74      1.0000 0.19058  0.57541  0.30700  Biso   1.000  C
  C75      1.0000 0.97069  0.22027  0.23902  Biso   1.000  C
  H76      1.0000 0.97361  0.30629  0.22891  Biso   1.000  H
  C76      1.0000 0.91277  0.28387  0.28625  Biso   1.000  C
  C77      1.0000 0.92459  0.30700  0.30938  Biso   1.000  C
  H77      1.0000 0.19371  0.27109  0.97361  Biso   1.000  H
  C78      1.0000 0.21613  0.21375  0.91277  Biso   1.000  C
  C79      1.0000 0.19300  0.19058  0.92459  Biso   1.000  C
  H78      1.0000 0.32349  0.28821  0.90129  Biso   1.000  H
  H79      1.0000 0.26879  0.32470  0.91340  Biso   1.000  H
  C80      1.0000 0.25000  0.25000  0.86917  Biso   1.000  C
  C81      1.0000 0.29781  0.27639  0.86959  Biso   1.000  C
  H80      1.0000 0.28591  0.34491  0.92509  Biso   1.000  H
  H81      1.0000 0.34700  0.31681  0.93169  Biso   1.000  H
  H82      1.0000 0.28821  0.59871  0.17651  Biso   1.000  H
  H83      1.0000 0.32470  0.58660  0.23121  Biso   1.000  H
  C82      1.0000 0.25000  0.63083  0.25000  Biso   1.000  C
  C83      1.0000 0.27639  0.63041  0.20219  Biso   1.000  C
  H84      1.0000 0.34491  0.57491  0.21409  Biso   1.000  H
  H85      1.0000 0.31681  0.56831  0.15300  Biso   1.000  H
  H86      1.0000 0.21179  0.59871  0.32349  Biso   1.000  H
  H87      1.0000 0.17530  0.58660  0.26879  Biso   1.000  H
  C84      1.0000 0.22361  0.63041  0.29781  Biso   1.000  C
  H88      1.0000 0.15509  0.57491  0.28591  Biso   1.000  H
  H89      1.0000 0.18319  0.56831  0.34700  Biso   1.000  H
  H90      1.0000 0.97361  0.19371  0.27109  Biso   1.000  H
  C85      1.0000 0.91277  0.21613  0.21375  Biso   1.000  C
  C86      1.0000 0.92459  0.19300  0.19058  Biso   1.000  C
  C87      1.0000 0.86917  0.25000  0.25000  Biso   1.000  C
  H91      1.0000 0.90129  0.32349  0.28821  Biso   1.000  H
  H92      1.0000 0.91340  0.26879  0.32470  Biso   1.000  H
  C88      1.0000 0.86959  0.29781  0.27639  Biso   1.000  C
  H93      1.0000 0.92509  0.28591  0.34491  Biso   1.000  H
  H94      1.0000 0.93169  0.34700  0.31681  Biso   1.000  H
  H95      1.0000 0.17651  0.21179  0.90129  Biso   1.000  H
  H96      1.0000 0.23121  0.17530  0.91340  Biso   1.000  H
  C89      1.0000 0.20219  0.22361  0.86959  Biso   1.000  C
  H97      1.0000 0.21409  0.15509  0.92509  Biso   1.000  H
  H98      1.0000 0.15300  0.18319  0.93169  Biso   1.000  H
  H99      1.0000 0.22528  0.27309  0.84542  Biso   1.000  H
  H100     1.0000 0.27468  0.22691  0.84542  Biso   1.000  H
  H101     1.0000 0.29898  0.30270  0.83769  Biso   1.000  H
  H102     1.0000 0.32850  0.24908  0.86479  Biso   1.000  H
  H103     1.0000 0.27309  0.65458  0.27468  Biso   1.000  H
  H104     1.0000 0.22691  0.65458  0.22528  Biso   1.000  H
  H105     1.0000 0.30270  0.66231  0.20102  Biso   1.000  H
  H106     1.0000 0.24908  0.63521  0.17150  Biso   1.000  H
  H107     1.0000 0.19730  0.66231  0.29898  Biso   1.000  H
  H108     1.0000 0.25092  0.63521  0.32850  Biso   1.000  H
  H109     1.0000 0.90129  0.17651  0.21179  Biso   1.000  H
  H110     1.0000 0.91340  0.23121  0.17530  Biso   1.000  H
  C90      1.0000 0.86959  0.20219  0.22361  Biso   1.000  C
  H111     1.0000 0.92509  0.21409  0.15509  Biso   1.000  H
  H112     1.0000 0.93169  0.15300  0.18319  Biso   1.000  H
  H113     1.0000 0.84542  0.22528  0.27309  Biso   1.000  H
  H114     1.0000 0.84542  0.27468  0.22691  Biso   1.000  H
  H115     1.0000 0.83769  0.29898  0.30270  Biso   1.000  H
  H116     1.0000 0.86479  0.32850  0.24908  Biso   1.000  H
  H117     1.0000 0.20102  0.19730  0.83769  Biso   1.000  H
  H118     1.0000 0.17150  0.25092  0.86479  Biso   1.000  H
  H119     1.0000 0.83769  0.20102  0.19730  Biso   1.000  H
  H120     1.0000 0.86479  0.17150  0.25092  Biso   1.000  H
  C91      1.0000 0.53762  0.30078  0.42492  Biso   1.000  C
  N13      1.0000 0.54961  0.26766  0.46413  Biso   1.000  N
  H121     1.0000 0.50560  0.29288  0.40279  Biso   1.000  H
  C92      1.0000 0.57061  0.35084  0.41160  Biso   1.000  C
  C93      1.0000 0.51320  0.21893  0.47115  Biso   1.000  C
  C94      1.0000 0.55658  0.38287  0.36583  Biso   1.000  C
  C95      1.0000 0.61709  0.36583  0.44342  Biso   1.000  C
  C96      1.0000 0.48680  0.21893  0.52885  Biso   1.000  C
  H122     1.0000 0.53528  0.18432  0.46609  Biso   1.000  H
  H123     1.0000 0.48351  0.21960  0.44242  Biso   1.000  H
  C97      1.0000 0.58840  0.42939  0.35084  Biso   1.000  C
  H124     1.0000 0.52480  0.37318  0.34420  Biso   1.000  H
  C98      1.0000 0.64916  0.41160  0.42939  Biso   1.000  C
  H125     1.0000 0.62677  0.34420  0.47520  Biso   1.000  H
  N14      1.0000 0.45039  0.26766  0.53583  Biso   1.000  N
  H126     1.0000 0.46472  0.18432  0.53391  Biso   1.000  H
  H127     1.0000 0.51649  0.21960  0.55758  Biso   1.000  H
  C99      1.0000 0.57508  0.46238  0.30078  Biso   1.000  C
  C100     1.0000 0.63417  0.44342  0.38287  Biso   1.000  C
  C101     1.0000 0.69922  0.42492  0.46238  Biso   1.000  C
  C102     1.0000 0.46238  0.30078  0.57508  Biso   1.000  C
  N15      1.0000 0.53583  0.45039  0.26766  Biso   1.000  N
  H128     1.0000 0.59721  0.49440  0.29288  Biso   1.000  H
  H129     1.0000 0.65580  0.47520  0.37318  Biso   1.000  H
  N16      1.0000 0.73234  0.46413  0.45039  Biso   1.000  N
  H130     1.0000 0.70707  0.40279  0.49440  Biso   1.000  H
  H131     1.0000 0.49440  0.29288  0.59721  Biso   1.000  H
  C103     1.0000 0.42939  0.35084  0.58840  Biso   1.000  C
  C104     1.0000 0.52885  0.48680  0.21893  Biso   1.000  C
  C105     1.0000 0.78107  0.47115  0.48680  Biso   1.000  C
  C106     1.0000 0.44342  0.38287  0.63417  Biso   1.000  C
  C107     1.0000 0.38287  0.36583  0.55658  Biso   1.000  C
  C108     1.0000 0.47115  0.51320  0.21893  Biso   1.000  C
  H132     1.0000 0.53391  0.46472  0.18432  Biso   1.000  H
  H133     1.0000 0.55758  0.51649  0.21960  Biso   1.000  H
  C109     1.0000 0.78107  0.52885  0.51320  Biso   1.000  C
  H134     1.0000 0.81568  0.46609  0.46472  Biso   1.000  H
  H135     1.0000 0.78040  0.44242  0.51649  Biso   1.000  H
  C110     1.0000 0.41160  0.42939  0.64916  Biso   1.000  C
  H136     1.0000 0.47520  0.37318  0.65580  Biso   1.000  H
  C111     1.0000 0.35084  0.41160  0.57061  Biso   1.000  C
  H137     1.0000 0.37318  0.34420  0.52480  Biso   1.000  H
  N17      1.0000 0.46413  0.54961  0.26766  Biso   1.000  N
  H138     1.0000 0.46609  0.53528  0.18432  Biso   1.000  H
  H139     1.0000 0.44242  0.48351  0.21960  Biso   1.000  H
  N18      1.0000 0.73234  0.53583  0.54961  Biso   1.000  N
  H140     1.0000 0.81568  0.53391  0.53528  Biso   1.000  H
  H141     1.0000 0.78040  0.55758  0.48351  Biso   1.000  H
  C112     1.0000 0.42492  0.46238  0.69922  Biso   1.000  C
  C113     1.0000 0.36583  0.44342  0.61709  Biso   1.000  C
  C114     1.0000 0.30078  0.42492  0.53762  Biso   1.000  C
  C115     1.0000 0.42492  0.53762  0.30078  Biso   1.000  C
  C116     1.0000 0.69922  0.57508  0.53762  Biso   1.000  C
  N19      1.0000 0.46413  0.45039  0.73234  Biso   1.000  N
  H142     1.0000 0.40279  0.49440  0.70707  Biso   1.000  H
  H143     1.0000 0.34420  0.47520  0.62677  Biso   1.000  H
  N20      1.0000 0.26766  0.46413  0.54961  Biso   1.000  N
  H144     1.0000 0.29288  0.40279  0.50560  Biso   1.000  H
  H145     1.0000 0.40279  0.50560  0.29288  Biso   1.000  H
  C117     1.0000 0.41160  0.57061  0.35084  Biso   1.000  C
  H146     1.0000 0.70707  0.59721  0.50560  Biso   1.000  H
  C118     1.0000 0.64916  0.58840  0.57061  Biso   1.000  C
  C119     1.0000 0.47115  0.48680  0.78107  Biso   1.000  C
  C120     1.0000 0.21893  0.47115  0.51320  Biso   1.000  C
  C121     1.0000 0.36583  0.55658  0.38287  Biso   1.000  C
  C122     1.0000 0.44342  0.61709  0.36583  Biso   1.000  C
  C123     1.0000 0.61709  0.63417  0.55658  Biso   1.000  C
  C124     1.0000 0.63417  0.55658  0.61709  Biso   1.000  C
  C125     1.0000 0.52885  0.51320  0.78107  Biso   1.000  C
  H147     1.0000 0.46609  0.46472  0.81568  Biso   1.000  H
  H148     1.0000 0.44242  0.51649  0.78040  Biso   1.000  H
  C126     1.0000 0.21893  0.52885  0.48680  Biso   1.000  C
  H149     1.0000 0.18432  0.46609  0.53528  Biso   1.000  H
  H150     1.0000 0.21960  0.44242  0.48351  Biso   1.000  H
  C127     1.0000 0.35084  0.58840  0.42939  Biso   1.000  C
  H151     1.0000 0.34420  0.52480  0.37318  Biso   1.000  H
  C128     1.0000 0.42939  0.64916  0.41160  Biso   1.000  C
  H152     1.0000 0.47520  0.62677  0.34420  Biso   1.000  H
  C129     1.0000 0.57061  0.64916  0.58840  Biso   1.000  C
  H153     1.0000 0.62677  0.65580  0.52480  Biso   1.000  H
  C130     1.0000 0.58840  0.57061  0.64916  Biso   1.000  C
  H154     1.0000 0.65580  0.52480  0.62677  Biso   1.000  H
  N21      1.0000 0.53583  0.54961  0.73234  Biso   1.000  N
  H155     1.0000 0.53391  0.53528  0.81568  Biso   1.000  H
  H156     1.0000 0.55758  0.48351  0.78040  Biso   1.000  H
  N22      1.0000 0.26766  0.53583  0.45039  Biso   1.000  N
  H157     1.0000 0.18432  0.53391  0.46472  Biso   1.000  H
  H158     1.0000 0.21960  0.55758  0.51649  Biso   1.000  H
  C131     1.0000 0.30078  0.57508  0.46238  Biso   1.000  C
  C132     1.0000 0.38287  0.63417  0.44342  Biso   1.000  C
  C133     1.0000 0.46238  0.69922  0.42492  Biso   1.000  C
  C134     1.0000 0.53762  0.69922  0.57508  Biso   1.000  C
  C135     1.0000 0.55658  0.61709  0.63417  Biso   1.000  C
  C136     1.0000 0.57508  0.53762  0.69922  Biso   1.000  C
  H159     1.0000 0.29288  0.59721  0.49440  Biso   1.000  H
  H160     1.0000 0.37318  0.65580  0.47520  Biso   1.000  H
  N23      1.0000 0.45039  0.73234  0.46413  Biso   1.000  N
  H161     1.0000 0.49440  0.70707  0.40279  Biso   1.000  H
  N24      1.0000 0.54961  0.73234  0.53583  Biso   1.000  N
  H162     1.0000 0.50560  0.70707  0.59721  Biso   1.000  H
  H163     1.0000 0.52480  0.62677  0.65580  Biso   1.000  H
  H164     1.0000 0.59721  0.50560  0.70707  Biso   1.000  H
  C137     1.0000 0.48680  0.78107  0.47115  Biso   1.000  C
  C138     1.0000 0.51320  0.78107  0.52885  Biso   1.000  C
  H165     1.0000 0.46472  0.81568  0.46609  Biso   1.000  H
  H166     1.0000 0.51649  0.78040  0.44242  Biso   1.000  H
  H167     1.0000 0.53528  0.81568  0.53391  Biso   1.000  H
  H168     1.0000 0.48351  0.78040  0.55758  Biso   1.000  H
  C139     1.0000 0.53762  0.19922  0.07508  Biso   1.000  C
  N25      1.0000 0.54961  0.23234  0.03587  Biso   1.000  N
  H169     1.0000 0.50560  0.20712  0.09721  Biso   1.000  H
  C140     1.0000 0.57061  0.14916  0.08840  Biso   1.000  C
  N26      1.0000 0.54961  0.23234  0.03583  Biso   1.000  N
  H170     1.0000 0.50560  0.20707  0.09721  Biso   1.000  H
  C141     1.0000 0.51320  0.28107  0.02885  Biso   1.000  C
  C142     1.0000 0.51320  0.28107  0.02881  Biso   1.000  C
  C143     1.0000 0.61709  0.13417  0.05658  Biso   1.000  C
  C144     1.0000 0.55658  0.11713  0.13417  Biso   1.000  C
  C145     1.0000 0.55658  0.11709  0.13417  Biso   1.000  C
  H171     1.0000 0.53528  0.31568  0.03391  Biso   1.000  H
  H172     1.0000 0.48351  0.28040  0.05758  Biso   1.000  H
  C146     1.0000 0.48680  0.28107  0.97115  Biso   1.000  C
  H173     1.0000 0.62677  0.15580  0.02480  Biso   1.000  H
  C147     1.0000 0.64916  0.08840  0.07061  Biso   1.000  C
  C148     1.0000 0.58840  0.07061  0.14916  Biso   1.000  C
  H174     1.0000 0.52480  0.12682  0.15580  Biso   1.000  H
  H175     1.0000 0.52480  0.12677  0.15580  Biso   1.000  H
  N27      1.0000 0.45039  0.23234  0.96413  Biso   1.000  N
  H176     1.0000 0.46472  0.31568  0.96609  Biso   1.000  H
  H177     1.0000 0.51649  0.28040  0.94242  Biso   1.000  H
  H178     1.0000 0.51649  0.28040  0.94238  Biso   1.000  H
  C149     1.0000 0.69922  0.07508  0.03762  Biso   1.000  C
  C150     1.0000 0.63417  0.05658  0.11713  Biso   1.000  C
  C151     1.0000 0.63417  0.05658  0.11709  Biso   1.000  C
  C152     1.0000 0.57508  0.03762  0.19922  Biso   1.000  C
  C153     1.0000 0.46238  0.19922  0.92492  Biso   1.000  C
  N28      1.0000 0.73234  0.03587  0.04961  Biso   1.000  N
  H179     1.0000 0.70707  0.09721  0.00560  Biso   1.000  H
  N29      1.0000 0.73234  0.03583  0.04961  Biso   1.000  N
  H180     1.0000 0.65580  0.02480  0.12682  Biso   1.000  H
  H181     1.0000 0.65580  0.02480  0.12677  Biso   1.000  H
  N30      1.0000 0.53583  0.04961  0.23234  Biso   1.000  N
  H182     1.0000 0.59721  0.00560  0.20712  Biso   1.000  H
  H183     1.0000 0.59721  0.00560  0.20707  Biso   1.000  H
  H184     1.0000 0.49440  0.20712  0.90279  Biso   1.000  H
  C154     1.0000 0.42939  0.14916  0.91160  Biso   1.000  C
  H185     1.0000 0.49440  0.20707  0.90279  Biso   1.000  H
  C155     1.0000 0.78107  0.02885  0.01320  Biso   1.000  C
  C156     1.0000 0.78107  0.02881  0.01320  Biso   1.000  C
  C157     1.0000 0.52885  0.01320  0.28107  Biso   1.000  C
  C158     1.0000 0.38287  0.13417  0.94342  Biso   1.000  C
  C159     1.0000 0.44342  0.11713  0.86583  Biso   1.000  C
  C160     1.0000 0.44342  0.11709  0.86583  Biso   1.000  C
  H186     1.0000 0.81568  0.03391  0.03528  Biso   1.000  H
  C161     1.0000 0.78107  0.97115  0.98680  Biso   1.000  C
  C162     1.0000 0.78107  0.97115  0.98676  Biso   1.000  C
  H187     1.0000 0.78040  0.05758  0.98351  Biso   1.000  H
  H188     1.0000 0.53391  0.03528  0.31568  Biso   1.000  H
  C163     1.0000 0.47115  0.98680  0.28107  Biso   1.000  C
  H189     1.0000 0.55758  0.98351  0.28040  Biso   1.000  H
  C164     1.0000 0.47115  0.98676  0.28107  Biso   1.000  C
  C165     1.0000 0.35084  0.08840  0.92939  Biso   1.000  C
  H190     1.0000 0.37318  0.15580  0.97520  Biso   1.000  H
  C166     1.0000 0.41160  0.07061  0.85084  Biso   1.000  C
  H191     1.0000 0.47520  0.12682  0.84420  Biso   1.000  H
  H192     1.0000 0.47520  0.12677  0.84420  Biso   1.000  H
  N31      1.0000 0.73234  0.96413  0.95039  Biso   1.000  N
  H193     1.0000 0.81568  0.96609  0.96472  Biso   1.000  H
  H194     1.0000 0.81568  0.96609  0.96467  Biso   1.000  H
  H195     1.0000 0.78040  0.94242  0.01649  Biso   1.000  H
  H196     1.0000 0.78040  0.94238  0.01649  Biso   1.000  H
  H197     1.0000 0.44242  0.01649  0.28040  Biso   1.000  H
  N32      1.0000 0.46413  0.95039  0.23234  Biso   1.000  N
  H198     1.0000 0.46609  0.96472  0.31568  Biso   1.000  H
  H199     1.0000 0.46609  0.96467  0.31568  Biso   1.000  H
  C167     1.0000 0.30078  0.07508  0.96238  Biso   1.000  C
  C168     1.0000 0.36583  0.05658  0.88287  Biso   1.000  C
  C169     1.0000 0.30078  0.07508  0.96234  Biso   1.000  C
  C170     1.0000 0.42492  0.03762  0.80078  Biso   1.000  C
  C171     1.0000 0.69922  0.92492  0.96238  Biso   1.000  C
  C172     1.0000 0.69922  0.92492  0.96234  Biso   1.000  C
  C173     1.0000 0.42492  0.96238  0.19922  Biso   1.000  C
  C174     1.0000 0.42492  0.96234  0.19922  Biso   1.000  C
  N33      1.0000 0.26766  0.03587  0.95039  Biso   1.000  N
  H200     1.0000 0.29288  0.09721  0.99440  Biso   1.000  H
  N34      1.0000 0.26766  0.03583  0.95039  Biso   1.000  N
  H201     1.0000 0.34420  0.02480  0.87318  Biso   1.000  H
  N35      1.0000 0.46413  0.04961  0.76766  Biso   1.000  N
  H202     1.0000 0.40279  0.00560  0.79288  Biso   1.000  H
  H203     1.0000 0.70707  0.90279  0.99440  Biso   1.000  H
  C175     1.0000 0.64916  0.91160  0.92939  Biso   1.000  C
  H204     1.0000 0.40279  0.99440  0.20712  Biso   1.000  H
  C176     1.0000 0.41160  0.92939  0.14916  Biso   1.000  C
  H205     1.0000 0.40279  0.99440  0.20707  Biso   1.000  H
  C177     1.0000 0.21893  0.02885  0.98680  Biso   1.000  C
  C178     1.0000 0.21893  0.02885  0.98676  Biso   1.000  C
  C179     1.0000 0.21893  0.02881  0.98680  Biso   1.000  C
  C180     1.0000 0.21893  0.02881  0.98676  Biso   1.000  C
  C181     1.0000 0.47115  0.01320  0.71893  Biso   1.000  C
  C182     1.0000 0.63417  0.94342  0.88287  Biso   1.000  C
  C183     1.0000 0.61709  0.86583  0.94342  Biso   1.000  C
  C184     1.0000 0.36583  0.94342  0.11713  Biso   1.000  C
  C185     1.0000 0.44342  0.88287  0.13417  Biso   1.000  C
  C186     1.0000 0.36583  0.94342  0.11709  Biso   1.000  C
  H206     1.0000 0.21960  0.05758  0.01649  Biso   1.000  H
  C187     1.0000 0.21893  0.97115  0.01320  Biso   1.000  C
  H207     1.0000 0.18432  0.03391  0.96472  Biso   1.000  H
  H208     1.0000 0.18432  0.03391  0.96467  Biso   1.000  H
  C188     1.0000 0.52885  0.98680  0.71893  Biso   1.000  C
  H209     1.0000 0.44242  0.98351  0.71960  Biso   1.000  H
  C189     1.0000 0.52885  0.98676  0.71893  Biso   1.000  C
  H210     1.0000 0.46609  0.03528  0.68432  Biso   1.000  H
  H211     1.0000 0.46609  0.03528  0.68427  Biso   1.000  H
  C190     1.0000 0.58840  0.92939  0.85084  Biso   1.000  C
  H212     1.0000 0.65580  0.97520  0.87318  Biso   1.000  H
  C191     1.0000 0.57061  0.85084  0.91160  Biso   1.000  C
  H213     1.0000 0.62677  0.84420  0.97520  Biso   1.000  H
  C192     1.0000 0.35084  0.91160  0.07061  Biso   1.000  C
  H214     1.0000 0.34420  0.97520  0.12682  Biso   1.000  H
  H215     1.0000 0.34420  0.97520  0.12677  Biso   1.000  H
  C193     1.0000 0.42939  0.85084  0.08840  Biso   1.000  C
  H216     1.0000 0.47520  0.87318  0.15580  Biso   1.000  H
  H217     1.0000 0.21960  0.94242  0.98351  Biso   1.000  H
  H218     1.0000 0.21960  0.94238  0.98351  Biso   1.000  H
  N36      1.0000 0.26766  0.96413  0.04961  Biso   1.000  N
  H219     1.0000 0.18432  0.96609  0.03528  Biso   1.000  H
  N37      1.0000 0.53583  0.95039  0.76766  Biso   1.000  N
  H220     1.0000 0.53391  0.96472  0.68432  Biso   1.000  H
  H221     1.0000 0.53391  0.96472  0.68427  Biso   1.000  H
  H222     1.0000 0.53391  0.96467  0.68432  Biso   1.000  H
  H223     1.0000 0.53391  0.96467  0.68427  Biso   1.000  H
  H224     1.0000 0.55758  0.01649  0.71960  Biso   1.000  H
  C194     1.0000 0.57508  0.96238  0.80078  Biso   1.000  C
  C195     1.0000 0.55658  0.88287  0.86583  Biso   1.000  C
  C196     1.0000 0.57508  0.96234  0.80078  Biso   1.000  C
  C197     1.0000 0.53762  0.80078  0.92492  Biso   1.000  C
  C198     1.0000 0.30078  0.92492  0.03762  Biso   1.000  C
  C199     1.0000 0.38287  0.86583  0.05658  Biso   1.000  C
  C200     1.0000 0.46238  0.80078  0.07508  Biso   1.000  C
  H225     1.0000 0.59721  0.99440  0.79288  Biso   1.000  H
  H226     1.0000 0.52480  0.87318  0.84420  Biso   1.000  H
  N38      1.0000 0.54961  0.76766  0.96413  Biso   1.000  N
  H227     1.0000 0.50560  0.79288  0.90279  Biso   1.000  H
  H228     1.0000 0.29288  0.90279  0.00560  Biso   1.000  H
  H229     1.0000 0.37318  0.84420  0.02480  Biso   1.000  H
  N39      1.0000 0.45039  0.76766  0.03587  Biso   1.000  N
  H230     1.0000 0.49440  0.79288  0.09721  Biso   1.000  H
  N40      1.0000 0.45039  0.76766  0.03583  Biso   1.000  N
  C201     1.0000 0.51320  0.71893  0.97115  Biso   1.000  C
  C202     1.0000 0.48680  0.71893  0.02885  Biso   1.000  C
  C203     1.0000 0.48680  0.71893  0.02881  Biso   1.000  C
  H231     1.0000 0.53528  0.68432  0.96609  Biso   1.000  H
  H232     1.0000 0.48351  0.71960  0.94242  Biso   1.000  H
  H233     1.0000 0.48351  0.71960  0.94238  Biso   1.000  H
  H234     1.0000 0.53528  0.68427  0.96609  Biso   1.000  H
  H235     1.0000 0.46472  0.68432  0.03391  Biso   1.000  H
  H236     1.0000 0.51649  0.71960  0.05758  Biso   1.000  H
  H237     1.0000 0.46472  0.68427  0.03391  Biso   1.000  H
  C204     1.0000 0.53762  0.19922  0.07508  Biso   1.000  C
  H238     1.0000 0.50560  0.20712  0.09721  Biso   1.000  H
  C205     1.0000 0.57061  0.14916  0.08840  Biso   1.000  C
  N41      1.0000 0.54961  0.23234  0.03587  Biso   1.000  N
  N42      1.0000 0.54961  0.23234  0.03583  Biso   1.000  N
  H239     1.0000 0.50560  0.20707  0.09721  Biso   1.000  H
  C206     1.0000 0.61709  0.13417  0.05658  Biso   1.000  C
  C207     1.0000 0.55658  0.11713  0.13417  Biso   1.000  C
  C208     1.0000 0.55658  0.11709  0.13417  Biso   1.000  C
  C209     1.0000 0.51320  0.28107  0.02885  Biso   1.000  C
  C210     1.0000 0.51320  0.28107  0.02881  Biso   1.000  C
  H240     1.0000 0.62677  0.15580  0.02480  Biso   1.000  H
  C211     1.0000 0.64916  0.08840  0.07061  Biso   1.000  C
  C212     1.0000 0.58840  0.07061  0.14916  Biso   1.000  C
  H241     1.0000 0.52480  0.12682  0.15580  Biso   1.000  H
  H242     1.0000 0.52480  0.12677  0.15580  Biso   1.000  H
  H243     1.0000 0.53528  0.31568  0.03391  Biso   1.000  H
  H244     1.0000 0.48351  0.28040  0.05758  Biso   1.000  H
  C213     1.0000 0.48680  0.28107  0.97115  Biso   1.000  C
  C214     1.0000 0.69922  0.07508  0.03762  Biso   1.000  C
  C215     1.0000 0.63417  0.05658  0.11713  Biso   1.000  C
  C216     1.0000 0.63417  0.05658  0.11709  Biso   1.000  C
  C217     1.0000 0.57508  0.03762  0.19922  Biso   1.000  C
  N43      1.0000 0.45039  0.23234  0.96413  Biso   1.000  N
  H245     1.0000 0.46472  0.31568  0.96609  Biso   1.000  H
  H246     1.0000 0.51649  0.28040  0.94242  Biso   1.000  H
  H247     1.0000 0.51649  0.28040  0.94238  Biso   1.000  H
  N44      1.0000 0.73234  0.03587  0.04961  Biso   1.000  N
  H248     1.0000 0.70707  0.09721  0.00560  Biso   1.000  H
  N45      1.0000 0.73234  0.03583  0.04961  Biso   1.000  N
  H249     1.0000 0.65580  0.02480  0.12682  Biso   1.000  H
  H250     1.0000 0.65580  0.02480  0.12677  Biso   1.000  H
  N46      1.0000 0.53583  0.04961  0.23234  Biso   1.000  N
  H251     1.0000 0.59721  0.00560  0.20712  Biso   1.000  H
  H252     1.0000 0.59721  0.00560  0.20707  Biso   1.000  H
  C218     1.0000 0.46238  0.19922  0.92492  Biso   1.000  C
  C219     1.0000 0.78107  0.02885  0.01320  Biso   1.000  C
  C220     1.0000 0.78107  0.02881  0.01320  Biso   1.000  C
  C221     1.0000 0.52885  0.01320  0.28107  Biso   1.000  C
  H253     1.0000 0.49440  0.20712  0.90279  Biso   1.000  H
  C222     1.0000 0.42939  0.14916  0.91160  Biso   1.000  C
  H254     1.0000 0.49440  0.20707  0.90279  Biso   1.000  H
  H255     1.0000 0.81568  0.03391  0.03528  Biso   1.000  H
  C223     1.0000 0.78107  0.97115  0.98680  Biso   1.000  C
  C224     1.0000 0.78107  0.97115  0.98676  Biso   1.000  C
  H256     1.0000 0.78040  0.05758  0.98351  Biso   1.000  H
  H257     1.0000 0.53391  0.03528  0.31568  Biso   1.000  H
  C225     1.0000 0.47115  0.98680  0.28107  Biso   1.000  C
  H258     1.0000 0.55758  0.98351  0.28040  Biso   1.000  H
  C226     1.0000 0.47115  0.98676  0.28107  Biso   1.000  C
  C227     1.0000 0.38287  0.13417  0.94342  Biso   1.000  C
  C228     1.0000 0.44342  0.11713  0.86583  Biso   1.000  C
  C229     1.0000 0.44342  0.11709  0.86583  Biso   1.000  C
  N47      1.0000 0.73234  0.96413  0.95039  Biso   1.000  N
  H259     1.0000 0.81568  0.96609  0.96472  Biso   1.000  H
  H260     1.0000 0.81568  0.96609  0.96467  Biso   1.000  H
  H261     1.0000 0.78040  0.94242  0.01649  Biso   1.000  H
  H262     1.0000 0.78040  0.94238  0.01649  Biso   1.000  H
  H263     1.0000 0.44242  0.01649  0.28040  Biso   1.000  H
  N48      1.0000 0.46413  0.95039  0.23234  Biso   1.000  N
  H264     1.0000 0.46609  0.96472  0.31568  Biso   1.000  H
  H265     1.0000 0.46609  0.96467  0.31568  Biso   1.000  H
  C230     1.0000 0.35084  0.08840  0.92939  Biso   1.000  C
  H266     1.0000 0.37318  0.15580  0.97520  Biso   1.000  H
  C231     1.0000 0.41160  0.07061  0.85084  Biso   1.000  C
  H267     1.0000 0.47520  0.12682  0.84420  Biso   1.000  H
  H268     1.0000 0.47520  0.12677  0.84420  Biso   1.000  H
  C232     1.0000 0.69922  0.92492  0.96238  Biso   1.000  C
  C233     1.0000 0.69922  0.92492  0.96234  Biso   1.000  C
  C234     1.0000 0.42492  0.96238  0.19922  Biso   1.000  C
  C235     1.0000 0.42492  0.96234  0.19922  Biso   1.000  C
  C236     1.0000 0.30078  0.07508  0.96238  Biso   1.000  C
  C237     1.0000 0.36583  0.05658  0.88287  Biso   1.000  C
  C238     1.0000 0.30078  0.07508  0.96234  Biso   1.000  C
  C239     1.0000 0.42492  0.03762  0.80078  Biso   1.000  C
  H269     1.0000 0.70707  0.90279  0.99440  Biso   1.000  H
  C240     1.0000 0.64916  0.91160  0.92939  Biso   1.000  C
  H270     1.0000 0.40279  0.99440  0.20712  Biso   1.000  H
  C241     1.0000 0.41160  0.92939  0.14916  Biso   1.000  C
  H271     1.0000 0.40279  0.99440  0.20707  Biso   1.000  H
  N49      1.0000 0.26766  0.03587  0.95039  Biso   1.000  N
  H272     1.0000 0.29288  0.09721  0.99440  Biso   1.000  H
  N50      1.0000 0.26766  0.03583  0.95039  Biso   1.000  N
  H273     1.0000 0.34420  0.02480  0.87318  Biso   1.000  H
  N51      1.0000 0.46413  0.04961  0.76766  Biso   1.000  N
  H274     1.0000 0.40279  0.00560  0.79288  Biso   1.000  H
  C242     1.0000 0.63417  0.94342  0.88287  Biso   1.000  C
  C243     1.0000 0.61709  0.86583  0.94342  Biso   1.000  C
  C244     1.0000 0.36583  0.94342  0.11713  Biso   1.000  C
  C245     1.0000 0.44342  0.88287  0.13417  Biso   1.000  C
  C246     1.0000 0.36583  0.94342  0.11709  Biso   1.000  C
  C247     1.0000 0.21893  0.02885  0.98680  Biso   1.000  C
  C248     1.0000 0.21893  0.02885  0.98676  Biso   1.000  C
  C249     1.0000 0.21893  0.02881  0.98680  Biso   1.000  C
  C250     1.0000 0.21893  0.02881  0.98676  Biso   1.000  C
  C251     1.0000 0.47115  0.01320  0.71893  Biso   1.000  C
  C252     1.0000 0.58840  0.92939  0.85084  Biso   1.000  C
  H275     1.0000 0.65580  0.97520  0.87318  Biso   1.000  H
  C253     1.0000 0.57061  0.85084  0.91160  Biso   1.000  C
  H276     1.0000 0.62677  0.84420  0.97520  Biso   1.000  H
  C254     1.0000 0.35084  0.91160  0.07061  Biso   1.000  C
  H277     1.0000 0.34420  0.97520  0.12682  Biso   1.000  H
  H278     1.0000 0.34420  0.97520  0.12677  Biso   1.000  H
  C255     1.0000 0.42939  0.85084  0.08840  Biso   1.000  C
  H279     1.0000 0.47520  0.87318  0.15580  Biso   1.000  H
  H280     1.0000 0.21960  0.05758  0.01649  Biso   1.000  H
  C256     1.0000 0.21893  0.97115  0.01320  Biso   1.000  C
  H281     1.0000 0.18432  0.03391  0.96472  Biso   1.000  H
  H282     1.0000 0.18432  0.03391  0.96467  Biso   1.000  H
  C257     1.0000 0.52885  0.98680  0.71893  Biso   1.000  C
  H283     1.0000 0.44242  0.98351  0.71960  Biso   1.000  H
  C258     1.0000 0.52885  0.98676  0.71893  Biso   1.000  C
  H284     1.0000 0.46609  0.03528  0.68432  Biso   1.000  H
  H285     1.0000 0.46609  0.03528  0.68427  Biso   1.000  H
  C259     1.0000 0.57508  0.96238  0.80078  Biso   1.000  C
  C260     1.0000 0.55658  0.88287  0.86583  Biso   1.000  C
  C261     1.0000 0.57508  0.96234  0.80078  Biso   1.000  C
  C262     1.0000 0.53762  0.80078  0.92492  Biso   1.000  C
  C263     1.0000 0.30078  0.92492  0.03762  Biso   1.000  C
  C264     1.0000 0.38287  0.86583  0.05658  Biso   1.000  C
  C265     1.0000 0.46238  0.80078  0.07508  Biso   1.000  C
  H286     1.0000 0.21960  0.94242  0.98351  Biso   1.000  H
  H287     1.0000 0.21960  0.94238  0.98351  Biso   1.000  H
  N52      1.0000 0.26766  0.96413  0.04961  Biso   1.000  N
  H288     1.0000 0.18432  0.96609  0.03528  Biso   1.000  H
  N53      1.0000 0.53583  0.95039  0.76766  Biso   1.000  N
  H289     1.0000 0.53391  0.96472  0.68432  Biso   1.000  H
  H290     1.0000 0.53391  0.96472  0.68427  Biso   1.000  H
  H291     1.0000 0.53391  0.96467  0.68432  Biso   1.000  H
  H292     1.0000 0.53391  0.96467  0.68427  Biso   1.000  H
  H293     1.0000 0.55758  0.01649  0.71960  Biso   1.000  H
  H294     1.0000 0.59721  0.99440  0.79288  Biso   1.000  H
  H295     1.0000 0.52480  0.87318  0.84420  Biso   1.000  H
  N54      1.0000 0.54961  0.76766  0.96413  Biso   1.000  N
  H296     1.0000 0.50560  0.79288  0.90279  Biso   1.000  H
  H297     1.0000 0.29288  0.90279  0.00560  Biso   1.000  H
  H298     1.0000 0.37318  0.84420  0.02480  Biso   1.000  H
  N55      1.0000 0.45039  0.76766  0.03587  Biso   1.000  N
  H299     1.0000 0.49440  0.79288  0.09721  Biso   1.000  H
  N56      1.0000 0.45039  0.76766  0.03583  Biso   1.000  N
  C266     1.0000 0.51320  0.71893  0.97115  Biso   1.000  C
  C267     1.0000 0.48680  0.71893  0.02885  Biso   1.000  C
  C268     1.0000 0.48680  0.71893  0.02881  Biso   1.000  C
  H300     1.0000 0.53528  0.68432  0.96609  Biso   1.000  H
  H301     1.0000 0.48351  0.71960  0.94242  Biso   1.000  H
  H302     1.0000 0.48351  0.71960  0.94238  Biso   1.000  H
  H303     1.0000 0.53528  0.68427  0.96609  Biso   1.000  H
  H304     1.0000 0.46472  0.68432  0.03391  Biso   1.000  H
  H305     1.0000 0.51649  0.71960  0.05758  Biso   1.000  H
  H306     1.0000 0.46472  0.68427  0.03391  Biso   1.000  H
  C269     1.0000 0.53762  0.19922  0.07508  Biso   1.000  C
  C270     1.0000 0.57061  0.14916  0.08840  Biso   1.000  C
  N57      1.0000 0.54961  0.23234  0.03587  Biso   1.000  N
  H307     1.0000 0.50560  0.20712  0.09721  Biso   1.000  H
  N58      1.0000 0.54961  0.23234  0.03583  Biso   1.000  N
  H308     1.0000 0.50560  0.20707  0.09721  Biso   1.000  H
  C271     1.0000 0.61709  0.13417  0.05658  Biso   1.000  C
  C272     1.0000 0.55658  0.11713  0.13417  Biso   1.000  C
  C273     1.0000 0.55658  0.11709  0.13417  Biso   1.000  C
  C274     1.0000 0.51320  0.28107  0.02885  Biso   1.000  C
  C275     1.0000 0.51320  0.28107  0.02881  Biso   1.000  C
  H309     1.0000 0.62677  0.15580  0.02480  Biso   1.000  H
  C276     1.0000 0.64916  0.08840  0.07061  Biso   1.000  C
  C277     1.0000 0.58840  0.07061  0.14916  Biso   1.000  C
  H310     1.0000 0.52480  0.12682  0.15580  Biso   1.000  H
  H311     1.0000 0.52480  0.12677  0.15580  Biso   1.000  H
  H312     1.0000 0.53528  0.31568  0.03391  Biso   1.000  H
  H313     1.0000 0.48351  0.28040  0.05758  Biso   1.000  H
  C278     1.0000 0.48680  0.28107  0.97115  Biso   1.000  C
  C279     1.0000 0.69922  0.07508  0.03762  Biso   1.000  C
  C280     1.0000 0.63417  0.05658  0.11713  Biso   1.000  C
  C281     1.0000 0.63417  0.05658  0.11709  Biso   1.000  C
  C282     1.0000 0.57508  0.03762  0.19922  Biso   1.000  C
  N59      1.0000 0.45039  0.23234  0.96413  Biso   1.000  N
  H314     1.0000 0.46472  0.31568  0.96609  Biso   1.000  H
  H315     1.0000 0.51649  0.28040  0.94242  Biso   1.000  H
  H316     1.0000 0.51649  0.28040  0.94238  Biso   1.000  H
  H317     1.0000 0.70707  0.09721  0.00560  Biso   1.000  H
  N60      1.0000 0.73234  0.03587  0.04961  Biso   1.000  N
  N61      1.0000 0.73234  0.03583  0.04961  Biso   1.000  N
  H318     1.0000 0.65580  0.02480  0.12682  Biso   1.000  H
  H319     1.0000 0.65580  0.02480  0.12677  Biso   1.000  H
  N62      1.0000 0.53583  0.04961  0.23234  Biso   1.000  N
  H320     1.0000 0.59721  0.00560  0.20712  Biso   1.000  H
  H321     1.0000 0.59721  0.00560  0.20707  Biso   1.000  H
  C283     1.0000 0.46238  0.19922  0.92492  Biso   1.000  C
  C284     1.0000 0.78107  0.02885  0.01320  Biso   1.000  C
  C285     1.0000 0.78107  0.02881  0.01320  Biso   1.000  C
  C286     1.0000 0.52885  0.01320  0.28107  Biso   1.000  C
  H322     1.0000 0.49440  0.20712  0.90279  Biso   1.000  H
  C287     1.0000 0.42939  0.14916  0.91160  Biso   1.000  C
  H323     1.0000 0.49440  0.20707  0.90279  Biso   1.000  H
  H324     1.0000 0.81568  0.03391  0.03528  Biso   1.000  H
  C288     1.0000 0.78107  0.97115  0.98680  Biso   1.000  C
  C289     1.0000 0.78107  0.97115  0.98676  Biso   1.000  C
  H325     1.0000 0.78040  0.05758  0.98351  Biso   1.000  H
  H326     1.0000 0.53391  0.03528  0.31568  Biso   1.000  H
  C290     1.0000 0.47115  0.98680  0.28107  Biso   1.000  C
  H327     1.0000 0.55758  0.98351  0.28040  Biso   1.000  H
  C291     1.0000 0.47115  0.98676  0.28107  Biso   1.000  C
  C292     1.0000 0.38287  0.13417  0.94342  Biso   1.000  C
  C293     1.0000 0.44342  0.11713  0.86583  Biso   1.000  C
  C294     1.0000 0.44342  0.11709  0.86583  Biso   1.000  C
  N63      1.0000 0.73234  0.96413  0.95039  Biso   1.000  N
  H328     1.0000 0.81568  0.96609  0.96472  Biso   1.000  H
  H329     1.0000 0.81568  0.96609  0.96467  Biso   1.000  H
  H330     1.0000 0.78040  0.94242  0.01649  Biso   1.000  H
  H331     1.0000 0.78040  0.94238  0.01649  Biso   1.000  H
  H332     1.0000 0.44242  0.01649  0.28040  Biso   1.000  H
  N64      1.0000 0.46413  0.95039  0.23234  Biso   1.000  N
  H333     1.0000 0.46609  0.96472  0.31568  Biso   1.000  H
  H334     1.0000 0.46609  0.96467  0.31568  Biso   1.000  H
  C295     1.0000 0.35084  0.08840  0.92939  Biso   1.000  C
  H335     1.0000 0.37318  0.15580  0.97520  Biso   1.000  H
  C296     1.0000 0.41160  0.07061  0.85084  Biso   1.000  C
  H336     1.0000 0.47520  0.12682  0.84420  Biso   1.000  H
  H337     1.0000 0.47520  0.12677  0.84420  Biso   1.000  H
  C297     1.0000 0.69922  0.92492  0.96238  Biso   1.000  C
  C298     1.0000 0.69922  0.92492  0.96234  Biso   1.000  C
  C299     1.0000 0.42492  0.96238  0.19922  Biso   1.000  C
  C300     1.0000 0.42492  0.96234  0.19922  Biso   1.000  C
  C301     1.0000 0.30078  0.07508  0.96238  Biso   1.000  C
  C302     1.0000 0.36583  0.05658  0.88287  Biso   1.000  C
  C303     1.0000 0.30078  0.07508  0.96234  Biso   1.000  C
  C304     1.0000 0.42492  0.03762  0.80078  Biso   1.000  C
  H338     1.0000 0.70707  0.90279  0.99440  Biso   1.000  H
  C305     1.0000 0.64916  0.91160  0.92939  Biso   1.000  C
  H339     1.0000 0.40279  0.99440  0.20712  Biso   1.000  H
  C306     1.0000 0.41160  0.92939  0.14916  Biso   1.000  C
  H340     1.0000 0.40279  0.99440  0.20707  Biso   1.000  H
  N65      1.0000 0.26766  0.03587  0.95039  Biso   1.000  N
  H341     1.0000 0.29288  0.09721  0.99440  Biso   1.000  H
  N66      1.0000 0.26766  0.03583  0.95039  Biso   1.000  N
  H342     1.0000 0.34420  0.02480  0.87318  Biso   1.000  H
  N67      1.0000 0.46413  0.04961  0.76766  Biso   1.000  N
  H343     1.0000 0.40279  0.00560  0.79288  Biso   1.000  H
  C307     1.0000 0.63417  0.94342  0.88287  Biso   1.000  C
  C308     1.0000 0.61709  0.86583  0.94342  Biso   1.000  C
  C309     1.0000 0.36583  0.94342  0.11713  Biso   1.000  C
  C310     1.0000 0.44342  0.88287  0.13417  Biso   1.000  C
  C311     1.0000 0.36583  0.94342  0.11709  Biso   1.000  C
  C312     1.0000 0.21893  0.02885  0.98680  Biso   1.000  C
  C313     1.0000 0.21893  0.02885  0.98676  Biso   1.000  C
  C314     1.0000 0.21893  0.02881  0.98680  Biso   1.000  C
  C315     1.0000 0.21893  0.02881  0.98676  Biso   1.000  C
  C316     1.0000 0.47115  0.01320  0.71893  Biso   1.000  C
  C317     1.0000 0.58840  0.92939  0.85084  Biso   1.000  C
  H344     1.0000 0.65580  0.97520  0.87318  Biso   1.000  H
  C318     1.0000 0.57061  0.85084  0.91160  Biso   1.000  C
  H345     1.0000 0.62677  0.84420  0.97520  Biso   1.000  H
  C319     1.0000 0.35084  0.91160  0.07061  Biso   1.000  C
  H346     1.0000 0.34420  0.97520  0.12682  Biso   1.000  H
  H347     1.0000 0.34420  0.97520  0.12677  Biso   1.000  H
  C320     1.0000 0.42939  0.85084  0.08840  Biso   1.000  C
  H348     1.0000 0.47520  0.87318  0.15580  Biso   1.000  H
  H349     1.0000 0.21960  0.05758  0.01649  Biso   1.000  H
  C321     1.0000 0.21893  0.97115  0.01320  Biso   1.000  C
  H350     1.0000 0.18432  0.03391  0.96472  Biso   1.000  H
  H351     1.0000 0.18432  0.03391  0.96467  Biso   1.000  H
  C322     1.0000 0.52885  0.98680  0.71893  Biso   1.000  C
  H352     1.0000 0.44242  0.98351  0.71960  Biso   1.000  H
  C323     1.0000 0.52885  0.98676  0.71893  Biso   1.000  C
  H353     1.0000 0.46609  0.03528  0.68432  Biso   1.000  H
  H354     1.0000 0.46609  0.03528  0.68427  Biso   1.000  H
  C324     1.0000 0.57508  0.96238  0.80078  Biso   1.000  C
  C325     1.0000 0.55658  0.88287  0.86583  Biso   1.000  C
  C326     1.0000 0.57508  0.96234  0.80078  Biso   1.000  C
  C327     1.0000 0.53762  0.80078  0.92492  Biso   1.000  C
  C328     1.0000 0.30078  0.92492  0.03762  Biso   1.000  C
  C329     1.0000 0.38287  0.86583  0.05658  Biso   1.000  C
  C330     1.0000 0.46238  0.80078  0.07508  Biso   1.000  C
  H355     1.0000 0.21960  0.94242  0.98351  Biso   1.000  H
  H356     1.0000 0.21960  0.94238  0.98351  Biso   1.000  H
  N68      1.0000 0.26766  0.96413  0.04961  Biso   1.000  N
  H357     1.0000 0.18432  0.96609  0.03528  Biso   1.000  H
  N69      1.0000 0.53583  0.95039  0.76766  Biso   1.000  N
  H358     1.0000 0.53391  0.96472  0.68432  Biso   1.000  H
  H359     1.0000 0.53391  0.96472  0.68427  Biso   1.000  H
  H360     1.0000 0.53391  0.96467  0.68432  Biso   1.000  H
  H361     1.0000 0.53391  0.96467  0.68427  Biso   1.000  H
  H362     1.0000 0.55758  0.01649  0.71960  Biso   1.000  H
  H363     1.0000 0.59721  0.99440  0.79288  Biso   1.000  H
  H364     1.0000 0.52480  0.87318  0.84420  Biso   1.000  H
  N70      1.0000 0.54961  0.76766  0.96413  Biso   1.000  N
  H365     1.0000 0.50560  0.79288  0.90279  Biso   1.000  H
  H366     1.0000 0.29288  0.90279  0.00560  Biso   1.000  H
  H367     1.0000 0.37318  0.84420  0.02480  Biso   1.000  H
  N71      1.0000 0.45039  0.76766  0.03587  Biso   1.000  N
  H368     1.0000 0.49440  0.79288  0.09721  Biso   1.000  H
  N72      1.0000 0.45039  0.76766  0.03583  Biso   1.000  N
  C331     1.0000 0.51320  0.71893  0.97115  Biso   1.000  C
  C332     1.0000 0.48680  0.71893  0.02885  Biso   1.000  C
  C333     1.0000 0.48680  0.71893  0.02881  Biso   1.000  C
  H369     1.0000 0.53528  0.68432  0.96609  Biso   1.000  H
  H370     1.0000 0.48351  0.71960  0.94242  Biso   1.000  H
  H371     1.0000 0.48351  0.71960  0.94238  Biso   1.000  H
  H372     1.0000 0.53528  0.68427  0.96609  Biso   1.000  H
  H373     1.0000 0.46472  0.68432  0.03391  Biso   1.000  H
  H374     1.0000 0.51649  0.71960  0.05758  Biso   1.000  H
  H375     1.0000 0.46472  0.68427  0.03391  Biso   1.000  H
  C334     1.0000 0.53762  0.19922  0.07508  Biso   1.000  C
  C335     1.0000 0.57061  0.14916  0.08840  Biso   1.000  C
  N73      1.0000 0.54961  0.23234  0.03587  Biso   1.000  N
  H376     1.0000 0.50560  0.20712  0.09721  Biso   1.000  H
  N74      1.0000 0.54961  0.23234  0.03583  Biso   1.000  N
  H377     1.0000 0.50560  0.20707  0.09721  Biso   1.000  H
  C336     1.0000 0.61709  0.13417  0.05658  Biso   1.000  C
  C337     1.0000 0.55658  0.11713  0.13417  Biso   1.000  C
  C338     1.0000 0.55658  0.11709  0.13417  Biso   1.000  C
  C339     1.0000 0.51320  0.28107  0.02885  Biso   1.000  C
  C340     1.0000 0.51320  0.28107  0.02881  Biso   1.000  C
  H378     1.0000 0.62677  0.15580  0.02480  Biso   1.000  H
  C341     1.0000 0.64916  0.08840  0.07061  Biso   1.000  C
  C342     1.0000 0.58840  0.07061  0.14916  Biso   1.000  C
  H379     1.0000 0.52480  0.12682  0.15580  Biso   1.000  H
  H380     1.0000 0.52480  0.12677  0.15580  Biso   1.000  H
  H381     1.0000 0.53528  0.31568  0.03391  Biso   1.000  H
  H382     1.0000 0.48351  0.28040  0.05758  Biso   1.000  H
  C343     1.0000 0.48680  0.28107  0.97115  Biso   1.000  C
  C344     1.0000 0.69922  0.07508  0.03762  Biso   1.000  C
  C345     1.0000 0.63417  0.05658  0.11713  Biso   1.000  C
  C346     1.0000 0.63417  0.05658  0.11709  Biso   1.000  C
  C347     1.0000 0.57508  0.03762  0.19922  Biso   1.000  C
  N75      1.0000 0.45039  0.23234  0.96413  Biso   1.000  N
  H383     1.0000 0.46472  0.31568  0.96609  Biso   1.000  H
  H384     1.0000 0.51649  0.28040  0.94242  Biso   1.000  H
  H385     1.0000 0.51649  0.28040  0.94238  Biso   1.000  H
  H386     1.0000 0.70707  0.09721  0.00560  Biso   1.000  H
  N76      1.0000 0.73234  0.03587  0.04961  Biso   1.000  N
  N77      1.0000 0.73234  0.03583  0.04961  Biso   1.000  N
  H387     1.0000 0.65580  0.02480  0.12682  Biso   1.000  H
  H388     1.0000 0.65580  0.02480  0.12677  Biso   1.000  H
  N78      1.0000 0.53583  0.04961  0.23234  Biso   1.000  N
  H389     1.0000 0.59721  0.00560  0.20712  Biso   1.000  H
  H390     1.0000 0.59721  0.00560  0.20707  Biso   1.000  H
  C348     1.0000 0.46238  0.19922  0.92492  Biso   1.000  C
  C349     1.0000 0.78107  0.02885  0.01320  Biso   1.000  C
  C350     1.0000 0.78107  0.02881  0.01320  Biso   1.000  C
  C351     1.0000 0.52885  0.01320  0.28107  Biso   1.000  C
  H391     1.0000 0.49440  0.20712  0.90279  Biso   1.000  H
  C352     1.0000 0.42939  0.14916  0.91160  Biso   1.000  C
  H392     1.0000 0.49440  0.20707  0.90279  Biso   1.000  H
  H393     1.0000 0.81568  0.03391  0.03528  Biso   1.000  H
  C353     1.0000 0.78107  0.97115  0.98680  Biso   1.000  C
  C354     1.0000 0.78107  0.97115  0.98676  Biso   1.000  C
  H394     1.0000 0.78040  0.05758  0.98351  Biso   1.000  H
  H395     1.0000 0.53391  0.03528  0.31568  Biso   1.000  H
  C355     1.0000 0.47115  0.98680  0.28107  Biso   1.000  C
  H396     1.0000 0.55758  0.98351  0.28040  Biso   1.000  H
  C356     1.0000 0.47115  0.98676  0.28107  Biso   1.000  C
  C357     1.0000 0.38287  0.13417  0.94342  Biso   1.000  C
  C358     1.0000 0.44342  0.11713  0.86583  Biso   1.000  C
  C359     1.0000 0.44342  0.11709  0.86583  Biso   1.000  C
  N79      1.0000 0.73234  0.96413  0.95039  Biso   1.000  N
  H397     1.0000 0.81568  0.96609  0.96472  Biso   1.000  H
  H398     1.0000 0.81568  0.96609  0.96467  Biso   1.000  H
  H399     1.0000 0.78040  0.94242  0.01649  Biso   1.000  H
  H400     1.0000 0.78040  0.94238  0.01649  Biso   1.000  H
  H401     1.0000 0.44242  0.01649  0.28040  Biso   1.000  H
  N80      1.0000 0.46413  0.95039  0.23234  Biso   1.000  N
  H402     1.0000 0.46609  0.96472  0.31568  Biso   1.000  H
  H403     1.0000 0.46609  0.96467  0.31568  Biso   1.000  H
  C360     1.0000 0.35084  0.08840  0.92939  Biso   1.000  C
  H404     1.0000 0.37318  0.15580  0.97520  Biso   1.000  H
  C361     1.0000 0.41160  0.07061  0.85084  Biso   1.000  C
  H405     1.0000 0.47520  0.12682  0.84420  Biso   1.000  H
  H406     1.0000 0.47520  0.12677  0.84420  Biso   1.000  H
  C362     1.0000 0.69922  0.92492  0.96238  Biso   1.000  C
  C363     1.0000 0.69922  0.92492  0.96234  Biso   1.000  C
  C364     1.0000 0.42492  0.96238  0.19922  Biso   1.000  C
  C365     1.0000 0.42492  0.96234  0.19922  Biso   1.000  C
  C366     1.0000 0.30078  0.07508  0.96238  Biso   1.000  C
  C367     1.0000 0.36583  0.05658  0.88287  Biso   1.000  C
  C368     1.0000 0.30078  0.07508  0.96234  Biso   1.000  C
  C369     1.0000 0.42492  0.03762  0.80078  Biso   1.000  C
  H407     1.0000 0.70707  0.90279  0.99440  Biso   1.000  H
  C370     1.0000 0.64916  0.91160  0.92939  Biso   1.000  C
  H408     1.0000 0.40279  0.99440  0.20712  Biso   1.000  H
  C371     1.0000 0.41160  0.92939  0.14916  Biso   1.000  C
  H409     1.0000 0.40279  0.99440  0.20707  Biso   1.000  H
  N81      1.0000 0.26766  0.03587  0.95039  Biso   1.000  N
  H410     1.0000 0.29288  0.09721  0.99440  Biso   1.000  H
  N82      1.0000 0.26766  0.03583  0.95039  Biso   1.000  N
  H411     1.0000 0.34420  0.02480  0.87318  Biso   1.000  H
  N83      1.0000 0.46413  0.04961  0.76766  Biso   1.000  N
  H412     1.0000 0.40279  0.00560  0.79288  Biso   1.000  H
  C372     1.0000 0.63417  0.94342  0.88287  Biso   1.000  C
  C373     1.0000 0.61709  0.86583  0.94342  Biso   1.000  C
  C374     1.0000 0.36583  0.94342  0.11713  Biso   1.000  C
  C375     1.0000 0.44342  0.88287  0.13417  Biso   1.000  C
  C376     1.0000 0.36583  0.94342  0.11709  Biso   1.000  C
  C377     1.0000 0.21893  0.02885  0.98680  Biso   1.000  C
  C378     1.0000 0.21893  0.02885  0.98676  Biso   1.000  C
  C379     1.0000 0.21893  0.02881  0.98680  Biso   1.000  C
  C380     1.0000 0.21893  0.02881  0.98676  Biso   1.000  C
  C381     1.0000 0.47115  0.01320  0.71893  Biso   1.000  C
  C382     1.0000 0.58840  0.92939  0.85084  Biso   1.000  C
  H413     1.0000 0.65580  0.97520  0.87318  Biso   1.000  H
  C383     1.0000 0.57061  0.85084  0.91160  Biso   1.000  C
  H414     1.0000 0.62677  0.84420  0.97520  Biso   1.000  H
  C384     1.0000 0.35084  0.91160  0.07061  Biso   1.000  C
  H415     1.0000 0.34420  0.97520  0.12682  Biso   1.000  H
  H416     1.0000 0.34420  0.97520  0.12677  Biso   1.000  H
  C385     1.0000 0.42939  0.85084  0.08840  Biso   1.000  C
  H417     1.0000 0.47520  0.87318  0.15580  Biso   1.000  H
  H418     1.0000 0.21960  0.05758  0.01649  Biso   1.000  H
  C386     1.0000 0.21893  0.97115  0.01320  Biso   1.000  C
  H419     1.0000 0.18432  0.03391  0.96472  Biso   1.000  H
  H420     1.0000 0.18432  0.03391  0.96467  Biso   1.000  H
  C387     1.0000 0.52885  0.98680  0.71893  Biso   1.000  C
  H421     1.0000 0.44242  0.98351  0.71960  Biso   1.000  H
  C388     1.0000 0.52885  0.98676  0.71893  Biso   1.000  C
  H422     1.0000 0.46609  0.03528  0.68432  Biso   1.000  H
  H423     1.0000 0.46609  0.03528  0.68427  Biso   1.000  H
  C389     1.0000 0.57508  0.96238  0.80078  Biso   1.000  C
  C390     1.0000 0.55658  0.88287  0.86583  Biso   1.000  C
  C391     1.0000 0.57508  0.96234  0.80078  Biso   1.000  C
  C392     1.0000 0.53762  0.80078  0.92492  Biso   1.000  C
  C393     1.0000 0.30078  0.92492  0.03762  Biso   1.000  C
  C394     1.0000 0.38287  0.86583  0.05658  Biso   1.000  C
  C395     1.0000 0.46238  0.80078  0.07508  Biso   1.000  C
  H424     1.0000 0.21960  0.94242  0.98351  Biso   1.000  H
  H425     1.0000 0.21960  0.94238  0.98351  Biso   1.000  H
  N84      1.0000 0.26766  0.96413  0.04961  Biso   1.000  N
  H426     1.0000 0.18432  0.96609  0.03528  Biso   1.000  H
  N85      1.0000 0.53583  0.95039  0.76766  Biso   1.000  N
  H427     1.0000 0.53391  0.96472  0.68432  Biso   1.000  H
  H428     1.0000 0.53391  0.96472  0.68427  Biso   1.000  H
  H429     1.0000 0.53391  0.96467  0.68432  Biso   1.000  H
  H430     1.0000 0.53391  0.96467  0.68427  Biso   1.000  H
  H431     1.0000 0.55758  0.01649  0.71960  Biso   1.000  H
  H432     1.0000 0.59721  0.99440  0.79288  Biso   1.000  H
  H433     1.0000 0.52480  0.87318  0.84420  Biso   1.000  H
  N86      1.0000 0.54961  0.76766  0.96413  Biso   1.000  N
  H434     1.0000 0.50560  0.79288  0.90279  Biso   1.000  H
  H435     1.0000 0.29288  0.90279  0.00560  Biso   1.000  H
  H436     1.0000 0.37318  0.84420  0.02480  Biso   1.000  H
  N87      1.0000 0.45039  0.76766  0.03587  Biso   1.000  N
  H437     1.0000 0.49440  0.79288  0.09721  Biso   1.000  H
  N88      1.0000 0.45039  0.76766  0.03583  Biso   1.000  N
  C396     1.0000 0.51320  0.71893  0.97115  Biso   1.000  C
  C397     1.0000 0.48680  0.71893  0.02885  Biso   1.000  C
  C398     1.0000 0.48680  0.71893  0.02881  Biso   1.000  C
  H438     1.0000 0.53528  0.68432  0.96609  Biso   1.000  H
  H439     1.0000 0.48351  0.71960  0.94242  Biso   1.000  H
  H440     1.0000 0.48351  0.71960  0.94238  Biso   1.000  H
  H441     1.0000 0.53528  0.68427  0.96609  Biso   1.000  H
  H442     1.0000 0.46472  0.68432  0.03391  Biso   1.000  H
  H443     1.0000 0.51649  0.71960  0.05758  Biso   1.000  H
  H444     1.0000 0.46472  0.68427  0.03391  Biso   1.000  H
  C399     1.0000 0.19922  0.07508  0.53762  Biso   1.000  C
  N89      1.0000 0.23234  0.03587  0.54961  Biso   1.000  N
  H445     1.0000 0.20712  0.09721  0.50560  Biso   1.000  H
  C400     1.0000 0.14916  0.08840  0.57061  Biso   1.000  C
  N90      1.0000 0.23234  0.03583  0.54961  Biso   1.000  N
  H446     1.0000 0.20707  0.09721  0.50560  Biso   1.000  H
  C401     1.0000 0.28107  0.02885  0.51320  Biso   1.000  C
  C402     1.0000 0.28107  0.02881  0.51320  Biso   1.000  C
  C403     1.0000 0.13417  0.05658  0.61709  Biso   1.000  C
  C404     1.0000 0.11713  0.13417  0.55658  Biso   1.000  C
  C405     1.0000 0.11709  0.13417  0.55658  Biso   1.000  C
  H447     1.0000 0.31568  0.03391  0.53528  Biso   1.000  H
  H448     1.0000 0.28040  0.05758  0.48351  Biso   1.000  H
  C406     1.0000 0.28107  0.97115  0.48680  Biso   1.000  C
  H449     1.0000 0.15580  0.02480  0.62677  Biso   1.000  H
  C407     1.0000 0.08840  0.07061  0.64916  Biso   1.000  C
  C408     1.0000 0.07061  0.14916  0.58840  Biso   1.000  C
  H450     1.0000 0.12682  0.15580  0.52480  Biso   1.000  H
  H451     1.0000 0.12677  0.15580  0.52480  Biso   1.000  H
  N91      1.0000 0.23234  0.96413  0.45039  Biso   1.000  N
  H452     1.0000 0.31568  0.96609  0.46472  Biso   1.000  H
  H453     1.0000 0.28040  0.94242  0.51649  Biso   1.000  H
  H454     1.0000 0.28040  0.94238  0.51649  Biso   1.000  H
  C409     1.0000 0.07508  0.03762  0.69922  Biso   1.000  C
  C410     1.0000 0.05658  0.11713  0.63417  Biso   1.000  C
  C411     1.0000 0.05658  0.11709  0.63417  Biso   1.000  C
  C412     1.0000 0.03762  0.19922  0.57508  Biso   1.000  C
  C413     1.0000 0.19922  0.92492  0.46238  Biso   1.000  C
  N92      1.0000 0.03587  0.04961  0.73234  Biso   1.000  N
  H455     1.0000 0.09721  0.00560  0.70707  Biso   1.000  H
  N93      1.0000 0.03583  0.04961  0.73234  Biso   1.000  N
  H456     1.0000 0.02480  0.12682  0.65580  Biso   1.000  H
  H457     1.0000 0.02480  0.12677  0.65580  Biso   1.000  H
  N94      1.0000 0.04961  0.23234  0.53583  Biso   1.000  N
  H458     1.0000 0.00560  0.20712  0.59721  Biso   1.000  H
  H459     1.0000 0.00560  0.20707  0.59721  Biso   1.000  H
  H460     1.0000 0.20712  0.90279  0.49440  Biso   1.000  H
  C414     1.0000 0.14916  0.91160  0.42939  Biso   1.000  C
  H461     1.0000 0.20707  0.90279  0.49440  Biso   1.000  H
  C415     1.0000 0.02885  0.01320  0.78107  Biso   1.000  C
  C416     1.0000 0.02881  0.01320  0.78107  Biso   1.000  C
  C417     1.0000 0.01320  0.28107  0.52885  Biso   1.000  C
  C418     1.0000 0.13417  0.94342  0.38287  Biso   1.000  C
  C419     1.0000 0.11713  0.86583  0.44342  Biso   1.000  C
  C420     1.0000 0.11709  0.86583  0.44342  Biso   1.000  C
  H462     1.0000 0.03391  0.03528  0.81568  Biso   1.000  H
  C421     1.0000 0.97115  0.98680  0.78107  Biso   1.000  C
  C422     1.0000 0.97115  0.98676  0.78107  Biso   1.000  C
  H463     1.0000 0.05758  0.98351  0.78040  Biso   1.000  H
  H464     1.0000 0.03528  0.31568  0.53391  Biso   1.000  H
  C423     1.0000 0.98680  0.28107  0.47115  Biso   1.000  C
  H465     1.0000 0.98351  0.28040  0.55758  Biso   1.000  H
  C424     1.0000 0.98676  0.28107  0.47115  Biso   1.000  C
  C425     1.0000 0.08840  0.92939  0.35084  Biso   1.000  C
  H466     1.0000 0.15580  0.97520  0.37318  Biso   1.000  H
  C426     1.0000 0.07061  0.85084  0.41160  Biso   1.000  C
  H467     1.0000 0.12682  0.84420  0.47520  Biso   1.000  H
  H468     1.0000 0.12677  0.84420  0.47520  Biso   1.000  H
  N95      1.0000 0.96413  0.95039  0.73234  Biso   1.000  N
  H469     1.0000 0.96609  0.96472  0.81568  Biso   1.000  H
  H470     1.0000 0.96609  0.96467  0.81568  Biso   1.000  H
  H471     1.0000 0.94242  0.01649  0.78040  Biso   1.000  H
  H472     1.0000 0.94238  0.01649  0.78040  Biso   1.000  H
  H473     1.0000 0.01649  0.28040  0.44242  Biso   1.000  H
  N96      1.0000 0.95039  0.23234  0.46413  Biso   1.000  N
  H474     1.0000 0.96472  0.31568  0.46609  Biso   1.000  H
  H475     1.0000 0.96467  0.31568  0.46609  Biso   1.000  H
  C427     1.0000 0.07508  0.96238  0.30078  Biso   1.000  C
  C428     1.0000 0.05658  0.88287  0.36583  Biso   1.000  C
  C429     1.0000 0.07508  0.96234  0.30078  Biso   1.000  C
  C430     1.0000 0.03762  0.80078  0.42492  Biso   1.000  C
  C431     1.0000 0.92492  0.96238  0.69922  Biso   1.000  C
  C432     1.0000 0.92492  0.96234  0.69922  Biso   1.000  C
  C433     1.0000 0.96238  0.19922  0.42492  Biso   1.000  C
  C434     1.0000 0.96234  0.19922  0.42492  Biso   1.000  C
  N97      1.0000 0.03587  0.95039  0.26766  Biso   1.000  N
  H476     1.0000 0.09721  0.99440  0.29288  Biso   1.000  H
  N98      1.0000 0.03583  0.95039  0.26766  Biso   1.000  N
  H477     1.0000 0.02480  0.87318  0.34420  Biso   1.000  H
  N99      1.0000 0.04961  0.76766  0.46413  Biso   1.000  N
  H478     1.0000 0.00560  0.79288  0.40279  Biso   1.000  H
  H479     1.0000 0.90279  0.99440  0.70707  Biso   1.000  H
  C435     1.0000 0.91160  0.92939  0.64916  Biso   1.000  C
  H480     1.0000 0.99440  0.20712  0.40279  Biso   1.000  H
  C436     1.0000 0.92939  0.14916  0.41160  Biso   1.000  C
  H481     1.0000 0.99440  0.20707  0.40279  Biso   1.000  H
  C437     1.0000 0.02885  0.98680  0.21893  Biso   1.000  C
  C438     1.0000 0.02885  0.98676  0.21893  Biso   1.000  C
  C439     1.0000 0.02881  0.98680  0.21893  Biso   1.000  C
  C440     1.0000 0.02881  0.98676  0.21893  Biso   1.000  C
  C441     1.0000 0.01320  0.71893  0.47115  Biso   1.000  C
  C442     1.0000 0.94342  0.88287  0.63417  Biso   1.000  C
  C443     1.0000 0.86583  0.94342  0.61709  Biso   1.000  C
  C444     1.0000 0.94342  0.11713  0.36583  Biso   1.000  C
  C445     1.0000 0.88287  0.13417  0.44342  Biso   1.000  C
  C446     1.0000 0.94342  0.11709  0.36583  Biso   1.000  C
  H482     1.0000 0.05758  0.01649  0.21960  Biso   1.000  H
  C447     1.0000 0.97115  0.01320  0.21893  Biso   1.000  C
  H483     1.0000 0.03391  0.96472  0.18432  Biso   1.000  H
  H484     1.0000 0.03391  0.96467  0.18432  Biso   1.000  H
  C448     1.0000 0.98680  0.71893  0.52885  Biso   1.000  C
  H485     1.0000 0.98351  0.71960  0.44242  Biso   1.000  H
  C449     1.0000 0.98676  0.71893  0.52885  Biso   1.000  C
  H486     1.0000 0.03528  0.68432  0.46609  Biso   1.000  H
  H487     1.0000 0.03528  0.68427  0.46609  Biso   1.000  H
  C450     1.0000 0.92939  0.85084  0.58840  Biso   1.000  C
  H488     1.0000 0.97520  0.87318  0.65580  Biso   1.000  H
  C451     1.0000 0.85084  0.91160  0.57061  Biso   1.000  C
  H489     1.0000 0.84420  0.97520  0.62677  Biso   1.000  H
  C452     1.0000 0.91160  0.07061  0.35084  Biso   1.000  C
  H490     1.0000 0.97520  0.12682  0.34420  Biso   1.000  H
  H491     1.0000 0.97520  0.12677  0.34420  Biso   1.000  H
  C453     1.0000 0.85084  0.08840  0.42939  Biso   1.000  C
  H492     1.0000 0.87318  0.15580  0.47520  Biso   1.000  H
  H493     1.0000 0.94242  0.98351  0.21960  Biso   1.000  H
  H494     1.0000 0.94238  0.98351  0.21960  Biso   1.000  H
  N100     1.0000 0.96413  0.04961  0.26766  Biso   1.000  N
  H495     1.0000 0.96609  0.03528  0.18432  Biso   1.000  H
  N101     1.0000 0.95039  0.76766  0.53583  Biso   1.000  N
  H496     1.0000 0.96472  0.68432  0.53391  Biso   1.000  H
  H497     1.0000 0.96472  0.68427  0.53391  Biso   1.000  H
  H498     1.0000 0.96467  0.68432  0.53391  Biso   1.000  H
  H499     1.0000 0.96467  0.68427  0.53391  Biso   1.000  H
  H500     1.0000 0.01649  0.71960  0.55758  Biso   1.000  H
  C454     1.0000 0.96238  0.80078  0.57508  Biso   1.000  C
  C455     1.0000 0.88287  0.86583  0.55658  Biso   1.000  C
  C456     1.0000 0.96234  0.80078  0.57508  Biso   1.000  C
  C457     1.0000 0.80078  0.92492  0.53762  Biso   1.000  C
  C458     1.0000 0.92492  0.03762  0.30078  Biso   1.000  C
  C459     1.0000 0.86583  0.05658  0.38287  Biso   1.000  C
  C460     1.0000 0.80078  0.07508  0.46238  Biso   1.000  C
  H501     1.0000 0.99440  0.79288  0.59721  Biso   1.000  H
  H502     1.0000 0.87318  0.84420  0.52480  Biso   1.000  H
  N102     1.0000 0.76766  0.96413  0.54961  Biso   1.000  N
  H503     1.0000 0.79288  0.90279  0.50560  Biso   1.000  H
  H504     1.0000 0.90279  0.00560  0.29288  Biso   1.000  H
  H505     1.0000 0.84420  0.02480  0.37318  Biso   1.000  H
  N103     1.0000 0.76766  0.03587  0.45039  Biso   1.000  N
  H506     1.0000 0.79288  0.09721  0.49440  Biso   1.000  H
  N104     1.0000 0.76766  0.03583  0.45039  Biso   1.000  N
  C461     1.0000 0.71893  0.97115  0.51320  Biso   1.000  C
  C462     1.0000 0.71893  0.02885  0.48680  Biso   1.000  C
  C463     1.0000 0.71893  0.02881  0.48680  Biso   1.000  C
  H507     1.0000 0.68432  0.96609  0.53528  Biso   1.000  H
  H508     1.0000 0.71960  0.94242  0.48351  Biso   1.000  H
  H509     1.0000 0.71960  0.94238  0.48351  Biso   1.000  H
  H510     1.0000 0.68427  0.96609  0.53528  Biso   1.000  H
  H511     1.0000 0.68432  0.03391  0.46472  Biso   1.000  H
  H512     1.0000 0.71960  0.05758  0.51649  Biso   1.000  H
  H513     1.0000 0.68427  0.03391  0.46472  Biso   1.000  H
  C464     1.0000 0.19922  0.07508  0.53762  Biso   1.000  C
  H514     1.0000 0.20712  0.09721  0.50560  Biso   1.000  H
  C465     1.0000 0.14916  0.08840  0.57061  Biso   1.000  C
  N105     1.0000 0.23234  0.03587  0.54961  Biso   1.000  N
  N106     1.0000 0.23234  0.03583  0.54961  Biso   1.000  N
  H515     1.0000 0.20707  0.09721  0.50560  Biso   1.000  H
  C466     1.0000 0.13417  0.05658  0.61709  Biso   1.000  C
  C467     1.0000 0.11713  0.13417  0.55658  Biso   1.000  C
  C468     1.0000 0.11709  0.13417  0.55658  Biso   1.000  C
  C469     1.0000 0.28107  0.02885  0.51320  Biso   1.000  C
  C470     1.0000 0.28107  0.02881  0.51320  Biso   1.000  C
  H516     1.0000 0.15580  0.02480  0.62677  Biso   1.000  H
  C471     1.0000 0.08840  0.07061  0.64916  Biso   1.000  C
  C472     1.0000 0.07061  0.14916  0.58840  Biso   1.000  C
  H517     1.0000 0.12682  0.15580  0.52480  Biso   1.000  H
  H518     1.0000 0.12677  0.15580  0.52480  Biso   1.000  H
  H519     1.0000 0.31568  0.03391  0.53528  Biso   1.000  H
  H520     1.0000 0.28040  0.05758  0.48351  Biso   1.000  H
  C473     1.0000 0.28107  0.97115  0.48680  Biso   1.000  C
  C474     1.0000 0.07508  0.03762  0.69922  Biso   1.000  C
  C475     1.0000 0.05658  0.11713  0.63417  Biso   1.000  C
  C476     1.0000 0.05658  0.11709  0.63417  Biso   1.000  C
  C477     1.0000 0.03762  0.19922  0.57508  Biso   1.000  C
  N107     1.0000 0.23234  0.96413  0.45039  Biso   1.000  N
  H521     1.0000 0.31568  0.96609  0.46472  Biso   1.000  H
  H522     1.0000 0.28040  0.94242  0.51649  Biso   1.000  H
  H523     1.0000 0.28040  0.94238  0.51649  Biso   1.000  H
  N108     1.0000 0.03587  0.04961  0.73234  Biso   1.000  N
  H524     1.0000 0.09721  0.00560  0.70707  Biso   1.000  H
  N109     1.0000 0.03583  0.04961  0.73234  Biso   1.000  N
  H525     1.0000 0.02480  0.12682  0.65580  Biso   1.000  H
  H526     1.0000 0.02480  0.12677  0.65580  Biso   1.000  H
  N110     1.0000 0.04961  0.23234  0.53583  Biso   1.000  N
  H527     1.0000 0.00560  0.20712  0.59721  Biso   1.000  H
  H528     1.0000 0.00560  0.20707  0.59721  Biso   1.000  H
  C478     1.0000 0.19922  0.92492  0.46238  Biso   1.000  C
  C479     1.0000 0.02885  0.01320  0.78107  Biso   1.000  C
  C480     1.0000 0.02881  0.01320  0.78107  Biso   1.000  C
  C481     1.0000 0.01320  0.28107  0.52885  Biso   1.000  C
  H529     1.0000 0.20712  0.90279  0.49440  Biso   1.000  H
  C482     1.0000 0.14916  0.91160  0.42939  Biso   1.000  C
  H530     1.0000 0.20707  0.90279  0.49440  Biso   1.000  H
  H531     1.0000 0.03391  0.03528  0.81568  Biso   1.000  H
  C483     1.0000 0.97115  0.98680  0.78107  Biso   1.000  C
  C484     1.0000 0.97115  0.98676  0.78107  Biso   1.000  C
  H532     1.0000 0.05758  0.98351  0.78040  Biso   1.000  H
  H533     1.0000 0.03528  0.31568  0.53391  Biso   1.000  H
  C485     1.0000 0.98680  0.28107  0.47115  Biso   1.000  C
  H534     1.0000 0.98351  0.28040  0.55758  Biso   1.000  H
  C486     1.0000 0.98676  0.28107  0.47115  Biso   1.000  C
  C487     1.0000 0.13417  0.94342  0.38287  Biso   1.000  C
  C488     1.0000 0.11713  0.86583  0.44342  Biso   1.000  C
  C489     1.0000 0.11709  0.86583  0.44342  Biso   1.000  C
  N111     1.0000 0.96413  0.95039  0.73234  Biso   1.000  N
  H535     1.0000 0.96609  0.96472  0.81568  Biso   1.000  H
  H536     1.0000 0.96609  0.96467  0.81568  Biso   1.000  H
  H537     1.0000 0.94242  0.01649  0.78040  Biso   1.000  H
  H538     1.0000 0.94238  0.01649  0.78040  Biso   1.000  H
  H539     1.0000 0.01649  0.28040  0.44242  Biso   1.000  H
  N112     1.0000 0.95039  0.23234  0.46413  Biso   1.000  N
  H540     1.0000 0.96472  0.31568  0.46609  Biso   1.000  H
  H541     1.0000 0.96467  0.31568  0.46609  Biso   1.000  H
  C490     1.0000 0.08840  0.92939  0.35084  Biso   1.000  C
  H542     1.0000 0.15580  0.97520  0.37318  Biso   1.000  H
  C491     1.0000 0.07061  0.85084  0.41160  Biso   1.000  C
  H543     1.0000 0.12682  0.84420  0.47520  Biso   1.000  H
  H544     1.0000 0.12677  0.84420  0.47520  Biso   1.000  H
  C492     1.0000 0.92492  0.96238  0.69922  Biso   1.000  C
  C493     1.0000 0.92492  0.96234  0.69922  Biso   1.000  C
  C494     1.0000 0.96238  0.19922  0.42492  Biso   1.000  C
  C495     1.0000 0.96234  0.19922  0.42492  Biso   1.000  C
  C496     1.0000 0.07508  0.96238  0.30078  Biso   1.000  C
  C497     1.0000 0.05658  0.88287  0.36583  Biso   1.000  C
  C498     1.0000 0.07508  0.96234  0.30078  Biso   1.000  C
  C499     1.0000 0.03762  0.80078  0.42492  Biso   1.000  C
  H545     1.0000 0.90279  0.99440  0.70707  Biso   1.000  H
  C500     1.0000 0.91160  0.92939  0.64916  Biso   1.000  C
  H546     1.0000 0.99440  0.20712  0.40279  Biso   1.000  H
  C501     1.0000 0.92939  0.14916  0.41160  Biso   1.000  C
  H547     1.0000 0.99440  0.20707  0.40279  Biso   1.000  H
  N113     1.0000 0.03587  0.95039  0.26766  Biso   1.000  N
  H548     1.0000 0.09721  0.99440  0.29288  Biso   1.000  H
  N114     1.0000 0.03583  0.95039  0.26766  Biso   1.000  N
  H549     1.0000 0.02480  0.87318  0.34420  Biso   1.000  H
  N115     1.0000 0.04961  0.76766  0.46413  Biso   1.000  N
  H550     1.0000 0.00560  0.79288  0.40279  Biso   1.000  H
  C502     1.0000 0.94342  0.88287  0.63417  Biso   1.000  C
  C503     1.0000 0.86583  0.94342  0.61709  Biso   1.000  C
  C504     1.0000 0.94342  0.11713  0.36583  Biso   1.000  C
  C505     1.0000 0.88287  0.13417  0.44342  Biso   1.000  C
  C506     1.0000 0.94342  0.11709  0.36583  Biso   1.000  C
  C507     1.0000 0.02885  0.98680  0.21893  Biso   1.000  C
  C508     1.0000 0.02885  0.98676  0.21893  Biso   1.000  C
  C509     1.0000 0.02881  0.98680  0.21893  Biso   1.000  C
  C510     1.0000 0.02881  0.98676  0.21893  Biso   1.000  C
  C511     1.0000 0.01320  0.71893  0.47115  Biso   1.000  C
  C512     1.0000 0.92939  0.85084  0.58840  Biso   1.000  C
  H551     1.0000 0.97520  0.87318  0.65580  Biso   1.000  H
  C513     1.0000 0.85084  0.91160  0.57061  Biso   1.000  C
  H552     1.0000 0.84420  0.97520  0.62677  Biso   1.000  H
  C514     1.0000 0.91160  0.07061  0.35084  Biso   1.000  C
  H553     1.0000 0.97520  0.12682  0.34420  Biso   1.000  H
  H554     1.0000 0.97520  0.12677  0.34420  Biso   1.000  H
  C515     1.0000 0.85084  0.08840  0.42939  Biso   1.000  C
  H555     1.0000 0.87318  0.15580  0.47520  Biso   1.000  H
  H556     1.0000 0.05758  0.01649  0.21960  Biso   1.000  H
  C516     1.0000 0.97115  0.01320  0.21893  Biso   1.000  C
  H557     1.0000 0.03391  0.96472  0.18432  Biso   1.000  H
  H558     1.0000 0.03391  0.96467  0.18432  Biso   1.000  H
  C517     1.0000 0.98680  0.71893  0.52885  Biso   1.000  C
  H559     1.0000 0.98351  0.71960  0.44242  Biso   1.000  H
  C518     1.0000 0.98676  0.71893  0.52885  Biso   1.000  C
  H560     1.0000 0.03528  0.68432  0.46609  Biso   1.000  H
  H561     1.0000 0.03528  0.68427  0.46609  Biso   1.000  H
  C519     1.0000 0.96238  0.80078  0.57508  Biso   1.000  C
  C520     1.0000 0.88287  0.86583  0.55658  Biso   1.000  C
  C521     1.0000 0.96234  0.80078  0.57508  Biso   1.000  C
  C522     1.0000 0.80078  0.92492  0.53762  Biso   1.000  C
  C523     1.0000 0.92492  0.03762  0.30078  Biso   1.000  C
  C524     1.0000 0.86583  0.05658  0.38287  Biso   1.000  C
  C525     1.0000 0.80078  0.07508  0.46238  Biso   1.000  C
  H562     1.0000 0.94242  0.98351  0.21960  Biso   1.000  H
  H563     1.0000 0.94238  0.98351  0.21960  Biso   1.000  H
  N116     1.0000 0.96413  0.04961  0.26766  Biso   1.000  N
  H564     1.0000 0.96609  0.03528  0.18432  Biso   1.000  H
  N117     1.0000 0.95039  0.76766  0.53583  Biso   1.000  N
  H565     1.0000 0.96472  0.68432  0.53391  Biso   1.000  H
  H566     1.0000 0.96472  0.68427  0.53391  Biso   1.000  H
  H567     1.0000 0.96467  0.68432  0.53391  Biso   1.000  H
  H568     1.0000 0.96467  0.68427  0.53391  Biso   1.000  H
  H569     1.0000 0.01649  0.71960  0.55758  Biso   1.000  H
  H570     1.0000 0.99440  0.79288  0.59721  Biso   1.000  H
  H571     1.0000 0.87318  0.84420  0.52480  Biso   1.000  H
  N118     1.0000 0.76766  0.96413  0.54961  Biso   1.000  N
  H572     1.0000 0.79288  0.90279  0.50560  Biso   1.000  H
  H573     1.0000 0.90279  0.00560  0.29288  Biso   1.000  H
  H574     1.0000 0.84420  0.02480  0.37318  Biso   1.000  H
  N119     1.0000 0.76766  0.03587  0.45039  Biso   1.000  N
  H575     1.0000 0.79288  0.09721  0.49440  Biso   1.000  H
  N120     1.0000 0.76766  0.03583  0.45039  Biso   1.000  N
  C526     1.0000 0.71893  0.97115  0.51320  Biso   1.000  C
  C527     1.0000 0.71893  0.02885  0.48680  Biso   1.000  C
  C528     1.0000 0.71893  0.02881  0.48680  Biso   1.000  C
  H576     1.0000 0.68432  0.96609  0.53528  Biso   1.000  H
  H577     1.0000 0.71960  0.94242  0.48351  Biso   1.000  H
  H578     1.0000 0.71960  0.94238  0.48351  Biso   1.000  H
  H579     1.0000 0.68427  0.96609  0.53528  Biso   1.000  H
  H580     1.0000 0.68432  0.03391  0.46472  Biso   1.000  H
  H581     1.0000 0.71960  0.05758  0.51649  Biso   1.000  H
  H582     1.0000 0.68427  0.03391  0.46472  Biso   1.000  H
  C529     1.0000 0.19922  0.07508  0.53762  Biso   1.000  C
  C530     1.0000 0.14916  0.08840  0.57061  Biso   1.000  C
  N121     1.0000 0.23234  0.03587  0.54961  Biso   1.000  N
  H583     1.0000 0.20712  0.09721  0.50560  Biso   1.000  H
  N122     1.0000 0.23234  0.03583  0.54961  Biso   1.000  N
  H584     1.0000 0.20707  0.09721  0.50560  Biso   1.000  H
  C531     1.0000 0.13417  0.05658  0.61709  Biso   1.000  C
  C532     1.0000 0.11713  0.13417  0.55658  Biso   1.000  C
  C533     1.0000 0.11709  0.13417  0.55658  Biso   1.000  C
  C534     1.0000 0.28107  0.02885  0.51320  Biso   1.000  C
  C535     1.0000 0.28107  0.02881  0.51320  Biso   1.000  C
  H585     1.0000 0.15580  0.02480  0.62677  Biso   1.000  H
  C536     1.0000 0.08840  0.07061  0.64916  Biso   1.000  C
  C537     1.0000 0.07061  0.14916  0.58840  Biso   1.000  C
  H586     1.0000 0.12682  0.15580  0.52480  Biso   1.000  H
  H587     1.0000 0.12677  0.15580  0.52480  Biso   1.000  H
  H588     1.0000 0.31568  0.03391  0.53528  Biso   1.000  H
  H589     1.0000 0.28040  0.05758  0.48351  Biso   1.000  H
  C538     1.0000 0.28107  0.97115  0.48680  Biso   1.000  C
  C539     1.0000 0.07508  0.03762  0.69922  Biso   1.000  C
  C540     1.0000 0.05658  0.11713  0.63417  Biso   1.000  C
  C541     1.0000 0.05658  0.11709  0.63417  Biso   1.000  C
  C542     1.0000 0.03762  0.19922  0.57508  Biso   1.000  C
  N123     1.0000 0.23234  0.96413  0.45039  Biso   1.000  N
  H590     1.0000 0.31568  0.96609  0.46472  Biso   1.000  H
  H591     1.0000 0.28040  0.94242  0.51649  Biso   1.000  H
  H592     1.0000 0.28040  0.94238  0.51649  Biso   1.000  H
  H593     1.0000 0.09721  0.00560  0.70707  Biso   1.000  H
  N124     1.0000 0.03587  0.04961  0.73234  Biso   1.000  N
  N125     1.0000 0.03583  0.04961  0.73234  Biso   1.000  N
  H594     1.0000 0.02480  0.12682  0.65580  Biso   1.000  H
  H595     1.0000 0.02480  0.12677  0.65580  Biso   1.000  H
  N126     1.0000 0.04961  0.23234  0.53583  Biso   1.000  N
  H596     1.0000 0.00560  0.20712  0.59721  Biso   1.000  H
  H597     1.0000 0.00560  0.20707  0.59721  Biso   1.000  H
  C543     1.0000 0.19922  0.92492  0.46238  Biso   1.000  C
  C544     1.0000 0.02885  0.01320  0.78107  Biso   1.000  C
  C545     1.0000 0.02881  0.01320  0.78107  Biso   1.000  C
  C546     1.0000 0.01320  0.28107  0.52885  Biso   1.000  C
  H598     1.0000 0.20712  0.90279  0.49440  Biso   1.000  H
  C547     1.0000 0.14916  0.91160  0.42939  Biso   1.000  C
  H599     1.0000 0.20707  0.90279  0.49440  Biso   1.000  H
  H600     1.0000 0.03391  0.03528  0.81568  Biso   1.000  H
  C548     1.0000 0.97115  0.98680  0.78107  Biso   1.000  C
  C549     1.0000 0.97115  0.98676  0.78107  Biso   1.000  C
  H601     1.0000 0.05758  0.98351  0.78040  Biso   1.000  H
  H602     1.0000 0.03528  0.31568  0.53391  Biso   1.000  H
  C550     1.0000 0.98680  0.28107  0.47115  Biso   1.000  C
  H603     1.0000 0.98351  0.28040  0.55758  Biso   1.000  H
  C551     1.0000 0.98676  0.28107  0.47115  Biso   1.000  C
  C552     1.0000 0.13417  0.94342  0.38287  Biso   1.000  C
  C553     1.0000 0.11713  0.86583  0.44342  Biso   1.000  C
  C554     1.0000 0.11709  0.86583  0.44342  Biso   1.000  C
  N127     1.0000 0.96413  0.95039  0.73234  Biso   1.000  N
  H604     1.0000 0.96609  0.96472  0.81568  Biso   1.000  H
  H605     1.0000 0.96609  0.96467  0.81568  Biso   1.000  H
  H606     1.0000 0.94242  0.01649  0.78040  Biso   1.000  H
  H607     1.0000 0.94238  0.01649  0.78040  Biso   1.000  H
  H608     1.0000 0.01649  0.28040  0.44242  Biso   1.000  H
  N128     1.0000 0.95039  0.23234  0.46413  Biso   1.000  N
  H609     1.0000 0.96472  0.31568  0.46609  Biso   1.000  H
  H610     1.0000 0.96467  0.31568  0.46609  Biso   1.000  H
  C555     1.0000 0.08840  0.92939  0.35084  Biso   1.000  C
  H611     1.0000 0.15580  0.97520  0.37318  Biso   1.000  H
  C556     1.0000 0.07061  0.85084  0.41160  Biso   1.000  C
  H612     1.0000 0.12682  0.84420  0.47520  Biso   1.000  H
  H613     1.0000 0.12677  0.84420  0.47520  Biso   1.000  H
  C557     1.0000 0.92492  0.96238  0.69922  Biso   1.000  C
  C558     1.0000 0.92492  0.96234  0.69922  Biso   1.000  C
  C559     1.0000 0.96238  0.19922  0.42492  Biso   1.000  C
  C560     1.0000 0.96234  0.19922  0.42492  Biso   1.000  C
  C561     1.0000 0.07508  0.96238  0.30078  Biso   1.000  C
  C562     1.0000 0.05658  0.88287  0.36583  Biso   1.000  C
  C563     1.0000 0.07508  0.96234  0.30078  Biso   1.000  C
  C564     1.0000 0.03762  0.80078  0.42492  Biso   1.000  C
  H614     1.0000 0.90279  0.99440  0.70707  Biso   1.000  H
  C565     1.0000 0.91160  0.92939  0.64916  Biso   1.000  C
  H615     1.0000 0.99440  0.20712  0.40279  Biso   1.000  H
  C566     1.0000 0.92939  0.14916  0.41160  Biso   1.000  C
  H616     1.0000 0.99440  0.20707  0.40279  Biso   1.000  H
  N129     1.0000 0.03587  0.95039  0.26766  Biso   1.000  N
  H617     1.0000 0.09721  0.99440  0.29288  Biso   1.000  H
  N130     1.0000 0.03583  0.95039  0.26766  Biso   1.000  N
  H618     1.0000 0.02480  0.87318  0.34420  Biso   1.000  H
  N131     1.0000 0.04961  0.76766  0.46413  Biso   1.000  N
  H619     1.0000 0.00560  0.79288  0.40279  Biso   1.000  H
  C567     1.0000 0.94342  0.88287  0.63417  Biso   1.000  C
  C568     1.0000 0.86583  0.94342  0.61709  Biso   1.000  C
  C569     1.0000 0.94342  0.11713  0.36583  Biso   1.000  C
  C570     1.0000 0.88287  0.13417  0.44342  Biso   1.000  C
  C571     1.0000 0.94342  0.11709  0.36583  Biso   1.000  C
  C572     1.0000 0.02885  0.98680  0.21893  Biso   1.000  C
  C573     1.0000 0.02885  0.98676  0.21893  Biso   1.000  C
  C574     1.0000 0.02881  0.98680  0.21893  Biso   1.000  C
  C575     1.0000 0.02881  0.98676  0.21893  Biso   1.000  C
  C576     1.0000 0.01320  0.71893  0.47115  Biso   1.000  C
  C577     1.0000 0.92939  0.85084  0.58840  Biso   1.000  C
  H620     1.0000 0.97520  0.87318  0.65580  Biso   1.000  H
  C578     1.0000 0.85084  0.91160  0.57061  Biso   1.000  C
  H621     1.0000 0.84420  0.97520  0.62677  Biso   1.000  H
  C579     1.0000 0.91160  0.07061  0.35084  Biso   1.000  C
  H622     1.0000 0.97520  0.12682  0.34420  Biso   1.000  H
  H623     1.0000 0.97520  0.12677  0.34420  Biso   1.000  H
  C580     1.0000 0.85084  0.08840  0.42939  Biso   1.000  C
  H624     1.0000 0.87318  0.15580  0.47520  Biso   1.000  H
  H625     1.0000 0.05758  0.01649  0.21960  Biso   1.000  H
  C581     1.0000 0.97115  0.01320  0.21893  Biso   1.000  C
  H626     1.0000 0.03391  0.96472  0.18432  Biso   1.000  H
  H627     1.0000 0.03391  0.96467  0.18432  Biso   1.000  H
  C582     1.0000 0.98680  0.71893  0.52885  Biso   1.000  C
  H628     1.0000 0.98351  0.71960  0.44242  Biso   1.000  H
  C583     1.0000 0.98676  0.71893  0.52885  Biso   1.000  C
  H629     1.0000 0.03528  0.68432  0.46609  Biso   1.000  H
  H630     1.0000 0.03528  0.68427  0.46609  Biso   1.000  H
  C584     1.0000 0.96238  0.80078  0.57508  Biso   1.000  C
  C585     1.0000 0.88287  0.86583  0.55658  Biso   1.000  C
  C586     1.0000 0.96234  0.80078  0.57508  Biso   1.000  C
  C587     1.0000 0.80078  0.92492  0.53762  Biso   1.000  C
  C588     1.0000 0.92492  0.03762  0.30078  Biso   1.000  C
  C589     1.0000 0.86583  0.05658  0.38287  Biso   1.000  C
  C590     1.0000 0.80078  0.07508  0.46238  Biso   1.000  C
  H631     1.0000 0.94242  0.98351  0.21960  Biso   1.000  H
  H632     1.0000 0.94238  0.98351  0.21960  Biso   1.000  H
  N132     1.0000 0.96413  0.04961  0.26766  Biso   1.000  N
  H633     1.0000 0.96609  0.03528  0.18432  Biso   1.000  H
  N133     1.0000 0.95039  0.76766  0.53583  Biso   1.000  N
  H634     1.0000 0.96472  0.68432  0.53391  Biso   1.000  H
  H635     1.0000 0.96472  0.68427  0.53391  Biso   1.000  H
  H636     1.0000 0.96467  0.68432  0.53391  Biso   1.000  H
  H637     1.0000 0.96467  0.68427  0.53391  Biso   1.000  H
  H638     1.0000 0.01649  0.71960  0.55758  Biso   1.000  H
  H639     1.0000 0.99440  0.79288  0.59721  Biso   1.000  H
  H640     1.0000 0.87318  0.84420  0.52480  Biso   1.000  H
  N134     1.0000 0.76766  0.96413  0.54961  Biso   1.000  N
  H641     1.0000 0.79288  0.90279  0.50560  Biso   1.000  H
  H642     1.0000 0.90279  0.00560  0.29288  Biso   1.000  H
  H643     1.0000 0.84420  0.02480  0.37318  Biso   1.000  H
  N135     1.0000 0.76766  0.03587  0.45039  Biso   1.000  N
  H644     1.0000 0.79288  0.09721  0.49440  Biso   1.000  H
  N136     1.0000 0.76766  0.03583  0.45039  Biso   1.000  N
  C591     1.0000 0.71893  0.97115  0.51320  Biso   1.000  C
  C592     1.0000 0.71893  0.02885  0.48680  Biso   1.000  C
  C593     1.0000 0.71893  0.02881  0.48680  Biso   1.000  C
  H645     1.0000 0.68432  0.96609  0.53528  Biso   1.000  H
  H646     1.0000 0.71960  0.94242  0.48351  Biso   1.000  H
  H647     1.0000 0.71960  0.94238  0.48351  Biso   1.000  H
  H648     1.0000 0.68427  0.96609  0.53528  Biso   1.000  H
  H649     1.0000 0.68432  0.03391  0.46472  Biso   1.000  H
  H650     1.0000 0.71960  0.05758  0.51649  Biso   1.000  H
  H651     1.0000 0.68427  0.03391  0.46472  Biso   1.000  H
  C594     1.0000 0.19922  0.07508  0.53762  Biso   1.000  C
  C595     1.0000 0.14916  0.08840  0.57061  Biso   1.000  C
  N137     1.0000 0.23234  0.03587  0.54961  Biso   1.000  N
  H652     1.0000 0.20712  0.09721  0.50560  Biso   1.000  H
  N138     1.0000 0.23234  0.03583  0.54961  Biso   1.000  N
  H653     1.0000 0.20707  0.09721  0.50560  Biso   1.000  H
  C596     1.0000 0.13417  0.05658  0.61709  Biso   1.000  C
  C597     1.0000 0.11713  0.13417  0.55658  Biso   1.000  C
  C598     1.0000 0.11709  0.13417  0.55658  Biso   1.000  C
  C599     1.0000 0.28107  0.02885  0.51320  Biso   1.000  C
  C600     1.0000 0.28107  0.02881  0.51320  Biso   1.000  C
  H654     1.0000 0.15580  0.02480  0.62677  Biso   1.000  H
  C601     1.0000 0.08840  0.07061  0.64916  Biso   1.000  C
  C602     1.0000 0.07061  0.14916  0.58840  Biso   1.000  C
  H655     1.0000 0.12682  0.15580  0.52480  Biso   1.000  H
  H656     1.0000 0.12677  0.15580  0.52480  Biso   1.000  H
  H657     1.0000 0.31568  0.03391  0.53528  Biso   1.000  H
  H658     1.0000 0.28040  0.05758  0.48351  Biso   1.000  H
  C603     1.0000 0.28107  0.97115  0.48680  Biso   1.000  C
  C604     1.0000 0.07508  0.03762  0.69922  Biso   1.000  C
  C605     1.0000 0.05658  0.11713  0.63417  Biso   1.000  C
  C606     1.0000 0.05658  0.11709  0.63417  Biso   1.000  C
  C607     1.0000 0.03762  0.19922  0.57508  Biso   1.000  C
  N139     1.0000 0.23234  0.96413  0.45039  Biso   1.000  N
  H659     1.0000 0.31568  0.96609  0.46472  Biso   1.000  H
  H660     1.0000 0.28040  0.94242  0.51649  Biso   1.000  H
  H661     1.0000 0.28040  0.94238  0.51649  Biso   1.000  H
  H662     1.0000 0.09721  0.00560  0.70707  Biso   1.000  H
  N140     1.0000 0.03587  0.04961  0.73234  Biso   1.000  N
  N141     1.0000 0.03583  0.04961  0.73234  Biso   1.000  N
  H663     1.0000 0.02480  0.12682  0.65580  Biso   1.000  H
  H664     1.0000 0.02480  0.12677  0.65580  Biso   1.000  H
  N142     1.0000 0.04961  0.23234  0.53583  Biso   1.000  N
  H665     1.0000 0.00560  0.20712  0.59721  Biso   1.000  H
  H666     1.0000 0.00560  0.20707  0.59721  Biso   1.000  H
  C608     1.0000 0.19922  0.92492  0.46238  Biso   1.000  C
  C609     1.0000 0.02885  0.01320  0.78107  Biso   1.000  C
  C610     1.0000 0.02881  0.01320  0.78107  Biso   1.000  C
  C611     1.0000 0.01320  0.28107  0.52885  Biso   1.000  C
  H667     1.0000 0.20712  0.90279  0.49440  Biso   1.000  H
  C612     1.0000 0.14916  0.91160  0.42939  Biso   1.000  C
  H668     1.0000 0.20707  0.90279  0.49440  Biso   1.000  H
  H669     1.0000 0.03391  0.03528  0.81568  Biso   1.000  H
  C613     1.0000 0.97115  0.98680  0.78107  Biso   1.000  C
  C614     1.0000 0.97115  0.98676  0.78107  Biso   1.000  C
  H670     1.0000 0.05758  0.98351  0.78040  Biso   1.000  H
  H671     1.0000 0.03528  0.31568  0.53391  Biso   1.000  H
  C615     1.0000 0.98680  0.28107  0.47115  Biso   1.000  C
  H672     1.0000 0.98351  0.28040  0.55758  Biso   1.000  H
  C616     1.0000 0.98676  0.28107  0.47115  Biso   1.000  C
  C617     1.0000 0.13417  0.94342  0.38287  Biso   1.000  C
  C618     1.0000 0.11713  0.86583  0.44342  Biso   1.000  C
  C619     1.0000 0.11709  0.86583  0.44342  Biso   1.000  C
  N143     1.0000 0.96413  0.95039  0.73234  Biso   1.000  N
  H673     1.0000 0.96609  0.96472  0.81568  Biso   1.000  H
  H674     1.0000 0.96609  0.96467  0.81568  Biso   1.000  H
  H675     1.0000 0.94242  0.01649  0.78040  Biso   1.000  H
  H676     1.0000 0.94238  0.01649  0.78040  Biso   1.000  H
  H677     1.0000 0.01649  0.28040  0.44242  Biso   1.000  H
  N144     1.0000 0.95039  0.23234  0.46413  Biso   1.000  N
  H678     1.0000 0.96472  0.31568  0.46609  Biso   1.000  H
  H679     1.0000 0.96467  0.31568  0.46609  Biso   1.000  H
  C620     1.0000 0.08840  0.92939  0.35084  Biso   1.000  C
  H680     1.0000 0.15580  0.97520  0.37318  Biso   1.000  H
  C621     1.0000 0.07061  0.85084  0.41160  Biso   1.000  C
  H681     1.0000 0.12682  0.84420  0.47520  Biso   1.000  H
  H682     1.0000 0.12677  0.84420  0.47520  Biso   1.000  H
  C622     1.0000 0.92492  0.96238  0.69922  Biso   1.000  C
  C623     1.0000 0.92492  0.96234  0.69922  Biso   1.000  C
  C624     1.0000 0.96238  0.19922  0.42492  Biso   1.000  C
  C625     1.0000 0.96234  0.19922  0.42492  Biso   1.000  C
  C626     1.0000 0.07508  0.96238  0.30078  Biso   1.000  C
  C627     1.0000 0.05658  0.88287  0.36583  Biso   1.000  C
  C628     1.0000 0.07508  0.96234  0.30078  Biso   1.000  C
  C629     1.0000 0.03762  0.80078  0.42492  Biso   1.000  C
  H683     1.0000 0.90279  0.99440  0.70707  Biso   1.000  H
  C630     1.0000 0.91160  0.92939  0.64916  Biso   1.000  C
  H684     1.0000 0.99440  0.20712  0.40279  Biso   1.000  H
  C631     1.0000 0.92939  0.14916  0.41160  Biso   1.000  C
  H685     1.0000 0.99440  0.20707  0.40279  Biso   1.000  H
  N145     1.0000 0.03587  0.95039  0.26766  Biso   1.000  N
  H686     1.0000 0.09721  0.99440  0.29288  Biso   1.000  H
  N146     1.0000 0.03583  0.95039  0.26766  Biso   1.000  N
  H687     1.0000 0.02480  0.87318  0.34420  Biso   1.000  H
  N147     1.0000 0.04961  0.76766  0.46413  Biso   1.000  N
  H688     1.0000 0.00560  0.79288  0.40279  Biso   1.000  H
  C632     1.0000 0.94342  0.88287  0.63417  Biso   1.000  C
  C633     1.0000 0.86583  0.94342  0.61709  Biso   1.000  C
  C634     1.0000 0.94342  0.11713  0.36583  Biso   1.000  C
  C635     1.0000 0.88287  0.13417  0.44342  Biso   1.000  C
  C636     1.0000 0.94342  0.11709  0.36583  Biso   1.000  C
  C637     1.0000 0.02885  0.98680  0.21893  Biso   1.000  C
  C638     1.0000 0.02885  0.98676  0.21893  Biso   1.000  C
  C639     1.0000 0.02881  0.98680  0.21893  Biso   1.000  C
  C640     1.0000 0.02881  0.98676  0.21893  Biso   1.000  C
  C641     1.0000 0.01320  0.71893  0.47115  Biso   1.000  C
  C642     1.0000 0.92939  0.85084  0.58840  Biso   1.000  C
  H689     1.0000 0.97520  0.87318  0.65580  Biso   1.000  H
  C643     1.0000 0.85084  0.91160  0.57061  Biso   1.000  C
  H690     1.0000 0.84420  0.97520  0.62677  Biso   1.000  H
  C644     1.0000 0.91160  0.07061  0.35084  Biso   1.000  C
  H691     1.0000 0.97520  0.12682  0.34420  Biso   1.000  H
  H692     1.0000 0.97520  0.12677  0.34420  Biso   1.000  H
  C645     1.0000 0.85084  0.08840  0.42939  Biso   1.000  C
  H693     1.0000 0.87318  0.15580  0.47520  Biso   1.000  H
  H694     1.0000 0.05758  0.01649  0.21960  Biso   1.000  H
  C646     1.0000 0.97115  0.01320  0.21893  Biso   1.000  C
  H695     1.0000 0.03391  0.96472  0.18432  Biso   1.000  H
  H696     1.0000 0.03391  0.96467  0.18432  Biso   1.000  H
  C647     1.0000 0.98680  0.71893  0.52885  Biso   1.000  C
  H697     1.0000 0.98351  0.71960  0.44242  Biso   1.000  H
  C648     1.0000 0.98676  0.71893  0.52885  Biso   1.000  C
  H698     1.0000 0.03528  0.68432  0.46609  Biso   1.000  H
  H699     1.0000 0.03528  0.68427  0.46609  Biso   1.000  H
  C649     1.0000 0.96238  0.80078  0.57508  Biso   1.000  C
  C650     1.0000 0.88287  0.86583  0.55658  Biso   1.000  C
  C651     1.0000 0.96234  0.80078  0.57508  Biso   1.000  C
  C652     1.0000 0.80078  0.92492  0.53762  Biso   1.000  C
  C653     1.0000 0.92492  0.03762  0.30078  Biso   1.000  C
  C654     1.0000 0.86583  0.05658  0.38287  Biso   1.000  C
  C655     1.0000 0.80078  0.07508  0.46238  Biso   1.000  C
  H700     1.0000 0.94242  0.98351  0.21960  Biso   1.000  H
  H701     1.0000 0.94238  0.98351  0.21960  Biso   1.000  H
  N148     1.0000 0.96413  0.04961  0.26766  Biso   1.000  N
  H702     1.0000 0.96609  0.03528  0.18432  Biso   1.000  H
  N149     1.0000 0.95039  0.76766  0.53583  Biso   1.000  N
  H703     1.0000 0.96472  0.68432  0.53391  Biso   1.000  H
  H704     1.0000 0.96472  0.68427  0.53391  Biso   1.000  H
  H705     1.0000 0.96467  0.68432  0.53391  Biso   1.000  H
  H706     1.0000 0.96467  0.68427  0.53391  Biso   1.000  H
  H707     1.0000 0.01649  0.71960  0.55758  Biso   1.000  H
  H708     1.0000 0.99440  0.79288  0.59721  Biso   1.000  H
  H709     1.0000 0.87318  0.84420  0.52480  Biso   1.000  H
  N150     1.0000 0.76766  0.96413  0.54961  Biso   1.000  N
  H710     1.0000 0.79288  0.90279  0.50560  Biso   1.000  H
  H711     1.0000 0.90279  0.00560  0.29288  Biso   1.000  H
  H712     1.0000 0.84420  0.02480  0.37318  Biso   1.000  H
  N151     1.0000 0.76766  0.03587  0.45039  Biso   1.000  N
  H713     1.0000 0.79288  0.09721  0.49440  Biso   1.000  H
  N152     1.0000 0.76766  0.03583  0.45039  Biso   1.000  N
  C656     1.0000 0.71893  0.97115  0.51320  Biso   1.000  C
  C657     1.0000 0.71893  0.02885  0.48680  Biso   1.000  C
  C658     1.0000 0.71893  0.02881  0.48680  Biso   1.000  C
  H714     1.0000 0.68432  0.96609  0.53528  Biso   1.000  H
  H715     1.0000 0.71960  0.94242  0.48351  Biso   1.000  H
  H716     1.0000 0.71960  0.94238  0.48351  Biso   1.000  H
  H717     1.0000 0.68427  0.96609  0.53528  Biso   1.000  H
  H718     1.0000 0.68432  0.03391  0.46472  Biso   1.000  H
  H719     1.0000 0.71960  0.05758  0.51649  Biso   1.000  H
  H720     1.0000 0.68427  0.03391  0.46472  Biso   1.000  H
  C659     1.0000 0.07508  0.53762  0.19922  Biso   1.000  C
  N153     1.0000 0.03587  0.54961  0.23234  Biso   1.000  N
  H721     1.0000 0.09721  0.50560  0.20712  Biso   1.000  H
  C660     1.0000 0.08840  0.57061  0.14916  Biso   1.000  C
  H722     1.0000 0.09721  0.50560  0.20707  Biso   1.000  H
  N154     1.0000 0.03583  0.54961  0.23234  Biso   1.000  N
  C661     1.0000 0.02885  0.51320  0.28107  Biso   1.000  C
  C662     1.0000 0.02881  0.51320  0.28107  Biso   1.000  C
  C663     1.0000 0.05658  0.61709  0.13417  Biso   1.000  C
  C664     1.0000 0.13417  0.55658  0.11713  Biso   1.000  C
  C665     1.0000 0.13417  0.55658  0.11709  Biso   1.000  C
  H723     1.0000 0.03391  0.53528  0.31568  Biso   1.000  H
  H724     1.0000 0.05758  0.48351  0.28040  Biso   1.000  H
  C666     1.0000 0.97115  0.48680  0.28107  Biso   1.000  C
  H725     1.0000 0.02480  0.62677  0.15580  Biso   1.000  H
  C667     1.0000 0.07061  0.64916  0.08840  Biso   1.000  C
  C668     1.0000 0.14916  0.58840  0.07061  Biso   1.000  C
  H726     1.0000 0.15580  0.52480  0.12682  Biso   1.000  H
  H727     1.0000 0.15580  0.52480  0.12677  Biso   1.000  H
  N155     1.0000 0.96413  0.45039  0.23234  Biso   1.000  N
  H728     1.0000 0.96609  0.46472  0.31568  Biso   1.000  H
  H729     1.0000 0.94242  0.51649  0.28040  Biso   1.000  H
  H730     1.0000 0.94238  0.51649  0.28040  Biso   1.000  H
  C669     1.0000 0.03762  0.69922  0.07508  Biso   1.000  C
  C670     1.0000 0.11713  0.63417  0.05658  Biso   1.000  C
  C671     1.0000 0.11709  0.63417  0.05658  Biso   1.000  C
  C672     1.0000 0.19922  0.57508  0.03762  Biso   1.000  C
  C673     1.0000 0.92492  0.46238  0.19922  Biso   1.000  C
  N156     1.0000 0.04961  0.73234  0.03587  Biso   1.000  N
  H731     1.0000 0.00560  0.70707  0.09721  Biso   1.000  H
  N157     1.0000 0.04961  0.73234  0.03583  Biso   1.000  N
  H732     1.0000 0.12682  0.65580  0.02480  Biso   1.000  H
  H733     1.0000 0.12677  0.65580  0.02480  Biso   1.000  H
  N158     1.0000 0.23234  0.53583  0.04961  Biso   1.000  N
  H734     1.0000 0.20712  0.59721  0.00560  Biso   1.000  H
  H735     1.0000 0.20707  0.59721  0.00560  Biso   1.000  H
  H736     1.0000 0.90279  0.49440  0.20712  Biso   1.000  H
  C674     1.0000 0.91160  0.42939  0.14916  Biso   1.000  C
  H737     1.0000 0.90279  0.49440  0.20707  Biso   1.000  H
  C675     1.0000 0.01320  0.78107  0.02885  Biso   1.000  C
  C676     1.0000 0.01320  0.78107  0.02881  Biso   1.000  C
  C677     1.0000 0.28107  0.52885  0.01320  Biso   1.000  C
  C678     1.0000 0.94342  0.38287  0.13417  Biso   1.000  C
  C679     1.0000 0.86583  0.44342  0.11713  Biso   1.000  C
  C680     1.0000 0.86583  0.44342  0.11709  Biso   1.000  C
  H738     1.0000 0.03528  0.81568  0.03391  Biso   1.000  H
  C681     1.0000 0.98680  0.78107  0.97115  Biso   1.000  C
  C682     1.0000 0.98676  0.78107  0.97115  Biso   1.000  C
  H739     1.0000 0.98351  0.78040  0.05758  Biso   1.000  H
  H740     1.0000 0.31568  0.53391  0.03528  Biso   1.000  H
  C683     1.0000 0.28107  0.47115  0.98680  Biso   1.000  C
  H741     1.0000 0.28040  0.55758  0.98351  Biso   1.000  H
  C684     1.0000 0.28107  0.47115  0.98676  Biso   1.000  C
  C685     1.0000 0.92939  0.35084  0.08840  Biso   1.000  C
  H742     1.0000 0.97520  0.37318  0.15580  Biso   1.000  H
  C686     1.0000 0.85084  0.41160  0.07061  Biso   1.000  C
  H743     1.0000 0.84420  0.47520  0.12682  Biso   1.000  H
  H744     1.0000 0.84420  0.47520  0.12677  Biso   1.000  H
  N159     1.0000 0.95039  0.73234  0.96413  Biso   1.000  N
  H745     1.0000 0.96472  0.81568  0.96609  Biso   1.000  H
  H746     1.0000 0.96467  0.81568  0.96609  Biso   1.000  H
  H747     1.0000 0.01649  0.78040  0.94242  Biso   1.000  H
  H748     1.0000 0.01649  0.78040  0.94238  Biso   1.000  H
  H749     1.0000 0.28040  0.44242  0.01649  Biso   1.000  H
  N160     1.0000 0.23234  0.46413  0.95039  Biso   1.000  N
  H750     1.0000 0.31568  0.46609  0.96472  Biso   1.000  H
  H751     1.0000 0.31568  0.46609  0.96467  Biso   1.000  H
  C687     1.0000 0.96238  0.30078  0.07508  Biso   1.000  C
  C688     1.0000 0.88287  0.36583  0.05658  Biso   1.000  C
  C689     1.0000 0.96234  0.30078  0.07508  Biso   1.000  C
  C690     1.0000 0.80078  0.42492  0.03762  Biso   1.000  C
  C691     1.0000 0.96238  0.69922  0.92492  Biso   1.000  C
  C692     1.0000 0.96234  0.69922  0.92492  Biso   1.000  C
  C693     1.0000 0.19922  0.42492  0.96238  Biso   1.000  C
  C694     1.0000 0.19922  0.42492  0.96234  Biso   1.000  C
  N161     1.0000 0.95039  0.26766  0.03587  Biso   1.000  N
  H752     1.0000 0.99440  0.29288  0.09721  Biso   1.000  H
  N162     1.0000 0.95039  0.26766  0.03583  Biso   1.000  N
  H753     1.0000 0.87318  0.34420  0.02480  Biso   1.000  H
  N163     1.0000 0.76766  0.46413  0.04961  Biso   1.000  N
  H754     1.0000 0.79288  0.40279  0.00560  Biso   1.000  H
  H755     1.0000 0.99440  0.70707  0.90279  Biso   1.000  H
  C695     1.0000 0.92939  0.64916  0.91160  Biso   1.000  C
  H756     1.0000 0.20712  0.40279  0.99440  Biso   1.000  H
  C696     1.0000 0.14916  0.41160  0.92939  Biso   1.000  C
  H757     1.0000 0.20707  0.40279  0.99440  Biso   1.000  H
  C697     1.0000 0.98680  0.21893  0.02885  Biso   1.000  C
  C698     1.0000 0.98680  0.21893  0.02881  Biso   1.000  C
  C699     1.0000 0.98676  0.21893  0.02885  Biso   1.000  C
  C700     1.0000 0.98676  0.21893  0.02881  Biso   1.000  C
  C701     1.0000 0.71893  0.47115  0.01320  Biso   1.000  C
  C702     1.0000 0.88287  0.63417  0.94342  Biso   1.000  C
  C703     1.0000 0.94342  0.61709  0.86583  Biso   1.000  C
  C704     1.0000 0.11713  0.36583  0.94342  Biso   1.000  C
  C705     1.0000 0.13417  0.44342  0.88287  Biso   1.000  C
  C706     1.0000 0.11709  0.36583  0.94342  Biso   1.000  C
  H758     1.0000 0.01649  0.21960  0.05758  Biso   1.000  H
  H759     1.0000 0.96472  0.18432  0.03391  Biso   1.000  H
  H760     1.0000 0.96467  0.18432  0.03391  Biso   1.000  H
  C707     1.0000 0.01320  0.21893  0.97115  Biso   1.000  C
  C708     1.0000 0.71893  0.52885  0.98680  Biso   1.000  C
  H761     1.0000 0.71960  0.44242  0.98351  Biso   1.000  H
  C709     1.0000 0.71893  0.52885  0.98676  Biso   1.000  C
  H762     1.0000 0.68432  0.46609  0.03528  Biso   1.000  H
  H763     1.0000 0.68427  0.46609  0.03528  Biso   1.000  H
  C710     1.0000 0.85084  0.58840  0.92939  Biso   1.000  C
  H764     1.0000 0.87318  0.65580  0.97520  Biso   1.000  H
  C711     1.0000 0.91160  0.57061  0.85084  Biso   1.000  C
  H765     1.0000 0.97520  0.62677  0.84420  Biso   1.000  H
  C712     1.0000 0.07061  0.35084  0.91160  Biso   1.000  C
  H766     1.0000 0.12682  0.34420  0.97520  Biso   1.000  H
  H767     1.0000 0.12677  0.34420  0.97520  Biso   1.000  H
  C713     1.0000 0.08840  0.42939  0.85084  Biso   1.000  C
  H768     1.0000 0.15580  0.47520  0.87318  Biso   1.000  H
  H769     1.0000 0.98351  0.21960  0.94242  Biso   1.000  H
  H770     1.0000 0.98351  0.21960  0.94238  Biso   1.000  H
  N164     1.0000 0.04961  0.26766  0.96413  Biso   1.000  N
  H771     1.0000 0.03528  0.18432  0.96609  Biso   1.000  H
  N165     1.0000 0.76766  0.53583  0.95039  Biso   1.000  N
  H772     1.0000 0.68432  0.53391  0.96472  Biso   1.000  H
  H773     1.0000 0.68432  0.53391  0.96467  Biso   1.000  H
  H774     1.0000 0.68427  0.53391  0.96472  Biso   1.000  H
  H775     1.0000 0.68427  0.53391  0.96467  Biso   1.000  H
  H776     1.0000 0.71960  0.55758  0.01649  Biso   1.000  H
  C714     1.0000 0.80078  0.57508  0.96238  Biso   1.000  C
  C715     1.0000 0.86583  0.55658  0.88287  Biso   1.000  C
  C716     1.0000 0.80078  0.57508  0.96234  Biso   1.000  C
  C717     1.0000 0.92492  0.53762  0.80078  Biso   1.000  C
  C718     1.0000 0.03762  0.30078  0.92492  Biso   1.000  C
  C719     1.0000 0.05658  0.38287  0.86583  Biso   1.000  C
  C720     1.0000 0.07508  0.46238  0.80078  Biso   1.000  C
  H777     1.0000 0.79288  0.59721  0.99440  Biso   1.000  H
  H778     1.0000 0.84420  0.52480  0.87318  Biso   1.000  H
  N166     1.0000 0.96413  0.54961  0.76766  Biso   1.000  N
  H779     1.0000 0.90279  0.50560  0.79288  Biso   1.000  H
  H780     1.0000 0.00560  0.29288  0.90279  Biso   1.000  H
  H781     1.0000 0.02480  0.37318  0.84420  Biso   1.000  H
  N167     1.0000 0.03587  0.45039  0.76766  Biso   1.000  N
  H782     1.0000 0.09721  0.49440  0.79288  Biso   1.000  H
  N168     1.0000 0.03583  0.45039  0.76766  Biso   1.000  N
  C721     1.0000 0.97115  0.51320  0.71893  Biso   1.000  C
  C722     1.0000 0.02885  0.48680  0.71893  Biso   1.000  C
  C723     1.0000 0.02881  0.48680  0.71893  Biso   1.000  C
  H783     1.0000 0.96609  0.53528  0.68432  Biso   1.000  H
  H784     1.0000 0.94242  0.48351  0.71960  Biso   1.000  H
  H785     1.0000 0.96609  0.53528  0.68427  Biso   1.000  H
  H786     1.0000 0.94238  0.48351  0.71960  Biso   1.000  H
  H787     1.0000 0.03391  0.46472  0.68432  Biso   1.000  H
  H788     1.0000 0.05758  0.51649  0.71960  Biso   1.000  H
  H789     1.0000 0.03391  0.46472  0.68427  Biso   1.000  H
  C724     1.0000 0.07508  0.53762  0.19922  Biso   1.000  C
  N169     1.0000 0.03587  0.54961  0.23234  Biso   1.000  N
  C725     1.0000 0.08840  0.57061  0.14916  Biso   1.000  C
  H790     1.0000 0.09721  0.50560  0.20712  Biso   1.000  H
  N170     1.0000 0.03583  0.54961  0.23234  Biso   1.000  N
  H791     1.0000 0.09721  0.50560  0.20707  Biso   1.000  H
  C726     1.0000 0.02885  0.51320  0.28107  Biso   1.000  C
  C727     1.0000 0.02881  0.51320  0.28107  Biso   1.000  C
  C728     1.0000 0.05658  0.61709  0.13417  Biso   1.000  C
  C729     1.0000 0.13417  0.55658  0.11713  Biso   1.000  C
  C730     1.0000 0.13417  0.55658  0.11709  Biso   1.000  C
  H792     1.0000 0.03391  0.53528  0.31568  Biso   1.000  H
  H793     1.0000 0.05758  0.48351  0.28040  Biso   1.000  H
  C731     1.0000 0.97115  0.48680  0.28107  Biso   1.000  C
  H794     1.0000 0.02480  0.62677  0.15580  Biso   1.000  H
  C732     1.0000 0.07061  0.64916  0.08840  Biso   1.000  C
  C733     1.0000 0.14916  0.58840  0.07061  Biso   1.000  C
  H795     1.0000 0.15580  0.52480  0.12682  Biso   1.000  H
  H796     1.0000 0.15580  0.52480  0.12677  Biso   1.000  H
  N171     1.0000 0.96413  0.45039  0.23234  Biso   1.000  N
  H797     1.0000 0.96609  0.46472  0.31568  Biso   1.000  H
  H798     1.0000 0.94242  0.51649  0.28040  Biso   1.000  H
  H799     1.0000 0.94238  0.51649  0.28040  Biso   1.000  H
  C734     1.0000 0.03762  0.69922  0.07508  Biso   1.000  C
  C735     1.0000 0.11713  0.63417  0.05658  Biso   1.000  C
  C736     1.0000 0.11709  0.63417  0.05658  Biso   1.000  C
  C737     1.0000 0.19922  0.57508  0.03762  Biso   1.000  C
  C738     1.0000 0.92492  0.46238  0.19922  Biso   1.000  C
  H800     1.0000 0.00560  0.70707  0.09721  Biso   1.000  H
  N172     1.0000 0.04961  0.73234  0.03587  Biso   1.000  N
  N173     1.0000 0.04961  0.73234  0.03583  Biso   1.000  N
  H801     1.0000 0.12682  0.65580  0.02480  Biso   1.000  H
  H802     1.0000 0.12677  0.65580  0.02480  Biso   1.000  H
  N174     1.0000 0.23234  0.53583  0.04961  Biso   1.000  N
  H803     1.0000 0.20712  0.59721  0.00560  Biso   1.000  H
  H804     1.0000 0.20707  0.59721  0.00560  Biso   1.000  H
  H805     1.0000 0.90279  0.49440  0.20712  Biso   1.000  H
  C739     1.0000 0.91160  0.42939  0.14916  Biso   1.000  C
  H806     1.0000 0.90279  0.49440  0.20707  Biso   1.000  H
  C740     1.0000 0.01320  0.78107  0.02885  Biso   1.000  C
  C741     1.0000 0.01320  0.78107  0.02881  Biso   1.000  C
  C742     1.0000 0.28107  0.52885  0.01320  Biso   1.000  C
  C743     1.0000 0.94342  0.38287  0.13417  Biso   1.000  C
  C744     1.0000 0.86583  0.44342  0.11713  Biso   1.000  C
  C745     1.0000 0.86583  0.44342  0.11709  Biso   1.000  C
  H807     1.0000 0.03528  0.81568  0.03391  Biso   1.000  H
  C746     1.0000 0.98680  0.78107  0.97115  Biso   1.000  C
  C747     1.0000 0.98676  0.78107  0.97115  Biso   1.000  C
  H808     1.0000 0.98351  0.78040  0.05758  Biso   1.000  H
  H809     1.0000 0.31568  0.53391  0.03528  Biso   1.000  H
  C748     1.0000 0.28107  0.47115  0.98680  Biso   1.000  C
  H810     1.0000 0.28040  0.55758  0.98351  Biso   1.000  H
  C749     1.0000 0.28107  0.47115  0.98676  Biso   1.000  C
  C750     1.0000 0.92939  0.35084  0.08840  Biso   1.000  C
  H811     1.0000 0.97520  0.37318  0.15580  Biso   1.000  H
  C751     1.0000 0.85084  0.41160  0.07061  Biso   1.000  C
  H812     1.0000 0.84420  0.47520  0.12682  Biso   1.000  H
  H813     1.0000 0.84420  0.47520  0.12677  Biso   1.000  H
  N175     1.0000 0.95039  0.73234  0.96413  Biso   1.000  N
  H814     1.0000 0.96472  0.81568  0.96609  Biso   1.000  H
  H815     1.0000 0.96467  0.81568  0.96609  Biso   1.000  H
  H816     1.0000 0.01649  0.78040  0.94242  Biso   1.000  H
  H817     1.0000 0.01649  0.78040  0.94238  Biso   1.000  H
  H818     1.0000 0.28040  0.44242  0.01649  Biso   1.000  H
  N176     1.0000 0.23234  0.46413  0.95039  Biso   1.000  N
  H819     1.0000 0.31568  0.46609  0.96472  Biso   1.000  H
  H820     1.0000 0.31568  0.46609  0.96467  Biso   1.000  H
  C752     1.0000 0.96238  0.30078  0.07508  Biso   1.000  C
  C753     1.0000 0.88287  0.36583  0.05658  Biso   1.000  C
  C754     1.0000 0.96234  0.30078  0.07508  Biso   1.000  C
  C755     1.0000 0.80078  0.42492  0.03762  Biso   1.000  C
  C756     1.0000 0.96238  0.69922  0.92492  Biso   1.000  C
  C757     1.0000 0.96234  0.69922  0.92492  Biso   1.000  C
  C758     1.0000 0.19922  0.42492  0.96238  Biso   1.000  C
  C759     1.0000 0.19922  0.42492  0.96234  Biso   1.000  C
  N177     1.0000 0.95039  0.26766  0.03587  Biso   1.000  N
  H821     1.0000 0.99440  0.29288  0.09721  Biso   1.000  H
  N178     1.0000 0.95039  0.26766  0.03583  Biso   1.000  N
  H822     1.0000 0.87318  0.34420  0.02480  Biso   1.000  H
  N179     1.0000 0.76766  0.46413  0.04961  Biso   1.000  N
  H823     1.0000 0.79288  0.40279  0.00560  Biso   1.000  H
  H824     1.0000 0.99440  0.70707  0.90279  Biso   1.000  H
  C760     1.0000 0.92939  0.64916  0.91160  Biso   1.000  C
  H825     1.0000 0.20712  0.40279  0.99440  Biso   1.000  H
  C761     1.0000 0.14916  0.41160  0.92939  Biso   1.000  C
  H826     1.0000 0.20707  0.40279  0.99440  Biso   1.000  H
  C762     1.0000 0.98680  0.21893  0.02885  Biso   1.000  C
  C763     1.0000 0.98680  0.21893  0.02881  Biso   1.000  C
  C764     1.0000 0.98676  0.21893  0.02885  Biso   1.000  C
  C765     1.0000 0.98676  0.21893  0.02881  Biso   1.000  C
  C766     1.0000 0.71893  0.47115  0.01320  Biso   1.000  C
  C767     1.0000 0.88287  0.63417  0.94342  Biso   1.000  C
  C768     1.0000 0.94342  0.61709  0.86583  Biso   1.000  C
  C769     1.0000 0.11713  0.36583  0.94342  Biso   1.000  C
  C770     1.0000 0.13417  0.44342  0.88287  Biso   1.000  C
  C771     1.0000 0.11709  0.36583  0.94342  Biso   1.000  C
  H827     1.0000 0.01649  0.21960  0.05758  Biso   1.000  H
  H828     1.0000 0.96472  0.18432  0.03391  Biso   1.000  H
  H829     1.0000 0.96467  0.18432  0.03391  Biso   1.000  H
  C772     1.0000 0.01320  0.21893  0.97115  Biso   1.000  C
  C773     1.0000 0.71893  0.52885  0.98680  Biso   1.000  C
  H830     1.0000 0.71960  0.44242  0.98351  Biso   1.000  H
  C774     1.0000 0.71893  0.52885  0.98676  Biso   1.000  C
  H831     1.0000 0.68432  0.46609  0.03528  Biso   1.000  H
  H832     1.0000 0.68427  0.46609  0.03528  Biso   1.000  H
  C775     1.0000 0.85084  0.58840  0.92939  Biso   1.000  C
  H833     1.0000 0.87318  0.65580  0.97520  Biso   1.000  H
  C776     1.0000 0.91160  0.57061  0.85084  Biso   1.000  C
  H834     1.0000 0.97520  0.62677  0.84420  Biso   1.000  H
  C777     1.0000 0.07061  0.35084  0.91160  Biso   1.000  C
  H835     1.0000 0.12682  0.34420  0.97520  Biso   1.000  H
  H836     1.0000 0.12677  0.34420  0.97520  Biso   1.000  H
  C778     1.0000 0.08840  0.42939  0.85084  Biso   1.000  C
  H837     1.0000 0.15580  0.47520  0.87318  Biso   1.000  H
  H838     1.0000 0.98351  0.21960  0.94242  Biso   1.000  H
  H839     1.0000 0.98351  0.21960  0.94238  Biso   1.000  H
  N180     1.0000 0.04961  0.26766  0.96413  Biso   1.000  N
  H840     1.0000 0.03528  0.18432  0.96609  Biso   1.000  H
  N181     1.0000 0.76766  0.53583  0.95039  Biso   1.000  N
  H841     1.0000 0.68432  0.53391  0.96472  Biso   1.000  H
  H842     1.0000 0.68432  0.53391  0.96467  Biso   1.000  H
  H843     1.0000 0.68427  0.53391  0.96472  Biso   1.000  H
  H844     1.0000 0.68427  0.53391  0.96467  Biso   1.000  H
  H845     1.0000 0.71960  0.55758  0.01649  Biso   1.000  H
  C779     1.0000 0.80078  0.57508  0.96238  Biso   1.000  C
  C780     1.0000 0.86583  0.55658  0.88287  Biso   1.000  C
  C781     1.0000 0.80078  0.57508  0.96234  Biso   1.000  C
  C782     1.0000 0.92492  0.53762  0.80078  Biso   1.000  C
  C783     1.0000 0.03762  0.30078  0.92492  Biso   1.000  C
  C784     1.0000 0.05658  0.38287  0.86583  Biso   1.000  C
  C785     1.0000 0.07508  0.46238  0.80078  Biso   1.000  C
  H846     1.0000 0.79288  0.59721  0.99440  Biso   1.000  H
  H847     1.0000 0.84420  0.52480  0.87318  Biso   1.000  H
  N182     1.0000 0.96413  0.54961  0.76766  Biso   1.000  N
  H848     1.0000 0.90279  0.50560  0.79288  Biso   1.000  H
  H849     1.0000 0.00560  0.29288  0.90279  Biso   1.000  H
  H850     1.0000 0.02480  0.37318  0.84420  Biso   1.000  H
  N183     1.0000 0.03587  0.45039  0.76766  Biso   1.000  N
  H851     1.0000 0.09721  0.49440  0.79288  Biso   1.000  H
  N184     1.0000 0.03583  0.45039  0.76766  Biso   1.000  N
  C786     1.0000 0.97115  0.51320  0.71893  Biso   1.000  C
  C787     1.0000 0.02885  0.48680  0.71893  Biso   1.000  C
  C788     1.0000 0.02881  0.48680  0.71893  Biso   1.000  C
  H852     1.0000 0.96609  0.53528  0.68432  Biso   1.000  H
  H853     1.0000 0.94242  0.48351  0.71960  Biso   1.000  H
  H854     1.0000 0.96609  0.53528  0.68427  Biso   1.000  H
  H855     1.0000 0.94238  0.48351  0.71960  Biso   1.000  H
  H856     1.0000 0.03391  0.46472  0.68432  Biso   1.000  H
  H857     1.0000 0.05758  0.51649  0.71960  Biso   1.000  H
  H858     1.0000 0.03391  0.46472  0.68427  Biso   1.000  H
  C789     1.0000 0.07508  0.53762  0.19922  Biso   1.000  C
  C790     1.0000 0.08840  0.57061  0.14916  Biso   1.000  C
  N185     1.0000 0.03587  0.54961  0.23234  Biso   1.000  N
  H859     1.0000 0.09721  0.50560  0.20712  Biso   1.000  H
  H860     1.0000 0.09721  0.50560  0.20707  Biso   1.000  H
  N186     1.0000 0.03583  0.54961  0.23234  Biso   1.000  N
  C791     1.0000 0.05658  0.61709  0.13417  Biso   1.000  C
  C792     1.0000 0.13417  0.55658  0.11713  Biso   1.000  C
  C793     1.0000 0.13417  0.55658  0.11709  Biso   1.000  C
  C794     1.0000 0.02885  0.51320  0.28107  Biso   1.000  C
  C795     1.0000 0.02881  0.51320  0.28107  Biso   1.000  C
  H861     1.0000 0.02480  0.62677  0.15580  Biso   1.000  H
  C796     1.0000 0.07061  0.64916  0.08840  Biso   1.000  C
  C797     1.0000 0.14916  0.58840  0.07061  Biso   1.000  C
  H862     1.0000 0.15580  0.52480  0.12682  Biso   1.000  H
  H863     1.0000 0.15580  0.52480  0.12677  Biso   1.000  H
  H864     1.0000 0.03391  0.53528  0.31568  Biso   1.000  H
  H865     1.0000 0.05758  0.48351  0.28040  Biso   1.000  H
  C798     1.0000 0.97115  0.48680  0.28107  Biso   1.000  C
  C799     1.0000 0.03762  0.69922  0.07508  Biso   1.000  C
  C800     1.0000 0.11713  0.63417  0.05658  Biso   1.000  C
  C801     1.0000 0.11709  0.63417  0.05658  Biso   1.000  C
  C802     1.0000 0.19922  0.57508  0.03762  Biso   1.000  C
  N187     1.0000 0.96413  0.45039  0.23234  Biso   1.000  N
  H866     1.0000 0.96609  0.46472  0.31568  Biso   1.000  H
  H867     1.0000 0.94242  0.51649  0.28040  Biso   1.000  H
  H868     1.0000 0.94238  0.51649  0.28040  Biso   1.000  H
  H869     1.0000 0.00560  0.70707  0.09721  Biso   1.000  H
  N188     1.0000 0.04961  0.73234  0.03587  Biso   1.000  N
  N189     1.0000 0.04961  0.73234  0.03583  Biso   1.000  N
  H870     1.0000 0.12682  0.65580  0.02480  Biso   1.000  H
  H871     1.0000 0.12677  0.65580  0.02480  Biso   1.000  H
  N190     1.0000 0.23234  0.53583  0.04961  Biso   1.000  N
  H872     1.0000 0.20712  0.59721  0.00560  Biso   1.000  H
  H873     1.0000 0.20707  0.59721  0.00560  Biso   1.000  H
  C803     1.0000 0.92492  0.46238  0.19922  Biso   1.000  C
  C804     1.0000 0.01320  0.78107  0.02885  Biso   1.000  C
  C805     1.0000 0.01320  0.78107  0.02881  Biso   1.000  C
  C806     1.0000 0.28107  0.52885  0.01320  Biso   1.000  C
  H874     1.0000 0.90279  0.49440  0.20712  Biso   1.000  H
  C807     1.0000 0.91160  0.42939  0.14916  Biso   1.000  C
  H875     1.0000 0.90279  0.49440  0.20707  Biso   1.000  H
  H876     1.0000 0.03528  0.81568  0.03391  Biso   1.000  H
  C808     1.0000 0.98680  0.78107  0.97115  Biso   1.000  C
  C809     1.0000 0.98676  0.78107  0.97115  Biso   1.000  C
  H877     1.0000 0.98351  0.78040  0.05758  Biso   1.000  H
  H878     1.0000 0.31568  0.53391  0.03528  Biso   1.000  H
  C810     1.0000 0.28107  0.47115  0.98680  Biso   1.000  C
  H879     1.0000 0.28040  0.55758  0.98351  Biso   1.000  H
  C811     1.0000 0.28107  0.47115  0.98676  Biso   1.000  C
  C812     1.0000 0.94342  0.38287  0.13417  Biso   1.000  C
  C813     1.0000 0.86583  0.44342  0.11713  Biso   1.000  C
  C814     1.0000 0.86583  0.44342  0.11709  Biso   1.000  C
  N191     1.0000 0.95039  0.73234  0.96413  Biso   1.000  N
  H880     1.0000 0.96472  0.81568  0.96609  Biso   1.000  H
  H881     1.0000 0.96467  0.81568  0.96609  Biso   1.000  H
  H882     1.0000 0.01649  0.78040  0.94242  Biso   1.000  H
  H883     1.0000 0.01649  0.78040  0.94238  Biso   1.000  H
  H884     1.0000 0.28040  0.44242  0.01649  Biso   1.000  H
  N192     1.0000 0.23234  0.46413  0.95039  Biso   1.000  N
  H885     1.0000 0.31568  0.46609  0.96472  Biso   1.000  H
  H886     1.0000 0.31568  0.46609  0.96467  Biso   1.000  H
  C815     1.0000 0.92939  0.35084  0.08840  Biso   1.000  C
  H887     1.0000 0.97520  0.37318  0.15580  Biso   1.000  H
  C816     1.0000 0.85084  0.41160  0.07061  Biso   1.000  C
  H888     1.0000 0.84420  0.47520  0.12682  Biso   1.000  H
  H889     1.0000 0.84420  0.47520  0.12677  Biso   1.000  H
  C817     1.0000 0.96238  0.69922  0.92492  Biso   1.000  C
  C818     1.0000 0.96234  0.69922  0.92492  Biso   1.000  C
  C819     1.0000 0.19922  0.42492  0.96238  Biso   1.000  C
  C820     1.0000 0.19922  0.42492  0.96234  Biso   1.000  C
  C821     1.0000 0.96238  0.30078  0.07508  Biso   1.000  C
  C822     1.0000 0.88287  0.36583  0.05658  Biso   1.000  C
  C823     1.0000 0.96234  0.30078  0.07508  Biso   1.000  C
  C824     1.0000 0.80078  0.42492  0.03762  Biso   1.000  C
  H890     1.0000 0.99440  0.70707  0.90279  Biso   1.000  H
  C825     1.0000 0.92939  0.64916  0.91160  Biso   1.000  C
  H891     1.0000 0.20712  0.40279  0.99440  Biso   1.000  H
  C826     1.0000 0.14916  0.41160  0.92939  Biso   1.000  C
  H892     1.0000 0.20707  0.40279  0.99440  Biso   1.000  H
  N193     1.0000 0.95039  0.26766  0.03587  Biso   1.000  N
  H893     1.0000 0.99440  0.29288  0.09721  Biso   1.000  H
  N194     1.0000 0.95039  0.26766  0.03583  Biso   1.000  N
  H894     1.0000 0.87318  0.34420  0.02480  Biso   1.000  H
  N195     1.0000 0.76766  0.46413  0.04961  Biso   1.000  N
  H895     1.0000 0.79288  0.40279  0.00560  Biso   1.000  H
  C827     1.0000 0.88287  0.63417  0.94342  Biso   1.000  C
  C828     1.0000 0.94342  0.61709  0.86583  Biso   1.000  C
  C829     1.0000 0.11713  0.36583  0.94342  Biso   1.000  C
  C830     1.0000 0.13417  0.44342  0.88287  Biso   1.000  C
  C831     1.0000 0.11709  0.36583  0.94342  Biso   1.000  C
  C832     1.0000 0.98680  0.21893  0.02885  Biso   1.000  C
  C833     1.0000 0.98680  0.21893  0.02881  Biso   1.000  C
  C834     1.0000 0.98676  0.21893  0.02885  Biso   1.000  C
  C835     1.0000 0.98676  0.21893  0.02881  Biso   1.000  C
  C836     1.0000 0.71893  0.47115  0.01320  Biso   1.000  C
  C837     1.0000 0.85084  0.58840  0.92939  Biso   1.000  C
  H896     1.0000 0.87318  0.65580  0.97520  Biso   1.000  H
  C838     1.0000 0.91160  0.57061  0.85084  Biso   1.000  C
  H897     1.0000 0.97520  0.62677  0.84420  Biso   1.000  H
  C839     1.0000 0.07061  0.35084  0.91160  Biso   1.000  C
  H898     1.0000 0.12682  0.34420  0.97520  Biso   1.000  H
  H899     1.0000 0.12677  0.34420  0.97520  Biso   1.000  H
  C840     1.0000 0.08840  0.42939  0.85084  Biso   1.000  C
  H900     1.0000 0.15580  0.47520  0.87318  Biso   1.000  H
  H901     1.0000 0.01649  0.21960  0.05758  Biso   1.000  H
  H902     1.0000 0.96472  0.18432  0.03391  Biso   1.000  H
  H903     1.0000 0.96467  0.18432  0.03391  Biso   1.000  H
  C841     1.0000 0.01320  0.21893  0.97115  Biso   1.000  C
  C842     1.0000 0.71893  0.52885  0.98680  Biso   1.000  C
  H904     1.0000 0.71960  0.44242  0.98351  Biso   1.000  H
  C843     1.0000 0.71893  0.52885  0.98676  Biso   1.000  C
  H905     1.0000 0.68432  0.46609  0.03528  Biso   1.000  H
  H906     1.0000 0.68427  0.46609  0.03528  Biso   1.000  H
  C844     1.0000 0.80078  0.57508  0.96238  Biso   1.000  C
  C845     1.0000 0.86583  0.55658  0.88287  Biso   1.000  C
  C846     1.0000 0.80078  0.57508  0.96234  Biso   1.000  C
  C847     1.0000 0.92492  0.53762  0.80078  Biso   1.000  C
  C848     1.0000 0.03762  0.30078  0.92492  Biso   1.000  C
  C849     1.0000 0.05658  0.38287  0.86583  Biso   1.000  C
  C850     1.0000 0.07508  0.46238  0.80078  Biso   1.000  C
  H907     1.0000 0.98351  0.21960  0.94242  Biso   1.000  H
  H908     1.0000 0.98351  0.21960  0.94238  Biso   1.000  H
  N196     1.0000 0.04961  0.26766  0.96413  Biso   1.000  N
  H909     1.0000 0.03528  0.18432  0.96609  Biso   1.000  H
  N197     1.0000 0.76766  0.53583  0.95039  Biso   1.000  N
  H910     1.0000 0.68432  0.53391  0.96472  Biso   1.000  H
  H911     1.0000 0.68432  0.53391  0.96467  Biso   1.000  H
  H912     1.0000 0.68427  0.53391  0.96472  Biso   1.000  H
  H913     1.0000 0.68427  0.53391  0.96467  Biso   1.000  H
  H914     1.0000 0.71960  0.55758  0.01649  Biso   1.000  H
  H915     1.0000 0.79288  0.59721  0.99440  Biso   1.000  H
  H916     1.0000 0.84420  0.52480  0.87318  Biso   1.000  H
  N198     1.0000 0.96413  0.54961  0.76766  Biso   1.000  N
  H917     1.0000 0.90279  0.50560  0.79288  Biso   1.000  H
  H918     1.0000 0.00560  0.29288  0.90279  Biso   1.000  H
  H919     1.0000 0.02480  0.37318  0.84420  Biso   1.000  H
  N199     1.0000 0.03587  0.45039  0.76766  Biso   1.000  N
  H920     1.0000 0.09721  0.49440  0.79288  Biso   1.000  H
  N200     1.0000 0.03583  0.45039  0.76766  Biso   1.000  N
  C851     1.0000 0.97115  0.51320  0.71893  Biso   1.000  C
  C852     1.0000 0.02885  0.48680  0.71893  Biso   1.000  C
  C853     1.0000 0.02881  0.48680  0.71893  Biso   1.000  C
  H921     1.0000 0.96609  0.53528  0.68432  Biso   1.000  H
  H922     1.0000 0.94242  0.48351  0.71960  Biso   1.000  H
  H923     1.0000 0.96609  0.53528  0.68427  Biso   1.000  H
  H924     1.0000 0.94238  0.48351  0.71960  Biso   1.000  H
  H925     1.0000 0.03391  0.46472  0.68432  Biso   1.000  H
  H926     1.0000 0.05758  0.51649  0.71960  Biso   1.000  H
  H927     1.0000 0.03391  0.46472  0.68427  Biso   1.000  H
  C854     1.0000 0.07508  0.53762  0.19922  Biso   1.000  C
  C855     1.0000 0.08840  0.57061  0.14916  Biso   1.000  C
  N201     1.0000 0.03587  0.54961  0.23234  Biso   1.000  N
  H928     1.0000 0.09721  0.50560  0.20712  Biso   1.000  H
  H929     1.0000 0.09721  0.50560  0.20707  Biso   1.000  H
  N202     1.0000 0.03583  0.54961  0.23234  Biso   1.000  N
  C856     1.0000 0.05658  0.61709  0.13417  Biso   1.000  C
  C857     1.0000 0.13417  0.55658  0.11713  Biso   1.000  C
  C858     1.0000 0.13417  0.55658  0.11709  Biso   1.000  C
  C859     1.0000 0.02885  0.51320  0.28107  Biso   1.000  C
  C860     1.0000 0.02881  0.51320  0.28107  Biso   1.000  C
  H930     1.0000 0.02480  0.62677  0.15580  Biso   1.000  H
  C861     1.0000 0.07061  0.64916  0.08840  Biso   1.000  C
  C862     1.0000 0.14916  0.58840  0.07061  Biso   1.000  C
  H931     1.0000 0.15580  0.52480  0.12682  Biso   1.000  H
  H932     1.0000 0.15580  0.52480  0.12677  Biso   1.000  H
  H933     1.0000 0.03391  0.53528  0.31568  Biso   1.000  H
  H934     1.0000 0.05758  0.48351  0.28040  Biso   1.000  H
  C863     1.0000 0.97115  0.48680  0.28107  Biso   1.000  C
  C864     1.0000 0.03762  0.69922  0.07508  Biso   1.000  C
  C865     1.0000 0.11713  0.63417  0.05658  Biso   1.000  C
  C866     1.0000 0.11709  0.63417  0.05658  Biso   1.000  C
  C867     1.0000 0.19922  0.57508  0.03762  Biso   1.000  C
  N203     1.0000 0.96413  0.45039  0.23234  Biso   1.000  N
  H935     1.0000 0.96609  0.46472  0.31568  Biso   1.000  H
  H936     1.0000 0.94242  0.51649  0.28040  Biso   1.000  H
  H937     1.0000 0.94238  0.51649  0.28040  Biso   1.000  H
  H938     1.0000 0.00560  0.70707  0.09721  Biso   1.000  H
  N204     1.0000 0.04961  0.73234  0.03587  Biso   1.000  N
  N205     1.0000 0.04961  0.73234  0.03583  Biso   1.000  N
  H939     1.0000 0.12682  0.65580  0.02480  Biso   1.000  H
  H940     1.0000 0.12677  0.65580  0.02480  Biso   1.000  H
  N206     1.0000 0.23234  0.53583  0.04961  Biso   1.000  N
  H941     1.0000 0.20712  0.59721  0.00560  Biso   1.000  H
  H942     1.0000 0.20707  0.59721  0.00560  Biso   1.000  H
  C868     1.0000 0.92492  0.46238  0.19922  Biso   1.000  C
  C869     1.0000 0.01320  0.78107  0.02885  Biso   1.000  C
  C870     1.0000 0.01320  0.78107  0.02881  Biso   1.000  C
  C871     1.0000 0.28107  0.52885  0.01320  Biso   1.000  C
  H943     1.0000 0.90279  0.49440  0.20712  Biso   1.000  H
  C872     1.0000 0.91160  0.42939  0.14916  Biso   1.000  C
  H944     1.0000 0.90279  0.49440  0.20707  Biso   1.000  H
  H945     1.0000 0.03528  0.81568  0.03391  Biso   1.000  H
  C873     1.0000 0.98680  0.78107  0.97115  Biso   1.000  C
  C874     1.0000 0.98676  0.78107  0.97115  Biso   1.000  C
  H946     1.0000 0.98351  0.78040  0.05758  Biso   1.000  H
  H947     1.0000 0.31568  0.53391  0.03528  Biso   1.000  H
  C875     1.0000 0.28107  0.47115  0.98680  Biso   1.000  C
  H948     1.0000 0.28040  0.55758  0.98351  Biso   1.000  H
  C876     1.0000 0.28107  0.47115  0.98676  Biso   1.000  C
  C877     1.0000 0.94342  0.38287  0.13417  Biso   1.000  C
  C878     1.0000 0.86583  0.44342  0.11713  Biso   1.000  C
  C879     1.0000 0.86583  0.44342  0.11709  Biso   1.000  C
  N207     1.0000 0.95039  0.73234  0.96413  Biso   1.000  N
  H949     1.0000 0.96472  0.81568  0.96609  Biso   1.000  H
  H950     1.0000 0.96467  0.81568  0.96609  Biso   1.000  H
  H951     1.0000 0.01649  0.78040  0.94242  Biso   1.000  H
  H952     1.0000 0.01649  0.78040  0.94238  Biso   1.000  H
  H953     1.0000 0.28040  0.44242  0.01649  Biso   1.000  H
  N208     1.0000 0.23234  0.46413  0.95039  Biso   1.000  N
  H954     1.0000 0.31568  0.46609  0.96472  Biso   1.000  H
  H955     1.0000 0.31568  0.46609  0.96467  Biso   1.000  H
  C880     1.0000 0.92939  0.35084  0.08840  Biso   1.000  C
  H956     1.0000 0.97520  0.37318  0.15580  Biso   1.000  H
  C881     1.0000 0.85084  0.41160  0.07061  Biso   1.000  C
  H957     1.0000 0.84420  0.47520  0.12682  Biso   1.000  H
  H958     1.0000 0.84420  0.47520  0.12677  Biso   1.000  H
  C882     1.0000 0.96238  0.69922  0.92492  Biso   1.000  C
  C883     1.0000 0.96234  0.69922  0.92492  Biso   1.000  C
  C884     1.0000 0.19922  0.42492  0.96238  Biso   1.000  C
  C885     1.0000 0.19922  0.42492  0.96234  Biso   1.000  C
  C886     1.0000 0.96238  0.30078  0.07508  Biso   1.000  C
  C887     1.0000 0.88287  0.36583  0.05658  Biso   1.000  C
  C888     1.0000 0.96234  0.30078  0.07508  Biso   1.000  C
  C889     1.0000 0.80078  0.42492  0.03762  Biso   1.000  C
  H959     1.0000 0.99440  0.70707  0.90279  Biso   1.000  H
  C890     1.0000 0.92939  0.64916  0.91160  Biso   1.000  C
  H960     1.0000 0.20712  0.40279  0.99440  Biso   1.000  H
  C891     1.0000 0.14916  0.41160  0.92939  Biso   1.000  C
  H961     1.0000 0.20707  0.40279  0.99440  Biso   1.000  H
  N209     1.0000 0.95039  0.26766  0.03587  Biso   1.000  N
  H962     1.0000 0.99440  0.29288  0.09721  Biso   1.000  H
  N210     1.0000 0.95039  0.26766  0.03583  Biso   1.000  N
  H963     1.0000 0.87318  0.34420  0.02480  Biso   1.000  H
  N211     1.0000 0.76766  0.46413  0.04961  Biso   1.000  N
  H964     1.0000 0.79288  0.40279  0.00560  Biso   1.000  H
  C892     1.0000 0.88287  0.63417  0.94342  Biso   1.000  C
  C893     1.0000 0.94342  0.61709  0.86583  Biso   1.000  C
  C894     1.0000 0.11713  0.36583  0.94342  Biso   1.000  C
  C895     1.0000 0.13417  0.44342  0.88287  Biso   1.000  C
  C896     1.0000 0.11709  0.36583  0.94342  Biso   1.000  C
  C897     1.0000 0.98680  0.21893  0.02885  Biso   1.000  C
  C898     1.0000 0.98680  0.21893  0.02881  Biso   1.000  C
  C899     1.0000 0.98676  0.21893  0.02885  Biso   1.000  C
  C900     1.0000 0.98676  0.21893  0.02881  Biso   1.000  C
  C901     1.0000 0.71893  0.47115  0.01320  Biso   1.000  C
  C902     1.0000 0.85084  0.58840  0.92939  Biso   1.000  C
  H965     1.0000 0.87318  0.65580  0.97520  Biso   1.000  H
  C903     1.0000 0.91160  0.57061  0.85084  Biso   1.000  C
  H966     1.0000 0.97520  0.62677  0.84420  Biso   1.000  H
  C904     1.0000 0.07061  0.35084  0.91160  Biso   1.000  C
  H967     1.0000 0.12682  0.34420  0.97520  Biso   1.000  H
  H968     1.0000 0.12677  0.34420  0.97520  Biso   1.000  H
  C905     1.0000 0.08840  0.42939  0.85084  Biso   1.000  C
  H969     1.0000 0.15580  0.47520  0.87318  Biso   1.000  H
  H970     1.0000 0.01649  0.21960  0.05758  Biso   1.000  H
  H971     1.0000 0.96472  0.18432  0.03391  Biso   1.000  H
  H972     1.0000 0.96467  0.18432  0.03391  Biso   1.000  H
  C906     1.0000 0.01320  0.21893  0.97115  Biso   1.000  C
  C907     1.0000 0.71893  0.52885  0.98680  Biso   1.000  C
  H973     1.0000 0.71960  0.44242  0.98351  Biso   1.000  H
  C908     1.0000 0.71893  0.52885  0.98676  Biso   1.000  C
  H974     1.0000 0.68432  0.46609  0.03528  Biso   1.000  H
  H975     1.0000 0.68427  0.46609  0.03528  Biso   1.000  H
  C909     1.0000 0.80078  0.57508  0.96238  Biso   1.000  C
  C910     1.0000 0.86583  0.55658  0.88287  Biso   1.000  C
  C911     1.0000 0.80078  0.57508  0.96234  Biso   1.000  C
  C912     1.0000 0.92492  0.53762  0.80078  Biso   1.000  C
  C913     1.0000 0.03762  0.30078  0.92492  Biso   1.000  C
  C914     1.0000 0.05658  0.38287  0.86583  Biso   1.000  C
  C915     1.0000 0.07508  0.46238  0.80078  Biso   1.000  C
  H976     1.0000 0.98351  0.21960  0.94242  Biso   1.000  H
  H977     1.0000 0.98351  0.21960  0.94238  Biso   1.000  H
  N212     1.0000 0.04961  0.26766  0.96413  Biso   1.000  N
  H978     1.0000 0.03528  0.18432  0.96609  Biso   1.000  H
  N213     1.0000 0.76766  0.53583  0.95039  Biso   1.000  N
  H979     1.0000 0.68432  0.53391  0.96472  Biso   1.000  H
  H980     1.0000 0.68432  0.53391  0.96467  Biso   1.000  H
  H981     1.0000 0.68427  0.53391  0.96472  Biso   1.000  H
  H982     1.0000 0.68427  0.53391  0.96467  Biso   1.000  H
  H983     1.0000 0.71960  0.55758  0.01649  Biso   1.000  H
  H984     1.0000 0.79288  0.59721  0.99440  Biso   1.000  H
  H985     1.0000 0.84420  0.52480  0.87318  Biso   1.000  H
  N214     1.0000 0.96413  0.54961  0.76766  Biso   1.000  N
  H986     1.0000 0.90279  0.50560  0.79288  Biso   1.000  H
  H987     1.0000 0.00560  0.29288  0.90279  Biso   1.000  H
  H988     1.0000 0.02480  0.37318  0.84420  Biso   1.000  H
  N215     1.0000 0.03587  0.45039  0.76766  Biso   1.000  N
  H989     1.0000 0.09721  0.49440  0.79288  Biso   1.000  H
  N216     1.0000 0.03583  0.45039  0.76766  Biso   1.000  N
  C916     1.0000 0.97115  0.51320  0.71893  Biso   1.000  C
  C917     1.0000 0.02885  0.48680  0.71893  Biso   1.000  C
  C918     1.0000 0.02881  0.48680  0.71893  Biso   1.000  C
  H990     1.0000 0.96609  0.53528  0.68432  Biso   1.000  H
  H991     1.0000 0.94242  0.48351  0.71960  Biso   1.000  H
  H992     1.0000 0.96609  0.53528  0.68427  Biso   1.000  H
  H993     1.0000 0.94238  0.48351  0.71960  Biso   1.000  H
  H994     1.0000 0.03391  0.46472  0.68432  Biso   1.000  H
  H995     1.0000 0.05758  0.51649  0.71960  Biso   1.000  H
  H996     1.0000 0.03391  0.46472  0.68427  Biso   1.000  H
  C919     1.0000 0.70219  0.22361  0.36959  Biso   1.000  C
  C920     1.0000 0.71613  0.21375  0.41277  Biso   1.000  C
  H997     1.0000 0.67651  0.21179  0.40129  Biso   1.000  H
  C921     1.0000 0.75000  0.25000  0.36917  Biso   1.000  C
  C922     1.0000 0.69300  0.19058  0.42459  Biso   1.000  C
  H998     1.0000 0.70098  0.19730  0.33769  Biso   1.000  H
  H999     1.0000 0.67150  0.25092  0.36479  Biso   1.000  H
  C923     1.0000 0.72023  0.23902  0.47069  Biso   1.000  C
  H1000    1.0000 0.73121  0.17530  0.41340  Biso   1.000  H
  C924     1.0000 0.78382  0.28625  0.41277  Biso   1.000  C
  H1001    1.0000 0.77468  0.22691  0.34542  Biso   1.000  H
  H1002    1.0000 0.72528  0.27309  0.34542  Biso   1.000  H
  C925     1.0000 0.79781  0.27639  0.36959  Biso   1.000  C
  H1003    1.0000 0.71409  0.15509  0.42509  Biso   1.000  H
  H1004    1.0000 0.65300  0.18319  0.43169  Biso   1.000  H
  N217     1.0000 0.71108  0.20106  0.51716  Biso   1.000  N
  C926     1.0000 0.77973  0.26098  0.47069  Biso   1.000  C
  H1005    1.0000 0.69371  0.27109  0.47361  Biso   1.000  H
  H1006    1.0000 0.82349  0.28821  0.40129  Biso   1.000  H
  H1007    1.0000 0.76879  0.32470  0.41340  Biso   1.000  H
  C927     1.0000 0.80700  0.30938  0.42459  Biso   1.000  C
  H1008    1.0000 0.79898  0.30270  0.33769  Biso   1.000  H
  H1009    1.0000 0.82850  0.24908  0.36479  Biso   1.000  H
  C928     1.0000 0.67296  0.21371  0.55115  Biso   1.000  C
  N218     1.0000 0.78888  0.29894  0.51716  Biso   1.000  N
  H1010    1.0000 0.80629  0.22891  0.47361  Biso   1.000  H
  H1011    1.0000 0.78591  0.34491  0.42509  Biso   1.000  H
  H1012    1.0000 0.84700  0.31681  0.43169  Biso   1.000  H
  H1013    1.0000 0.65179  0.24662  0.54481  Biso   1.000  H
  C929     1.0000 0.66018  0.17935  0.60022  Biso   1.000  C
  C930     1.0000 0.82704  0.28629  0.55115  Biso   1.000  C
  C931     1.0000 0.69258  0.13308  0.61441  Biso   1.000  C
  C932     1.0000 0.61441  0.19263  0.63308  Biso   1.000  C
  H1014    1.0000 0.84821  0.25338  0.54481  Biso   1.000  H
  C933     1.0000 0.83982  0.32065  0.60022  Biso   1.000  C
  C934     1.0000 0.67931  0.10026  0.66018  Biso   1.000  C
  H1015    1.0000 0.72428  0.12402  0.59241  Biso   1.000  H
  C935     1.0000 0.60022  0.16018  0.67931  Biso   1.000  C
  H1016    1.0000 0.59241  0.22428  0.62398  Biso   1.000  H
  C936     1.0000 0.80737  0.36688  0.61441  Biso   1.000  C
  C937     1.0000 0.88559  0.30737  0.63308  Biso   1.000  C
  C938     1.0000 0.71371  0.05115  0.67296  Biso   1.000  C
  C939     1.0000 0.63308  0.11441  0.69258  Biso   1.000  C
  C940     1.0000 0.55115  0.17296  0.71371  Biso   1.000  C
  C941     1.0000 0.82065  0.39974  0.66018  Biso   1.000  C
  H1017    1.0000 0.77568  0.37598  0.59241  Biso   1.000  H
  C942     1.0000 0.89974  0.33982  0.67931  Biso   1.000  C
  H1018    1.0000 0.90759  0.27568  0.62398  Biso   1.000  H
  N219     1.0000 0.70106  0.01716  0.71108  Biso   1.000  N
  H1019    1.0000 0.74658  0.04481  0.65179  Biso   1.000  H
  H1020    1.0000 0.62398  0.09241  0.72428  Biso   1.000  H
  N220     1.0000 0.51716  0.21108  0.70106  Biso   1.000  N
  H1021    1.0000 0.54481  0.15179  0.74658  Biso   1.000  H
  C943     1.0000 0.78629  0.44881  0.67296  Biso   1.000  C
  C944     1.0000 0.86688  0.38559  0.69258  Biso   1.000  C
  C945     1.0000 0.94881  0.32704  0.71371  Biso   1.000  C
  C946     1.0000 0.73898  0.97069  0.72023  Biso   1.000  C
  C947     1.0000 0.47069  0.22027  0.73898  Biso   1.000  C
  N221     1.0000 0.79894  0.48280  0.71108  Biso   1.000  N
  H1022    1.0000 0.75338  0.45519  0.65179  Biso   1.000  H
  H1023    1.0000 0.87598  0.40759  0.72428  Biso   1.000  H
  N222     1.0000 0.98280  0.28892  0.70106  Biso   1.000  N
  H1024    1.0000 0.95519  0.34821  0.74658  Biso   1.000  H
  C948     1.0000 0.76098  0.97069  0.77973  Biso   1.000  C
  H1025    1.0000 0.77109  0.97361  0.69371  Biso   1.000  H
  C949     1.0000 0.71375  0.91277  0.71613  Biso   1.000  C
  C950     1.0000 0.69058  0.92459  0.69300  Biso   1.000  C
  C951     1.0000 0.47069  0.27973  0.76098  Biso   1.000  C
  H1026    1.0000 0.47361  0.19371  0.77109  Biso   1.000  H
  C952     1.0000 0.41277  0.21613  0.71375  Biso   1.000  C
  C953     1.0000 0.42459  0.19300  0.69058  Biso   1.000  C
  C954     1.0000 0.76098  0.52931  0.72023  Biso   1.000  C
  C955     1.0000 0.02931  0.27973  0.73898  Biso   1.000  C
  N223     1.0000 0.79894  0.01716  0.78888  Biso   1.000  N
  H1027    1.0000 0.72891  0.97361  0.80629  Biso   1.000  H
  C956     1.0000 0.78625  0.91277  0.78382  Biso   1.000  C
  C957     1.0000 0.80938  0.92459  0.80700  Biso   1.000  C
  H1028    1.0000 0.71179  0.90129  0.67651  Biso   1.000  H
  H1029    1.0000 0.67530  0.91340  0.73121  Biso   1.000  H
  C958     1.0000 0.75000  0.86917  0.75000  Biso   1.000  C
  C959     1.0000 0.72361  0.86959  0.70219  Biso   1.000  C
  H1030    1.0000 0.65509  0.92509  0.71409  Biso   1.000  H
  H1031    1.0000 0.68319  0.93169  0.65300  Biso   1.000  H
  N224     1.0000 0.51716  0.28892  0.79894  Biso   1.000  N
  H1032    1.0000 0.47361  0.30629  0.72891  Biso   1.000  H
  C960     1.0000 0.41277  0.28387  0.78625  Biso   1.000  C
  C961     1.0000 0.42459  0.30700  0.80938  Biso   1.000  C
  H1033    1.0000 0.40129  0.17651  0.71179  Biso   1.000  H
  H1034    1.0000 0.41340  0.23121  0.67530  Biso   1.000  H
  C962     1.0000 0.36917  0.25000  0.75000  Biso   1.000  C
  C963     1.0000 0.36959  0.20219  0.72361  Biso   1.000  C
  H1035    1.0000 0.42509  0.21409  0.65509  Biso   1.000  H
  H1036    1.0000 0.43169  0.15300  0.68319  Biso   1.000  H
  C964     1.0000 0.73898  0.52931  0.77973  Biso   1.000  C
  H1037    1.0000 0.72891  0.52639  0.69371  Biso   1.000  H
  C965     1.0000 0.78625  0.58723  0.71613  Biso   1.000  C
  C966     1.0000 0.80938  0.57541  0.69300  Biso   1.000  C
  C967     1.0000 0.02931  0.22027  0.76098  Biso   1.000  C
  H1038    1.0000 0.02639  0.30629  0.77109  Biso   1.000  H
  C968     1.0000 0.08723  0.28387  0.71375  Biso   1.000  C
  C969     1.0000 0.07541  0.30700  0.69058  Biso   1.000  C
  C970     1.0000 0.78629  0.05115  0.82704  Biso   1.000  C
  H1039    1.0000 0.78821  0.90129  0.82349  Biso   1.000  H
  H1040    1.0000 0.82470  0.91340  0.76879  Biso   1.000  H
  C971     1.0000 0.77639  0.86959  0.79781  Biso   1.000  C
  H1041    1.0000 0.84487  0.92509  0.78591  Biso   1.000  H
  H1042    1.0000 0.81681  0.93169  0.84700  Biso   1.000  H
  H1043    1.0000 0.72691  0.84542  0.77468  Biso   1.000  H
  H1044    1.0000 0.77309  0.84542  0.72528  Biso   1.000  H
  H1045    1.0000 0.69730  0.83769  0.70098  Biso   1.000  H
  H1046    1.0000 0.75088  0.86479  0.67150  Biso   1.000  H
  C972     1.0000 0.55115  0.32704  0.78629  Biso   1.000  C
  H1047    1.0000 0.40129  0.32349  0.78821  Biso   1.000  H
  H1048    1.0000 0.41340  0.26879  0.82470  Biso   1.000  H
  C973     1.0000 0.36959  0.29781  0.77639  Biso   1.000  C
  H1049    1.0000 0.42509  0.28591  0.84487  Biso   1.000  H
  H1050    1.0000 0.43169  0.34700  0.81681  Biso   1.000  H
  H1051    1.0000 0.34542  0.22528  0.77309  Biso   1.000  H
  H1052    1.0000 0.34542  0.27468  0.72691  Biso   1.000  H
  H1053    1.0000 0.33769  0.20102  0.69730  Biso   1.000  H
  H1054    1.0000 0.36479  0.17150  0.75088  Biso   1.000  H
  N225     1.0000 0.70106  0.48280  0.78888  Biso   1.000  N
  H1055    1.0000 0.77109  0.52639  0.80629  Biso   1.000  H
  C974     1.0000 0.71375  0.58723  0.78382  Biso   1.000  C
  C975     1.0000 0.69058  0.57541  0.80700  Biso   1.000  C
  H1056    1.0000 0.78821  0.59871  0.67651  Biso   1.000  H
  H1057    1.0000 0.82470  0.58660  0.73121  Biso   1.000  H
  C976     1.0000 0.75000  0.63083  0.75000  Biso   1.000  C
  C977     1.0000 0.77639  0.63041  0.70219  Biso   1.000  C
  H1058    1.0000 0.84487  0.57491  0.71409  Biso   1.000  H
  H1059    1.0000 0.81681  0.56831  0.65300  Biso   1.000  H
  N226     1.0000 0.98280  0.21108  0.79894  Biso   1.000  N
  H1060    1.0000 0.02639  0.19371  0.72891  Biso   1.000  H
  C978     1.0000 0.08723  0.21613  0.78625  Biso   1.000  C
  C979     1.0000 0.07541  0.19300  0.80938  Biso   1.000  C
  C980     1.0000 0.13083  0.25000  0.75000  Biso   1.000  C
  H1061    1.0000 0.09867  0.32349  0.71179  Biso   1.000  H
  H1062    1.0000 0.08660  0.26879  0.67530  Biso   1.000  H
  C981     1.0000 0.13041  0.29781  0.72361  Biso   1.000  C
  H1063    1.0000 0.07491  0.28591  0.65509  Biso   1.000  H
  H1064    1.0000 0.06831  0.34700  0.68319  Biso   1.000  H
  H1065    1.0000 0.75338  0.04481  0.84821  Biso   1.000  H
  C982     1.0000 0.82065  0.10026  0.83982  Biso   1.000  C
  H1066    1.0000 0.80270  0.83769  0.79898  Biso   1.000  H
  H1067    1.0000 0.74908  0.86479  0.82850  Biso   1.000  H
  H1068    1.0000 0.54481  0.34821  0.75338  Biso   1.000  H
  C983     1.0000 0.60022  0.33982  0.82065  Biso   1.000  C
  H1069    1.0000 0.33769  0.29898  0.80270  Biso   1.000  H
  H1070    1.0000 0.36479  0.32850  0.74908  Biso   1.000  H
  C984     1.0000 0.71371  0.44881  0.82704  Biso   1.000  C
  H1071    1.0000 0.71179  0.59871  0.82349  Biso   1.000  H
  H1072    1.0000 0.67530  0.58660  0.76879  Biso   1.000  H
  C985     1.0000 0.72361  0.63041  0.79781  Biso   1.000  C
  H1073    1.0000 0.65509  0.57491  0.78591  Biso   1.000  H
  H1074    1.0000 0.68319  0.56831  0.84700  Biso   1.000  H
  H1075    1.0000 0.72691  0.65458  0.72528  Biso   1.000  H
  H1076    1.0000 0.77309  0.65458  0.77468  Biso   1.000  H
  H1077    1.0000 0.80270  0.66231  0.70098  Biso   1.000  H
  H1078    1.0000 0.74908  0.63521  0.67150  Biso   1.000  H
  C986     1.0000 0.94881  0.17296  0.78629  Biso   1.000  C
  H1079    1.0000 0.09867  0.17651  0.78821  Biso   1.000  H
  H1080    1.0000 0.08660  0.23121  0.82470  Biso   1.000  H
  C987     1.0000 0.13041  0.20219  0.77639  Biso   1.000  C
  H1081    1.0000 0.07491  0.21409  0.84487  Biso   1.000  H
  H1082    1.0000 0.06831  0.15300  0.81681  Biso   1.000  H
  H1083    1.0000 0.15458  0.22528  0.72691  Biso   1.000  H
  H1084    1.0000 0.15458  0.27468  0.77309  Biso   1.000  H
  H1085    1.0000 0.16231  0.29898  0.69730  Biso   1.000  H
  H1086    1.0000 0.13521  0.32850  0.75088  Biso   1.000  H
  C988     1.0000 0.86688  0.11441  0.80737  Biso   1.000  C
  C989     1.0000 0.80737  0.13308  0.88559  Biso   1.000  C
  C990     1.0000 0.61441  0.30737  0.86688  Biso   1.000  C
  C991     1.0000 0.63308  0.38559  0.80737  Biso   1.000  C
  H1087    1.0000 0.74658  0.45519  0.84821  Biso   1.000  H
  C992     1.0000 0.67931  0.39974  0.83982  Biso   1.000  C
  H1088    1.0000 0.69730  0.66231  0.79898  Biso   1.000  H
  H1089    1.0000 0.75088  0.63521  0.82850  Biso   1.000  H
  H1090    1.0000 0.95519  0.15179  0.75338  Biso   1.000  H
  C993     1.0000 0.89974  0.16018  0.82065  Biso   1.000  C
  H1091    1.0000 0.16231  0.20102  0.80270  Biso   1.000  H
  H1092    1.0000 0.13521  0.17150  0.74908  Biso   1.000  H
  H1093    1.0000 0.87598  0.09241  0.77568  Biso   1.000  H
  C994     1.0000 0.83982  0.17935  0.89974  Biso   1.000  C
  H1094    1.0000 0.77568  0.12402  0.90759  Biso   1.000  H
  C995     1.0000 0.66018  0.32065  0.89974  Biso   1.000  C
  H1095    1.0000 0.59241  0.27568  0.87598  Biso   1.000  H
  H1096    1.0000 0.62398  0.40759  0.77568  Biso   1.000  H
  C996     1.0000 0.69258  0.36688  0.88559  Biso   1.000  C
  C997     1.0000 0.88559  0.19263  0.86688  Biso   1.000  C
  C998     1.0000 0.82704  0.21371  0.94881  Biso   1.000  C
  C999     1.0000 0.67296  0.28629  0.94881  Biso   1.000  C
  H1097    1.0000 0.72428  0.37598  0.90759  Biso   1.000  H
  H1098    1.0000 0.90759  0.22428  0.87598  Biso   1.000  H
  N227     1.0000 0.78888  0.20106  0.98280  Biso   1.000  N
  H1099    1.0000 0.84821  0.24662  0.95519  Biso   1.000  H
  N228     1.0000 0.71108  0.29894  0.98280  Biso   1.000  N
  H1100    1.0000 0.65179  0.25338  0.95519  Biso   1.000  H
  C1000    1.0000 0.77973  0.23902  0.02931  Biso   1.000  C
  C1001    1.0000 0.72023  0.26098  0.02931  Biso   1.000  C
  H1101    1.0000 0.80629  0.27109  0.02639  Biso   1.000  H
  C1002    1.0000 0.78382  0.21375  0.08723  Biso   1.000  C
  C1003    1.0000 0.80700  0.19058  0.07541  Biso   1.000  C
  H1102    1.0000 0.69371  0.22891  0.02639  Biso   1.000  H
  C1004    1.0000 0.71613  0.28625  0.08723  Biso   1.000  C
  C1005    1.0000 0.69300  0.30938  0.07541  Biso   1.000  C
  H1103    1.0000 0.82349  0.21179  0.09867  Biso   1.000  H
  H1104    1.0000 0.76879  0.17530  0.08660  Biso   1.000  H
  C1006    1.0000 0.75000  0.25000  0.13083  Biso   1.000  C
  C1007    1.0000 0.79781  0.22361  0.13041  Biso   1.000  C
  H1105    1.0000 0.78591  0.15509  0.07491  Biso   1.000  H
  H1106    1.0000 0.84700  0.18319  0.06831  Biso   1.000  H
  H1107    1.0000 0.67651  0.28821  0.09867  Biso   1.000  H
  H1108    1.0000 0.73121  0.32470  0.08660  Biso   1.000  H
  C1008    1.0000 0.70219  0.27639  0.13041  Biso   1.000  C
  H1109    1.0000 0.71409  0.34491  0.07491  Biso   1.000  H
  H1110    1.0000 0.65300  0.31681  0.06831  Biso   1.000  H
  H1111    1.0000 0.77468  0.27309  0.15458  Biso   1.000  H
  H1112    1.0000 0.72528  0.22691  0.15458  Biso   1.000  H
  H1113    1.0000 0.79898  0.19730  0.16231  Biso   1.000  H
  H1114    1.0000 0.82850  0.25092  0.13521  Biso   1.000  H
  H1115    1.0000 0.70098  0.30270  0.16231  Biso   1.000  H
  H1116    1.0000 0.67150  0.24908  0.13521  Biso   1.000  H
  C1009    1.0000 0.36959  0.70219  0.22361  Biso   1.000  C
  C1010    1.0000 0.41277  0.71613  0.21375  Biso   1.000  C
  H1117    1.0000 0.40129  0.67651  0.21179  Biso   1.000  H
  C1011    1.0000 0.36917  0.75000  0.25000  Biso   1.000  C
  C1012    1.0000 0.42459  0.69300  0.19058  Biso   1.000  C
  H1118    1.0000 0.33769  0.70098  0.19730  Biso   1.000  H
  H1119    1.0000 0.36479  0.67150  0.25092  Biso   1.000  H
  C1013    1.0000 0.47069  0.72023  0.23902  Biso   1.000  C
  H1120    1.0000 0.41340  0.73121  0.17530  Biso   1.000  H
  C1014    1.0000 0.41277  0.78382  0.28625  Biso   1.000  C
  H1121    1.0000 0.34542  0.77468  0.22691  Biso   1.000  H
  H1122    1.0000 0.34542  0.72528  0.27309  Biso   1.000  H
  C1015    1.0000 0.36959  0.79781  0.27639  Biso   1.000  C
  H1123    1.0000 0.42509  0.71409  0.15509  Biso   1.000  H
  H1124    1.0000 0.43169  0.65300  0.18319  Biso   1.000  H
  N229     1.0000 0.51716  0.71108  0.20106  Biso   1.000  N
  C1016    1.0000 0.47069  0.77973  0.26098  Biso   1.000  C
  H1125    1.0000 0.47361  0.69371  0.27109  Biso   1.000  H
  H1126    1.0000 0.40129  0.82349  0.28821  Biso   1.000  H
  H1127    1.0000 0.41340  0.76879  0.32470  Biso   1.000  H
  C1017    1.0000 0.42459  0.80700  0.30938  Biso   1.000  C
  H1128    1.0000 0.33769  0.79898  0.30270  Biso   1.000  H
  H1129    1.0000 0.36479  0.82850  0.24908  Biso   1.000  H
  C1018    1.0000 0.55115  0.67296  0.21371  Biso   1.000  C
  N230     1.0000 0.51716  0.78888  0.29894  Biso   1.000  N
  H1130    1.0000 0.47361  0.80629  0.22891  Biso   1.000  H
  H1131    1.0000 0.42509  0.78591  0.34491  Biso   1.000  H
  H1132    1.0000 0.43169  0.84700  0.31681  Biso   1.000  H
  H1133    1.0000 0.54481  0.65179  0.24662  Biso   1.000  H
  C1019    1.0000 0.60022  0.66018  0.17935  Biso   1.000  C
  C1020    1.0000 0.55115  0.82704  0.28629  Biso   1.000  C
  C1021    1.0000 0.61441  0.69258  0.13308  Biso   1.000  C
  C1022    1.0000 0.63308  0.61441  0.19263  Biso   1.000  C
  H1134    1.0000 0.54481  0.84821  0.25338  Biso   1.000  H
  C1023    1.0000 0.60022  0.83982  0.32065  Biso   1.000  C
  C1024    1.0000 0.66018  0.67931  0.10026  Biso   1.000  C
  H1135    1.0000 0.59241  0.72428  0.12402  Biso   1.000  H
  C1025    1.0000 0.67931  0.60022  0.16018  Biso   1.000  C
  H1136    1.0000 0.62398  0.59241  0.22428  Biso   1.000  H
  C1026    1.0000 0.61441  0.80737  0.36688  Biso   1.000  C
  C1027    1.0000 0.63308  0.88559  0.30737  Biso   1.000  C
  C1028    1.0000 0.67296  0.71371  0.05115  Biso   1.000  C
  C1029    1.0000 0.69258  0.63308  0.11441  Biso   1.000  C
  C1030    1.0000 0.71371  0.55115  0.17296  Biso   1.000  C
  C1031    1.0000 0.66018  0.82065  0.39974  Biso   1.000  C
  H1137    1.0000 0.59241  0.77568  0.37598  Biso   1.000  H
  C1032    1.0000 0.67931  0.89974  0.33982  Biso   1.000  C
  H1138    1.0000 0.62398  0.90759  0.27568  Biso   1.000  H
  N231     1.0000 0.71108  0.70106  0.01716  Biso   1.000  N
  H1139    1.0000 0.65179  0.74658  0.04481  Biso   1.000  H
  H1140    1.0000 0.72428  0.62398  0.09241  Biso   1.000  H
  N232     1.0000 0.70106  0.51716  0.21108  Biso   1.000  N
  H1141    1.0000 0.74658  0.54481  0.15179  Biso   1.000  H
  C1033    1.0000 0.67296  0.78629  0.44881  Biso   1.000  C
  C1034    1.0000 0.69258  0.86688  0.38559  Biso   1.000  C
  C1035    1.0000 0.71371  0.94881  0.32704  Biso   1.000  C
  C1036    1.0000 0.72023  0.73898  0.97069  Biso   1.000  C
  C1037    1.0000 0.73898  0.47069  0.22027  Biso   1.000  C
  N233     1.0000 0.71108  0.79894  0.48280  Biso   1.000  N
  H1142    1.0000 0.65179  0.75338  0.45519  Biso   1.000  H
  H1143    1.0000 0.72428  0.87598  0.40759  Biso   1.000  H
  N234     1.0000 0.70106  0.98280  0.28892  Biso   1.000  N
  H1144    1.0000 0.74658  0.95519  0.34821  Biso   1.000  H
  C1038    1.0000 0.77973  0.76098  0.97069  Biso   1.000  C
  H1145    1.0000 0.69371  0.77109  0.97361  Biso   1.000  H
  C1039    1.0000 0.71613  0.71375  0.91277  Biso   1.000  C
  C1040    1.0000 0.69300  0.69058  0.92459  Biso   1.000  C
  C1041    1.0000 0.76098  0.47069  0.27973  Biso   1.000  C
  H1146    1.0000 0.77109  0.47361  0.19371  Biso   1.000  H
  C1042    1.0000 0.71375  0.41277  0.21613  Biso   1.000  C
  C1043    1.0000 0.69058  0.42459  0.19300  Biso   1.000  C
  C1044    1.0000 0.72023  0.76098  0.52931  Biso   1.000  C
  C1045    1.0000 0.73898  0.02931  0.27973  Biso   1.000  C
  N235     1.0000 0.78888  0.79894  0.01716  Biso   1.000  N
  H1147    1.0000 0.80629  0.72891  0.97361  Biso   1.000  H
  C1046    1.0000 0.78382  0.78625  0.91277  Biso   1.000  C
  C1047    1.0000 0.80700  0.80938  0.92459  Biso   1.000  C
  H1148    1.0000 0.67651  0.71179  0.90129  Biso   1.000  H
  H1149    1.0000 0.73121  0.67530  0.91340  Biso   1.000  H
  C1048    1.0000 0.75000  0.75000  0.86917  Biso   1.000  C
  C1049    1.0000 0.70219  0.72361  0.86959  Biso   1.000  C
  H1150    1.0000 0.71409  0.65509  0.92509  Biso   1.000  H
  H1151    1.0000 0.65300  0.68319  0.93169  Biso   1.000  H
  N236     1.0000 0.79894  0.51716  0.28892  Biso   1.000  N
  H1152    1.0000 0.72891  0.47361  0.30629  Biso   1.000  H
  C1050    1.0000 0.78625  0.41277  0.28387  Biso   1.000  C
  C1051    1.0000 0.80938  0.42459  0.30700  Biso   1.000  C
  H1153    1.0000 0.71179  0.40129  0.17651  Biso   1.000  H
  H1154    1.0000 0.67530  0.41340  0.23121  Biso   1.000  H
  C1052    1.0000 0.75000  0.36917  0.25000  Biso   1.000  C
  C1053    1.0000 0.72361  0.36959  0.20219  Biso   1.000  C
  H1155    1.0000 0.65509  0.42509  0.21409  Biso   1.000  H
  H1156    1.0000 0.68319  0.43169  0.15300  Biso   1.000  H
  C1054    1.0000 0.77973  0.73898  0.52931  Biso   1.000  C
  H1157    1.0000 0.69371  0.72891  0.52639  Biso   1.000  H
  C1055    1.0000 0.71613  0.78625  0.58723  Biso   1.000  C
  C1056    1.0000 0.69300  0.80938  0.57541  Biso   1.000  C
  C1057    1.0000 0.76098  0.02931  0.22027  Biso   1.000  C
  H1158    1.0000 0.77109  0.02639  0.30629  Biso   1.000  H
  C1058    1.0000 0.71375  0.08723  0.28387  Biso   1.000  C
  C1059    1.0000 0.69058  0.07541  0.30700  Biso   1.000  C
  C1060    1.0000 0.82704  0.78629  0.05115  Biso   1.000  C
  H1159    1.0000 0.82349  0.78821  0.90129  Biso   1.000  H
  H1160    1.0000 0.76879  0.82470  0.91340  Biso   1.000  H
  C1061    1.0000 0.79781  0.77639  0.86959  Biso   1.000  C
  H1161    1.0000 0.78591  0.84487  0.92509  Biso   1.000  H
  H1162    1.0000 0.84700  0.81681  0.93169  Biso   1.000  H
  H1163    1.0000 0.77468  0.72691  0.84542  Biso   1.000  H
  H1164    1.0000 0.72528  0.77309  0.84542  Biso   1.000  H
  H1165    1.0000 0.70098  0.69730  0.83769  Biso   1.000  H
  H1166    1.0000 0.67150  0.75088  0.86479  Biso   1.000  H
  C1062    1.0000 0.78629  0.55115  0.32704  Biso   1.000  C
  H1167    1.0000 0.78821  0.40129  0.32349  Biso   1.000  H
  H1168    1.0000 0.82470  0.41340  0.26879  Biso   1.000  H
  C1063    1.0000 0.77639  0.36959  0.29781  Biso   1.000  C
  H1169    1.0000 0.84487  0.42509  0.28591  Biso   1.000  H
  H1170    1.0000 0.81681  0.43169  0.34700  Biso   1.000  H
  H1171    1.0000 0.72691  0.34542  0.27468  Biso   1.000  H
  H1172    1.0000 0.77309  0.34542  0.22528  Biso   1.000  H
  H1173    1.0000 0.69730  0.33769  0.20102  Biso   1.000  H
  H1174    1.0000 0.75088  0.36479  0.17150  Biso   1.000  H
  N237     1.0000 0.78888  0.70106  0.48280  Biso   1.000  N
  H1175    1.0000 0.80629  0.77109  0.52639  Biso   1.000  H
  C1064    1.0000 0.78382  0.71375  0.58723  Biso   1.000  C
  C1065    1.0000 0.80700  0.69058  0.57541  Biso   1.000  C
  H1176    1.0000 0.67651  0.78821  0.59871  Biso   1.000  H
  H1177    1.0000 0.73121  0.82470  0.58660  Biso   1.000  H
  C1066    1.0000 0.75000  0.75000  0.63083  Biso   1.000  C
  C1067    1.0000 0.70219  0.77639  0.63041  Biso   1.000  C
  H1178    1.0000 0.71409  0.84487  0.57491  Biso   1.000  H
  H1179    1.0000 0.65300  0.81681  0.56831  Biso   1.000  H
  N238     1.0000 0.79894  0.98280  0.21108  Biso   1.000  N
  H1180    1.0000 0.72891  0.02639  0.19371  Biso   1.000  H
  C1068    1.0000 0.78625  0.08723  0.21613  Biso   1.000  C
  C1069    1.0000 0.80938  0.07541  0.19300  Biso   1.000  C
  H1181    1.0000 0.71179  0.09867  0.32349  Biso   1.000  H
  H1182    1.0000 0.67530  0.08660  0.26879  Biso   1.000  H
  C1070    1.0000 0.75000  0.13083  0.25000  Biso   1.000  C
  C1071    1.0000 0.72361  0.13041  0.29781  Biso   1.000  C
  H1183    1.0000 0.65509  0.07491  0.28591  Biso   1.000  H
  H1184    1.0000 0.68319  0.06831  0.34700  Biso   1.000  H
  H1185    1.0000 0.84821  0.75338  0.04481  Biso   1.000  H
  C1072    1.0000 0.83982  0.82065  0.10026  Biso   1.000  C
  H1186    1.0000 0.79898  0.80270  0.83769  Biso   1.000  H
  H1187    1.0000 0.82850  0.74908  0.86479  Biso   1.000  H
  H1188    1.0000 0.75338  0.54481  0.34821  Biso   1.000  H
  C1073    1.0000 0.82065  0.60022  0.33982  Biso   1.000  C
  H1189    1.0000 0.80270  0.33769  0.29898  Biso   1.000  H
  H1190    1.0000 0.74908  0.36479  0.32850  Biso   1.000  H
  C1074    1.0000 0.82704  0.71371  0.44881  Biso   1.000  C
  H1191    1.0000 0.82349  0.71179  0.59871  Biso   1.000  H
  H1192    1.0000 0.76879  0.67530  0.58660  Biso   1.000  H
  C1075    1.0000 0.79781  0.72361  0.63041  Biso   1.000  C
  H1193    1.0000 0.78591  0.65509  0.57491  Biso   1.000  H
  H1194    1.0000 0.84700  0.68319  0.56831  Biso   1.000  H
  H1195    1.0000 0.77468  0.77309  0.65458  Biso   1.000  H
  H1196    1.0000 0.72528  0.72691  0.65458  Biso   1.000  H
  H1197    1.0000 0.70098  0.80270  0.66231  Biso   1.000  H
  H1198    1.0000 0.67150  0.74908  0.63521  Biso   1.000  H
  C1076    1.0000 0.78629  0.94881  0.17296  Biso   1.000  C
  H1199    1.0000 0.78821  0.09867  0.17651  Biso   1.000  H
  H1200    1.0000 0.82470  0.08660  0.23121  Biso   1.000  H
  C1077    1.0000 0.77639  0.13041  0.20219  Biso   1.000  C
  H1201    1.0000 0.84487  0.07491  0.21409  Biso   1.000  H
  H1202    1.0000 0.81681  0.06831  0.15300  Biso   1.000  H
  H1203    1.0000 0.72691  0.15458  0.22528  Biso   1.000  H
  H1204    1.0000 0.77309  0.15458  0.27468  Biso   1.000  H
  H1205    1.0000 0.69730  0.16231  0.29898  Biso   1.000  H
  H1206    1.0000 0.75088  0.13521  0.32850  Biso   1.000  H
  C1078    1.0000 0.80737  0.86688  0.11441  Biso   1.000  C
  C1079    1.0000 0.88559  0.80737  0.13308  Biso   1.000  C
  C1080    1.0000 0.86688  0.61441  0.30737  Biso   1.000  C
  C1081    1.0000 0.80737  0.63308  0.38559  Biso   1.000  C
  H1207    1.0000 0.84821  0.74658  0.45519  Biso   1.000  H
  C1082    1.0000 0.83982  0.67931  0.39974  Biso   1.000  C
  H1208    1.0000 0.79898  0.69730  0.66231  Biso   1.000  H
  H1209    1.0000 0.82850  0.75088  0.63521  Biso   1.000  H
  H1210    1.0000 0.75338  0.95519  0.15179  Biso   1.000  H
  C1083    1.0000 0.82065  0.89974  0.16018  Biso   1.000  C
  H1211    1.0000 0.80270  0.16231  0.20102  Biso   1.000  H
  H1212    1.0000 0.74908  0.13521  0.17150  Biso   1.000  H
  H1213    1.0000 0.77568  0.87598  0.09241  Biso   1.000  H
  C1084    1.0000 0.89974  0.83982  0.17935  Biso   1.000  C
  H1214    1.0000 0.90759  0.77568  0.12402  Biso   1.000  H
  C1085    1.0000 0.89974  0.66018  0.32065  Biso   1.000  C
  H1215    1.0000 0.87598  0.59241  0.27568  Biso   1.000  H
  H1216    1.0000 0.77568  0.62398  0.40759  Biso   1.000  H
  C1086    1.0000 0.88559  0.69258  0.36688  Biso   1.000  C
  C1087    1.0000 0.86688  0.88559  0.19263  Biso   1.000  C
  C1088    1.0000 0.94881  0.82704  0.21371  Biso   1.000  C
  C1089    1.0000 0.94881  0.67296  0.28629  Biso   1.000  C
  H1217    1.0000 0.90759  0.72428  0.37598  Biso   1.000  H
  H1218    1.0000 0.87598  0.90759  0.22428  Biso   1.000  H
  N239     1.0000 0.98280  0.78888  0.20106  Biso   1.000  N
  H1219    1.0000 0.95519  0.84821  0.24662  Biso   1.000  H
  N240     1.0000 0.98280  0.71108  0.29894  Biso   1.000  N
  H1220    1.0000 0.95519  0.65179  0.25338  Biso   1.000  H
  C1090    1.0000 0.02931  0.77973  0.23902  Biso   1.000  C
  C1091    1.0000 0.02931  0.72023  0.26098  Biso   1.000  C
  H1221    1.0000 0.02639  0.80629  0.27109  Biso   1.000  H
  C1092    1.0000 0.08723  0.78382  0.21375  Biso   1.000  C
  C1093    1.0000 0.07541  0.80700  0.19058  Biso   1.000  C
  H1222    1.0000 0.02639  0.69371  0.22891  Biso   1.000  H
  C1094    1.0000 0.08723  0.71613  0.28625  Biso   1.000  C
  C1095    1.0000 0.07541  0.69300  0.30938  Biso   1.000  C
  H1223    1.0000 0.09867  0.82349  0.21179  Biso   1.000  H
  H1224    1.0000 0.08660  0.76879  0.17530  Biso   1.000  H
  C1096    1.0000 0.13083  0.75000  0.25000  Biso   1.000  C
  C1097    1.0000 0.13041  0.79781  0.22361  Biso   1.000  C
  H1225    1.0000 0.07491  0.78591  0.15509  Biso   1.000  H
  H1226    1.0000 0.06831  0.84700  0.18319  Biso   1.000  H
  H1227    1.0000 0.09867  0.67651  0.28821  Biso   1.000  H
  H1228    1.0000 0.08660  0.73121  0.32470  Biso   1.000  H
  C1098    1.0000 0.13041  0.70219  0.27639  Biso   1.000  C
  H1229    1.0000 0.07491  0.71409  0.34491  Biso   1.000  H
  H1230    1.0000 0.06831  0.65300  0.31681  Biso   1.000  H
  H1231    1.0000 0.15458  0.77468  0.27309  Biso   1.000  H
  H1232    1.0000 0.15458  0.72528  0.22691  Biso   1.000  H
  H1233    1.0000 0.16231  0.79898  0.19730  Biso   1.000  H
  H1234    1.0000 0.13521  0.82850  0.25092  Biso   1.000  H
  H1235    1.0000 0.16231  0.70098  0.30270  Biso   1.000  H
  H1236    1.0000 0.13521  0.67150  0.24908  Biso   1.000  H
  C1099    1.0000 0.22361  0.36959  0.70219  Biso   1.000  C
  C1100    1.0000 0.21375  0.41277  0.71613  Biso   1.000  C
  H1237    1.0000 0.21179  0.40129  0.67651  Biso   1.000  H
  C1101    1.0000 0.25000  0.36917  0.75000  Biso   1.000  C
  C1102    1.0000 0.19058  0.42459  0.69300  Biso   1.000  C
  H1238    1.0000 0.19730  0.33769  0.70098  Biso   1.000  H
  H1239    1.0000 0.25092  0.36479  0.67150  Biso   1.000  H
  C1103    1.0000 0.23902  0.47069  0.72023  Biso   1.000  C
  H1240    1.0000 0.17530  0.41340  0.73121  Biso   1.000  H
  C1104    1.0000 0.28625  0.41277  0.78382  Biso   1.000  C
  H1241    1.0000 0.27309  0.34542  0.72528  Biso   1.000  H
  H1242    1.0000 0.22691  0.34542  0.77468  Biso   1.000  H
  C1105    1.0000 0.27639  0.36959  0.79781  Biso   1.000  C
  H1243    1.0000 0.15509  0.42509  0.71409  Biso   1.000  H
  H1244    1.0000 0.18319  0.43169  0.65300  Biso   1.000  H
  N241     1.0000 0.20106  0.51716  0.71108  Biso   1.000  N
  C1106    1.0000 0.26098  0.47069  0.77973  Biso   1.000  C
  H1245    1.0000 0.27109  0.47361  0.69371  Biso   1.000  H
  H1246    1.0000 0.28821  0.40129  0.82349  Biso   1.000  H
  H1247    1.0000 0.32470  0.41340  0.76879  Biso   1.000  H
  C1107    1.0000 0.30938  0.42459  0.80700  Biso   1.000  C
  H1248    1.0000 0.30270  0.33769  0.79898  Biso   1.000  H
  H1249    1.0000 0.24908  0.36479  0.82850  Biso   1.000  H
  C1108    1.0000 0.21371  0.55115  0.67296  Biso   1.000  C
  N242     1.0000 0.29894  0.51716  0.78888  Biso   1.000  N
  H1250    1.0000 0.22891  0.47361  0.80629  Biso   1.000  H
  H1251    1.0000 0.34491  0.42509  0.78591  Biso   1.000  H
  H1252    1.0000 0.31681  0.43169  0.84700  Biso   1.000  H
  H1253    1.0000 0.24662  0.54481  0.65179  Biso   1.000  H
  C1109    1.0000 0.17935  0.60022  0.66018  Biso   1.000  C
  C1110    1.0000 0.28629  0.55115  0.82704  Biso   1.000  C
  C1111    1.0000 0.13308  0.61441  0.69258  Biso   1.000  C
  C1112    1.0000 0.19263  0.63308  0.61441  Biso   1.000  C
  H1254    1.0000 0.25338  0.54481  0.84821  Biso   1.000  H
  C1113    1.0000 0.32065  0.60022  0.83982  Biso   1.000  C
  C1114    1.0000 0.10026  0.66018  0.67931  Biso   1.000  C
  H1255    1.0000 0.12402  0.59241  0.72428  Biso   1.000  H
  C1115    1.0000 0.16018  0.67931  0.60022  Biso   1.000  C
  H1256    1.0000 0.22428  0.62398  0.59241  Biso   1.000  H
  C1116    1.0000 0.30737  0.63308  0.88559  Biso   1.000  C
  C1117    1.0000 0.36688  0.61441  0.80737  Biso   1.000  C
  C1118    1.0000 0.05115  0.67296  0.71371  Biso   1.000  C
  C1119    1.0000 0.11441  0.69258  0.63308  Biso   1.000  C
  C1120    1.0000 0.17296  0.71371  0.55115  Biso   1.000  C
  C1121    1.0000 0.33982  0.67931  0.89974  Biso   1.000  C
  H1257    1.0000 0.27568  0.62398  0.90759  Biso   1.000  H
  C1122    1.0000 0.39974  0.66018  0.82065  Biso   1.000  C
  H1258    1.0000 0.37598  0.59241  0.77568  Biso   1.000  H
  N243     1.0000 0.01716  0.71108  0.70106  Biso   1.000  N
  H1259    1.0000 0.04481  0.65179  0.74658  Biso   1.000  H
  H1260    1.0000 0.09241  0.72428  0.62398  Biso   1.000  H
  N244     1.0000 0.21108  0.70106  0.51716  Biso   1.000  N
  H1261    1.0000 0.15179  0.74658  0.54481  Biso   1.000  H
  C1123    1.0000 0.32704  0.71371  0.94881  Biso   1.000  C
  C1124    1.0000 0.38559  0.69258  0.86688  Biso   1.000  C
  C1125    1.0000 0.44881  0.67296  0.78629  Biso   1.000  C
  C1126    1.0000 0.97069  0.72023  0.73898  Biso   1.000  C
  C1127    1.0000 0.22027  0.73898  0.47069  Biso   1.000  C
  N245     1.0000 0.28892  0.70106  0.98280  Biso   1.000  N
  H1262    1.0000 0.34821  0.74658  0.95519  Biso   1.000  H
  H1263    1.0000 0.40759  0.72428  0.87598  Biso   1.000  H
  N246     1.0000 0.48280  0.71108  0.79894  Biso   1.000  N
  H1264    1.0000 0.45519  0.65179  0.75338  Biso   1.000  H
  C1128    1.0000 0.97069  0.77973  0.76098  Biso   1.000  C
  H1265    1.0000 0.97361  0.69371  0.77109  Biso   1.000  H
  C1129    1.0000 0.91277  0.71613  0.71375  Biso   1.000  C
  C1130    1.0000 0.92459  0.69300  0.69058  Biso   1.000  C
  C1131    1.0000 0.27973  0.76098  0.47069  Biso   1.000  C
  H1266    1.0000 0.19371  0.77109  0.47361  Biso   1.000  H
  C1132    1.0000 0.21613  0.71375  0.41277  Biso   1.000  C
  C1133    1.0000 0.19300  0.69058  0.42459  Biso   1.000  C
  C1134    1.0000 0.27973  0.73898  0.02931  Biso   1.000  C
  C1135    1.0000 0.52931  0.72023  0.76098  Biso   1.000  C
  N247     1.0000 0.01716  0.78888  0.79894  Biso   1.000  N
  H1267    1.0000 0.97361  0.80629  0.72891  Biso   1.000  H
  C1136    1.0000 0.91277  0.78382  0.78625  Biso   1.000  C
  C1137    1.0000 0.92459  0.80700  0.80938  Biso   1.000  C
  C1138    1.0000 0.86917  0.75000  0.75000  Biso   1.000  C
  H1268    1.0000 0.90129  0.67651  0.71179  Biso   1.000  H
  H1269    1.0000 0.91340  0.73121  0.67530  Biso   1.000  H
  C1139    1.0000 0.86959  0.70219  0.72361  Biso   1.000  C
  H1270    1.0000 0.92509  0.71409  0.65509  Biso   1.000  H
  H1271    1.0000 0.93169  0.65300  0.68319  Biso   1.000  H
  N248     1.0000 0.28892  0.79894  0.51716  Biso   1.000  N
  H1272    1.0000 0.30629  0.72891  0.47361  Biso   1.000  H
  C1140    1.0000 0.28387  0.78625  0.41277  Biso   1.000  C
  C1141    1.0000 0.30700  0.80938  0.42459  Biso   1.000  C
  H1273    1.0000 0.17651  0.71179  0.40129  Biso   1.000  H
  H1274    1.0000 0.23121  0.67530  0.41340  Biso   1.000  H
  C1142    1.0000 0.25000  0.75000  0.36917  Biso   1.000  C
  C1143    1.0000 0.20219  0.72361  0.36959  Biso   1.000  C
  H1275    1.0000 0.21409  0.65509  0.42509  Biso   1.000  H
  H1276    1.0000 0.15300  0.68319  0.43169  Biso   1.000  H
  C1144    1.0000 0.22027  0.76098  0.02931  Biso   1.000  C
  H1277    1.0000 0.30629  0.77109  0.02639  Biso   1.000  H
  C1145    1.0000 0.28387  0.71375  0.08723  Biso   1.000  C
  C1146    1.0000 0.30700  0.69058  0.07541  Biso   1.000  C
  C1147    1.0000 0.52931  0.77973  0.73898  Biso   1.000  C
  H1278    1.0000 0.52639  0.69371  0.72891  Biso   1.000  H
  C1148    1.0000 0.58723  0.71613  0.78625  Biso   1.000  C
  C1149    1.0000 0.57541  0.69300  0.80938  Biso   1.000  C
  C1150    1.0000 0.05115  0.82704  0.78629  Biso   1.000  C
  H1279    1.0000 0.90129  0.82349  0.78821  Biso   1.000  H
  H1280    1.0000 0.91340  0.76879  0.82470  Biso   1.000  H
  C1151    1.0000 0.86959  0.79781  0.77639  Biso   1.000  C
  H1281    1.0000 0.92509  0.78591  0.84487  Biso   1.000  H
  H1282    1.0000 0.93169  0.84700  0.81681  Biso   1.000  H
  H1283    1.0000 0.84542  0.77468  0.72691  Biso   1.000  H
  H1284    1.0000 0.84542  0.72528  0.77309  Biso   1.000  H
  H1285    1.0000 0.83769  0.70098  0.69730  Biso   1.000  H
  H1286    1.0000 0.86479  0.67150  0.75088  Biso   1.000  H
  C1152    1.0000 0.32704  0.78629  0.55115  Biso   1.000  C
  H1287    1.0000 0.32349  0.78821  0.40129  Biso   1.000  H
  H1288    1.0000 0.26879  0.82470  0.41340  Biso   1.000  H
  C1153    1.0000 0.29781  0.77639  0.36959  Biso   1.000  C
  H1289    1.0000 0.28591  0.84487  0.42509  Biso   1.000  H
  H1290    1.0000 0.34700  0.81681  0.43169  Biso   1.000  H
  H1291    1.0000 0.22528  0.77309  0.34542  Biso   1.000  H
  H1292    1.0000 0.27468  0.72691  0.34542  Biso   1.000  H
  H1293    1.0000 0.20102  0.69730  0.33769  Biso   1.000  H
  H1294    1.0000 0.17150  0.75088  0.36479  Biso   1.000  H
  N249     1.0000 0.21108  0.79894  0.98280  Biso   1.000  N
  H1295    1.0000 0.19371  0.72891  0.02639  Biso   1.000  H
  C1154    1.0000 0.21613  0.78625  0.08723  Biso   1.000  C
  C1155    1.0000 0.19300  0.80938  0.07541  Biso   1.000  C
  H1296    1.0000 0.32349  0.71179  0.09867  Biso   1.000  H
  H1297    1.0000 0.26879  0.67530  0.08660  Biso   1.000  H
  C1156    1.0000 0.25000  0.75000  0.13083  Biso   1.000  C
  C1157    1.0000 0.29781  0.72361  0.13041  Biso   1.000  C
  H1298    1.0000 0.28591  0.65509  0.07491  Biso   1.000  H
  H1299    1.0000 0.34700  0.68319  0.06831  Biso   1.000  H
  N250     1.0000 0.48280  0.78888  0.70106  Biso   1.000  N
  H1300    1.0000 0.52639  0.80629  0.77109  Biso   1.000  H
  C1158    1.0000 0.58723  0.78382  0.71375  Biso   1.000  C
  C1159    1.0000 0.57541  0.80700  0.69058  Biso   1.000  C
  H1301    1.0000 0.59871  0.67651  0.78821  Biso   1.000  H
  H1302    1.0000 0.58660  0.73121  0.82470  Biso   1.000  H
  C1160    1.0000 0.63083  0.75000  0.75000  Biso   1.000  C
  C1161    1.0000 0.63041  0.70219  0.77639  Biso   1.000  C
  H1303    1.0000 0.57491  0.71409  0.84487  Biso   1.000  H
  H1304    1.0000 0.56831  0.65300  0.81681  Biso   1.000  H
  H1305    1.0000 0.04481  0.84821  0.75338  Biso   1.000  H
  C1162    1.0000 0.10026  0.83982  0.82065  Biso   1.000  C
  H1306    1.0000 0.83769  0.79898  0.80270  Biso   1.000  H
  H1307    1.0000 0.86479  0.82850  0.74908  Biso   1.000  H
  H1308    1.0000 0.34821  0.75338  0.54481  Biso   1.000  H
  C1163    1.0000 0.33982  0.82065  0.60022  Biso   1.000  C
  H1309    1.0000 0.29898  0.80270  0.33769  Biso   1.000  H
  H1310    1.0000 0.32850  0.74908  0.36479  Biso   1.000  H
  C1164    1.0000 0.17296  0.78629  0.94881  Biso   1.000  C
  H1311    1.0000 0.17651  0.78821  0.09867  Biso   1.000  H
  H1312    1.0000 0.23121  0.82470  0.08660  Biso   1.000  H
  C1165    1.0000 0.20219  0.77639  0.13041  Biso   1.000  C
  H1313    1.0000 0.21409  0.84487  0.07491  Biso   1.000  H
  H1314    1.0000 0.15300  0.81681  0.06831  Biso   1.000  H
  H1315    1.0000 0.22528  0.72691  0.15458  Biso   1.000  H
  H1316    1.0000 0.27468  0.77309  0.15458  Biso   1.000  H
  H1317    1.0000 0.29898  0.69730  0.16231  Biso   1.000  H
  H1318    1.0000 0.32850  0.75088  0.13521  Biso   1.000  H
  C1166    1.0000 0.44881  0.82704  0.71371  Biso   1.000  C
  H1319    1.0000 0.59871  0.82349  0.71179  Biso   1.000  H
  H1320    1.0000 0.58660  0.76879  0.67530  Biso   1.000  H
  C1167    1.0000 0.63041  0.79781  0.72361  Biso   1.000  C
  H1321    1.0000 0.57491  0.78591  0.65509  Biso   1.000  H
  H1322    1.0000 0.56831  0.84700  0.68319  Biso   1.000  H
  H1323    1.0000 0.65458  0.77468  0.77309  Biso   1.000  H
  H1324    1.0000 0.65458  0.72528  0.72691  Biso   1.000  H
  H1325    1.0000 0.66231  0.70098  0.80270  Biso   1.000  H
  H1326    1.0000 0.63521  0.67150  0.74908  Biso   1.000  H
  C1168    1.0000 0.13308  0.88559  0.80737  Biso   1.000  C
  C1169    1.0000 0.11441  0.80737  0.86688  Biso   1.000  C
  C1170    1.0000 0.30737  0.86688  0.61441  Biso   1.000  C
  C1171    1.0000 0.38559  0.80737  0.63308  Biso   1.000  C
  H1327    1.0000 0.15179  0.75338  0.95519  Biso   1.000  H
  C1172    1.0000 0.16018  0.82065  0.89974  Biso   1.000  C
  H1328    1.0000 0.20102  0.80270  0.16231  Biso   1.000  H
  H1329    1.0000 0.17150  0.74908  0.13521  Biso   1.000  H
  H1330    1.0000 0.45519  0.84821  0.74658  Biso   1.000  H
  C1173    1.0000 0.39974  0.83982  0.67931  Biso   1.000  C
  H1331    1.0000 0.66231  0.79898  0.69730  Biso   1.000  H
  H1332    1.0000 0.63521  0.82850  0.75088  Biso   1.000  H
  H1333    1.0000 0.12402  0.90759  0.77568  Biso   1.000  H
  C1174    1.0000 0.17935  0.89974  0.83982  Biso   1.000  C
  H1334    1.0000 0.09241  0.77568  0.87598  Biso   1.000  H
  C1175    1.0000 0.32065  0.89974  0.66018  Biso   1.000  C
  H1335    1.0000 0.27568  0.87598  0.59241  Biso   1.000  H
  H1336    1.0000 0.40759  0.77568  0.62398  Biso   1.000  H
  C1176    1.0000 0.19263  0.86688  0.88559  Biso   1.000  C
  C1177    1.0000 0.36688  0.88559  0.69258  Biso   1.000  C
  C1178    1.0000 0.21371  0.94881  0.82704  Biso   1.000  C
  C1179    1.0000 0.28629  0.94881  0.67296  Biso   1.000  C
  H1337    1.0000 0.22428  0.87598  0.90759  Biso   1.000  H
  H1338    1.0000 0.37598  0.90759  0.72428  Biso   1.000  H
  N251     1.0000 0.20106  0.98280  0.78888  Biso   1.000  N
  H1339    1.0000 0.24662  0.95519  0.84821  Biso   1.000  H
  N252     1.0000 0.29894  0.98280  0.71108  Biso   1.000  N
  H1340    1.0000 0.25338  0.95519  0.65179  Biso   1.000  H
  C1180    1.0000 0.23902  0.02931  0.77973  Biso   1.000  C
  C1181    1.0000 0.26098  0.02931  0.72023  Biso   1.000  C
  H1341    1.0000 0.27109  0.02639  0.80629  Biso   1.000  H
  C1182    1.0000 0.21375  0.08723  0.78382  Biso   1.000  C
  C1183    1.0000 0.19058  0.07541  0.80700  Biso   1.000  C
  H1342    1.0000 0.22891  0.02639  0.69371  Biso   1.000  H
  C1184    1.0000 0.28625  0.08723  0.71613  Biso   1.000  C
  C1185    1.0000 0.30938  0.07541  0.69300  Biso   1.000  C
  H1343    1.0000 0.21179  0.09867  0.82349  Biso   1.000  H
  H1344    1.0000 0.17530  0.08660  0.76879  Biso   1.000  H
  C1186    1.0000 0.25000  0.13083  0.75000  Biso   1.000  C
  C1187    1.0000 0.22361  0.13041  0.79781  Biso   1.000  C
  H1345    1.0000 0.15509  0.07491  0.78591  Biso   1.000  H
  H1346    1.0000 0.18319  0.06831  0.84700  Biso   1.000  H
  H1347    1.0000 0.28821  0.09867  0.67651  Biso   1.000  H
  H1348    1.0000 0.32470  0.08660  0.73121  Biso   1.000  H
  C1188    1.0000 0.27639  0.13041  0.70219  Biso   1.000  C
  H1349    1.0000 0.34491  0.07491  0.71409  Biso   1.000  H
  H1350    1.0000 0.31681  0.06831  0.65300  Biso   1.000  H
  H1351    1.0000 0.27309  0.15458  0.77468  Biso   1.000  H
  H1352    1.0000 0.22691  0.15458  0.72528  Biso   1.000  H
  H1353    1.0000 0.19730  0.16231  0.79898  Biso   1.000  H
  H1354    1.0000 0.25092  0.13521  0.82850  Biso   1.000  H
  H1355    1.0000 0.30270  0.16231  0.70098  Biso   1.000  H
  H1356    1.0000 0.24908  0.13521  0.67150  Biso   1.000  H
