data_image0
_cell_length_a       23.579
_cell_length_b       23.579
_cell_length_c       23.579
_cell_angle_alpha    90
_cell_angle_beta     90
_cell_angle_gamma    90

_symmetry_space_group_name_H-M    "P 1"
_symmetry_int_tables_number       1

loop_
  _symmetry_equiv_pos_as_xyz
  'x, y, z'

loop_
  _atom_site_label
  _atom_site_occupancy
  _atom_site_fract_x
  _atom_site_fract_y
  _atom_site_fract_z
  _atom_site_thermal_displace_type
  _atom_site_B_iso_or_equiv
  _atom_site_type_symbol
  C1       1.0000 0.76259  0.75983  0.63141  Biso   1.000  C
  C2       1.0000 0.78481  0.71106  0.59311  Biso   1.000  C
  C3       1.0000 0.71521  0.78896  0.59311  Biso   1.000  C
  H1       1.0000 0.75393  0.75521  0.66703  Biso   1.000  H
  H2       1.0000 0.74613  0.74482  0.66703  Biso   1.000  H
  H3       1.0000 0.79321  0.78693  0.64082  Biso   1.000  H
  C4       1.0000 0.78006  0.73824  0.53450  Biso   1.000  C
  H4       1.0000 0.82391  0.69952  0.60333  Biso   1.000  H
  H5       1.0000 0.76203  0.67590  0.59540  Biso   1.000  H
  C5       1.0000 0.73744  0.74023  0.63141  Biso   1.000  C
  H6       1.0000 0.82302  0.71771  0.60931  Biso   1.000  H
  H7       1.0000 0.77832  0.66962  0.59070  Biso   1.000  H
  C6       1.0000 0.71996  0.76178  0.53450  Biso   1.000  C
  H8       1.0000 0.67611  0.80050  0.60333  Biso   1.000  H
  H9       1.0000 0.73803  0.82412  0.59540  Biso   1.000  H
  H10      1.0000 0.67700  0.78231  0.60931  Biso   1.000  H
  H11      1.0000 0.72170  0.83040  0.59070  Biso   1.000  H
  N1       1.0000 0.78930  0.69914  0.48802  Biso   1.000  N
  H12      1.0000 0.80771  0.77030  0.53162  Biso   1.000  H
  H13      1.0000 0.70682  0.71313  0.64082  Biso   1.000  H
  N2       1.0000 0.71076  0.80088  0.48802  Biso   1.000  N
  H14      1.0000 0.69231  0.72972  0.53162  Biso   1.000  H
  C7       1.0000 0.82756  0.71237  0.45256  Biso   1.000  C
  C8       1.0000 0.67246  0.78765  0.45256  Biso   1.000  C
  C9       1.0000 0.84088  0.67785  0.40248  Biso   1.000  C
  H15      1.0000 0.84864  0.74621  0.45871  Biso   1.000  H
  H16      1.0000 0.65143  0.75381  0.45871  Biso   1.000  H
  C10      1.0000 0.65915  0.82217  0.40248  Biso   1.000  C
  C11      1.0000 0.80818  0.63065  0.38763  Biso   1.000  C
  C12      1.0000 0.88761  0.69184  0.36940  Biso   1.000  C
  C13      1.0000 0.61241  0.80818  0.36940  Biso   1.000  C
  C14      1.0000 0.69184  0.86938  0.38763  Biso   1.000  C
  C15      1.0000 0.82217  0.59752  0.34085  Biso   1.000  C
  H17      1.0000 0.77590  0.62102  0.40981  Biso   1.000  H
  C16      1.0000 0.90250  0.65915  0.32215  Biso   1.000  C
  H18      1.0000 0.90984  0.72412  0.37902  Biso   1.000  H
  C17      1.0000 0.59752  0.84088  0.32215  Biso   1.000  C
  H19      1.0000 0.59023  0.77590  0.37902  Biso   1.000  H
  C18      1.0000 0.67785  0.90250  0.34085  Biso   1.000  C
  H20      1.0000 0.72412  0.87900  0.40981  Biso   1.000  H
  C19      1.0000 0.78765  0.54744  0.32754  Biso   1.000  C
  C20      1.0000 0.86938  0.61241  0.30816  Biso   1.000  C
  C21      1.0000 0.95258  0.67246  0.28763  Biso   1.000  C
  C22      1.0000 0.54744  0.82756  0.28763  Biso   1.000  C
  C23      1.0000 0.63065  0.88761  0.30816  Biso   1.000  C
  C24      1.0000 0.71237  0.95258  0.32754  Biso   1.000  C
  N3       1.0000 0.80088  0.51202  0.28928  Biso   1.000  N
  H21      1.0000 0.75381  0.54133  0.34862  Biso   1.000  H
  H22      1.0000 0.87900  0.59023  0.27592  Biso   1.000  H
  N4       1.0000 0.98800  0.71076  0.30086  Biso   1.000  N
  H23      1.0000 0.95873  0.65143  0.25379  Biso   1.000  H
  N5       1.0000 0.51202  0.78930  0.30086  Biso   1.000  N
  H24      1.0000 0.54133  0.84864  0.25379  Biso   1.000  H
  H25      1.0000 0.62102  0.90984  0.27592  Biso   1.000  H
  N6       1.0000 0.69914  0.98800  0.28928  Biso   1.000  N
  H26      1.0000 0.74621  0.95873  0.34862  Biso   1.000  H
  C25      1.0000 0.76178  0.46554  0.28008  Biso   1.000  C
  C26      1.0000 0.03448  0.71996  0.26176  Biso   1.000  C
  C27      1.0000 0.46554  0.78006  0.26176  Biso   1.000  C
  C28      1.0000 0.73824  0.03448  0.28008  Biso   1.000  C
  C29      1.0000 0.73824  0.46554  0.21994  Biso   1.000  C
  C30      1.0000 0.78896  0.40689  0.28483  Biso   1.000  C
  H27      1.0000 0.72972  0.46843  0.30769  Biso   1.000  H
  C31      1.0000 0.03448  0.78006  0.23826  Biso   1.000  C
  H28      1.0000 0.03164  0.69231  0.22970  Biso   1.000  H
  C32      1.0000 0.09313  0.71521  0.28899  Biso   1.000  C
  C33      1.0000 0.46554  0.71996  0.23826  Biso   1.000  C
  H29      1.0000 0.46843  0.80771  0.22970  Biso   1.000  H
  C34      1.0000 0.40689  0.78481  0.28899  Biso   1.000  C
  C35      1.0000 0.76178  0.03448  0.21994  Biso   1.000  C
  H30      1.0000 0.77030  0.03164  0.30769  Biso   1.000  H
  C36      1.0000 0.71106  0.09313  0.28483  Biso   1.000  C
  C37      1.0000 0.71106  0.40689  0.21519  Biso   1.000  C
  N7       1.0000 0.69914  0.51202  0.21074  Biso   1.000  N
  H31      1.0000 0.77030  0.46843  0.19229  Biso   1.000  H
  C38      1.0000 0.74023  0.36863  0.26256  Biso   1.000  C
  C39      1.0000 0.75983  0.36863  0.23746  Biso   1.000  C
  H32      1.0000 0.80050  0.39671  0.32389  Biso   1.000  H
  H33      1.0000 0.82412  0.40460  0.26201  Biso   1.000  H
  H34      1.0000 0.78231  0.39073  0.32300  Biso   1.000  H
  H35      1.0000 0.83040  0.40930  0.27830  Biso   1.000  H
  N8       1.0000 0.98800  0.78930  0.19912  Biso   1.000  N
  H36      1.0000 0.03164  0.80771  0.27033  Biso   1.000  H
  C40      1.0000 0.09313  0.78481  0.21104  Biso   1.000  C
  H37      1.0000 0.10327  0.67611  0.30052  Biso   1.000  H
  H38      1.0000 0.09538  0.73803  0.32410  Biso   1.000  H
  C41      1.0000 0.13139  0.76259  0.25981  Biso   1.000  C
  C42      1.0000 0.13139  0.73744  0.24021  Biso   1.000  C
  H39      1.0000 0.10929  0.67700  0.28229  Biso   1.000  H
  H40      1.0000 0.09072  0.72170  0.33042  Biso   1.000  H
  N9       1.0000 0.51202  0.71076  0.19912  Biso   1.000  N
  H41      1.0000 0.46843  0.69231  0.27033  Biso   1.000  H
  C43      1.0000 0.40689  0.71521  0.21104  Biso   1.000  C
  C44      1.0000 0.36863  0.73744  0.25981  Biso   1.000  C
  C45      1.0000 0.36863  0.76259  0.24021  Biso   1.000  C
  H42      1.0000 0.39671  0.82391  0.30052  Biso   1.000  H
  H43      1.0000 0.40460  0.76203  0.32410  Biso   1.000  H
  H44      1.0000 0.39073  0.82302  0.28229  Biso   1.000  H
  H45      1.0000 0.40930  0.77832  0.33042  Biso   1.000  H
  N10      1.0000 0.80088  0.98800  0.21074  Biso   1.000  N
  H46      1.0000 0.72972  0.03164  0.19229  Biso   1.000  H
  C46      1.0000 0.78896  0.09313  0.21519  Biso   1.000  C
  H47      1.0000 0.69952  0.10327  0.32389  Biso   1.000  H
  H48      1.0000 0.67590  0.09538  0.26201  Biso   1.000  H
  C47      1.0000 0.74023  0.13139  0.23746  Biso   1.000  C
  C48      1.0000 0.75983  0.13139  0.26256  Biso   1.000  C
  H49      1.0000 0.71771  0.10929  0.32300  Biso   1.000  H
  H50      1.0000 0.66962  0.09072  0.27830  Biso   1.000  H
  H51      1.0000 0.69952  0.39671  0.17609  Biso   1.000  H
  H52      1.0000 0.67590  0.40460  0.23801  Biso   1.000  H
  H53      1.0000 0.71771  0.39073  0.17702  Biso   1.000  H
  H54      1.0000 0.66962  0.40930  0.22172  Biso   1.000  H
  C49      1.0000 0.71237  0.54744  0.17248  Biso   1.000  C
  H55      1.0000 0.71313  0.35922  0.29323  Biso   1.000  H
  H56      1.0000 0.75521  0.33301  0.24611  Biso   1.000  H
  H57      1.0000 0.74482  0.33301  0.25391  Biso   1.000  H
  H58      1.0000 0.78693  0.35922  0.20679  Biso   1.000  H
  C50      1.0000 0.95258  0.82756  0.21235  Biso   1.000  C
  H59      1.0000 0.10327  0.82391  0.19950  Biso   1.000  H
  H60      1.0000 0.09538  0.76203  0.17592  Biso   1.000  H
  H61      1.0000 0.10929  0.82302  0.21769  Biso   1.000  H
  H62      1.0000 0.09072  0.77832  0.16960  Biso   1.000  H
  H63      1.0000 0.16701  0.75393  0.25518  Biso   1.000  H
  H64      1.0000 0.14080  0.79321  0.28691  Biso   1.000  H
  H65      1.0000 0.16701  0.74613  0.24479  Biso   1.000  H
  H66      1.0000 0.14080  0.70682  0.21311  Biso   1.000  H
  C51      1.0000 0.54744  0.67246  0.21235  Biso   1.000  C
  H67      1.0000 0.39671  0.67611  0.19950  Biso   1.000  H
  H68      1.0000 0.40460  0.73803  0.17592  Biso   1.000  H
  H69      1.0000 0.39073  0.67700  0.21769  Biso   1.000  H
  H70      1.0000 0.40930  0.72170  0.16960  Biso   1.000  H
  H71      1.0000 0.35922  0.70682  0.28691  Biso   1.000  H
  H72      1.0000 0.33301  0.75393  0.24479  Biso   1.000  H
  H73      1.0000 0.33301  0.74613  0.25518  Biso   1.000  H
  H74      1.0000 0.35922  0.79321  0.21311  Biso   1.000  H
  C52      1.0000 0.78765  0.95258  0.17248  Biso   1.000  C
  H75      1.0000 0.80050  0.10327  0.17609  Biso   1.000  H
  H76      1.0000 0.82412  0.09538  0.23801  Biso   1.000  H
  H77      1.0000 0.78231  0.10929  0.17702  Biso   1.000  H
  H78      1.0000 0.83040  0.09072  0.22172  Biso   1.000  H
  H79      1.0000 0.71313  0.14080  0.20679  Biso   1.000  H
  H80      1.0000 0.75521  0.16701  0.25391  Biso   1.000  H
  H81      1.0000 0.74482  0.16701  0.24611  Biso   1.000  H
  H82      1.0000 0.78693  0.14080  0.29323  Biso   1.000  H
  H83      1.0000 0.74621  0.54133  0.15141  Biso   1.000  H
  C53      1.0000 0.67785  0.59752  0.15917  Biso   1.000  C
  H84      1.0000 0.95873  0.84864  0.24619  Biso   1.000  H
  C54      1.0000 0.90250  0.84088  0.17783  Biso   1.000  C
  C55      1.0000 0.59752  0.65915  0.17783  Biso   1.000  C
  H85      1.0000 0.54133  0.65143  0.24619  Biso   1.000  H
  C56      1.0000 0.82217  0.90250  0.15917  Biso   1.000  C
  H86      1.0000 0.75381  0.95873  0.15141  Biso   1.000  H
  C57      1.0000 0.63065  0.61241  0.19182  Biso   1.000  C
  C58      1.0000 0.69184  0.63065  0.11239  Biso   1.000  C
  C59      1.0000 0.88761  0.80818  0.13062  Biso   1.000  C
  C60      1.0000 0.86938  0.88761  0.19182  Biso   1.000  C
  C61      1.0000 0.61241  0.69184  0.13062  Biso   1.000  C
  C62      1.0000 0.80818  0.86938  0.11239  Biso   1.000  C
  H87      1.0000 0.62102  0.59023  0.22410  Biso   1.000  H
  C63      1.0000 0.65915  0.67785  0.09754  Biso   1.000  C
  H88      1.0000 0.72412  0.62102  0.09021  Biso   1.000  H
  C64      1.0000 0.84088  0.82217  0.09754  Biso   1.000  C
  H89      1.0000 0.90984  0.77590  0.12100  Biso   1.000  H
  H90      1.0000 0.87900  0.90984  0.22410  Biso   1.000  H
  H91      1.0000 0.59023  0.72412  0.12100  Biso   1.000  H
  H92      1.0000 0.77590  0.87900  0.09021  Biso   1.000  H
  C65      1.0000 0.67246  0.71237  0.04742  Biso   1.000  C
  C66      1.0000 0.82756  0.78765  0.04742  Biso   1.000  C
  N11      1.0000 0.71076  0.69914  0.01200  Biso   1.000  N
  H93      1.0000 0.65143  0.74621  0.04131  Biso   1.000  H
  N12      1.0000 0.78930  0.80088  0.01200  Biso   1.000  N
  H94      1.0000 0.84864  0.75381  0.04131  Biso   1.000  H
  C67      1.0000 0.71996  0.73824  0.96556  Biso   1.000  C
  C68      1.0000 0.78006  0.76178  0.96556  Biso   1.000  C
  H95      1.0000 0.69231  0.77030  0.96840  Biso   1.000  H
  C69      1.0000 0.71521  0.71106  0.90691  Biso   1.000  C
  H96      1.0000 0.80771  0.72972  0.96840  Biso   1.000  H
  C70      1.0000 0.78481  0.78896  0.90691  Biso   1.000  C
  H97      1.0000 0.67611  0.69952  0.89673  Biso   1.000  H
  H98      1.0000 0.73803  0.67590  0.90466  Biso   1.000  H
  C71      1.0000 0.73744  0.75983  0.86865  Biso   1.000  C
  C72      1.0000 0.76259  0.74023  0.86865  Biso   1.000  C
  H99      1.0000 0.67700  0.71771  0.89071  Biso   1.000  H
  H100     1.0000 0.72170  0.66962  0.90933  Biso   1.000  H
  H101     1.0000 0.82391  0.80050  0.89673  Biso   1.000  H
  H102     1.0000 0.76203  0.82412  0.90466  Biso   1.000  H
  H103     1.0000 0.82302  0.78231  0.89071  Biso   1.000  H
  H104     1.0000 0.77832  0.83040  0.90933  Biso   1.000  H
  H105     1.0000 0.70682  0.78693  0.85924  Biso   1.000  H
  H106     1.0000 0.75393  0.74482  0.83303  Biso   1.000  H
  H107     1.0000 0.74613  0.75521  0.83303  Biso   1.000  H
  H108     1.0000 0.79321  0.71313  0.85924  Biso   1.000  H
  C73      1.0000 0.75983  0.63141  0.76259  Biso   1.000  C
  C74      1.0000 0.78896  0.59311  0.71521  Biso   1.000  C
  C75      1.0000 0.71106  0.59311  0.78481  Biso   1.000  C
  H109     1.0000 0.75521  0.66703  0.75393  Biso   1.000  H
  H110     1.0000 0.74482  0.66703  0.74613  Biso   1.000  H
  H111     1.0000 0.78693  0.64082  0.79321  Biso   1.000  H
  C76      1.0000 0.76178  0.53450  0.71996  Biso   1.000  C
  H112     1.0000 0.80050  0.60333  0.67611  Biso   1.000  H
  H113     1.0000 0.82412  0.59540  0.73803  Biso   1.000  H
  C77      1.0000 0.74023  0.63141  0.73744  Biso   1.000  C
  H114     1.0000 0.78231  0.60931  0.67700  Biso   1.000  H
  H115     1.0000 0.83040  0.59070  0.72170  Biso   1.000  H
  C78      1.0000 0.73824  0.53450  0.78006  Biso   1.000  C
  H116     1.0000 0.69952  0.60333  0.82391  Biso   1.000  H
  H117     1.0000 0.67590  0.59540  0.76203  Biso   1.000  H
  H118     1.0000 0.71771  0.60931  0.82302  Biso   1.000  H
  H119     1.0000 0.66962  0.59070  0.77832  Biso   1.000  H
  N13      1.0000 0.80088  0.48802  0.71076  Biso   1.000  N
  H120     1.0000 0.72972  0.53162  0.69231  Biso   1.000  H
  H121     1.0000 0.71313  0.64082  0.70682  Biso   1.000  H
  N14      1.0000 0.69914  0.48802  0.78930  Biso   1.000  N
  H122     1.0000 0.77030  0.53162  0.80771  Biso   1.000  H
  C79      1.0000 0.78765  0.45256  0.67246  Biso   1.000  C
  C80      1.0000 0.71237  0.45256  0.82756  Biso   1.000  C
  C81      1.0000 0.82217  0.40248  0.65915  Biso   1.000  C
  H123     1.0000 0.75381  0.45871  0.65143  Biso   1.000  H
  H124     1.0000 0.74621  0.45871  0.84864  Biso   1.000  H
  C82      1.0000 0.67785  0.40248  0.84088  Biso   1.000  C
  C83      1.0000 0.80818  0.36940  0.61241  Biso   1.000  C
  C84      1.0000 0.86938  0.38763  0.69184  Biso   1.000  C
  C85      1.0000 0.63065  0.38763  0.80818  Biso   1.000  C
  C86      1.0000 0.69184  0.36940  0.88761  Biso   1.000  C
  C87      1.0000 0.84088  0.32215  0.59752  Biso   1.000  C
  H125     1.0000 0.77590  0.37902  0.59023  Biso   1.000  H
  C88      1.0000 0.90250  0.34085  0.67785  Biso   1.000  C
  H126     1.0000 0.87900  0.40981  0.72412  Biso   1.000  H
  C89      1.0000 0.59752  0.34085  0.82217  Biso   1.000  C
  H127     1.0000 0.62102  0.40981  0.77590  Biso   1.000  H
  C90      1.0000 0.65915  0.32215  0.90250  Biso   1.000  C
  H128     1.0000 0.72412  0.37902  0.90984  Biso   1.000  H
  C91      1.0000 0.82756  0.28763  0.54744  Biso   1.000  C
  C92      1.0000 0.88761  0.30816  0.63065  Biso   1.000  C
  C93      1.0000 0.95258  0.32754  0.71237  Biso   1.000  C
  C94      1.0000 0.54744  0.32754  0.78765  Biso   1.000  C
  C95      1.0000 0.61241  0.30816  0.86938  Biso   1.000  C
  C96      1.0000 0.67246  0.28763  0.95258  Biso   1.000  C
  N15      1.0000 0.78930  0.30086  0.51202  Biso   1.000  N
  H129     1.0000 0.84864  0.25379  0.54133  Biso   1.000  H
  H130     1.0000 0.90984  0.27592  0.62102  Biso   1.000  H
  N16      1.0000 0.98800  0.28928  0.69914  Biso   1.000  N
  H131     1.0000 0.95873  0.34862  0.74621  Biso   1.000  H
  N17      1.0000 0.51202  0.28928  0.80088  Biso   1.000  N
  H132     1.0000 0.54133  0.34862  0.75381  Biso   1.000  H
  H133     1.0000 0.59023  0.27592  0.87900  Biso   1.000  H
  N18      1.0000 0.71076  0.30086  0.98800  Biso   1.000  N
  H134     1.0000 0.65143  0.25379  0.95873  Biso   1.000  H
  C97      1.0000 0.78006  0.26176  0.46554  Biso   1.000  C
  C98      1.0000 0.03448  0.28008  0.73824  Biso   1.000  C
  C99      1.0000 0.46554  0.28008  0.76178  Biso   1.000  C
  C100     1.0000 0.71996  0.26176  0.03448  Biso   1.000  C
  C101     1.0000 0.71996  0.23826  0.46554  Biso   1.000  C
  C102     1.0000 0.78481  0.28899  0.40689  Biso   1.000  C
  H135     1.0000 0.80771  0.22970  0.46843  Biso   1.000  H
  C103     1.0000 0.03448  0.21994  0.76178  Biso   1.000  C
  H136     1.0000 0.03164  0.30769  0.77030  Biso   1.000  H
  C104     1.0000 0.09313  0.28483  0.71106  Biso   1.000  C
  C105     1.0000 0.46554  0.21994  0.73824  Biso   1.000  C
  H137     1.0000 0.46843  0.30769  0.72972  Biso   1.000  H
  C106     1.0000 0.40689  0.28483  0.78896  Biso   1.000  C
  C107     1.0000 0.78006  0.23826  0.03448  Biso   1.000  C
  H138     1.0000 0.69231  0.22970  0.03164  Biso   1.000  H
  C108     1.0000 0.71521  0.28899  0.09313  Biso   1.000  C
  C109     1.0000 0.71521  0.21104  0.40689  Biso   1.000  C
  N19      1.0000 0.71076  0.19912  0.51202  Biso   1.000  N
  H139     1.0000 0.69231  0.27033  0.46843  Biso   1.000  H
  C110     1.0000 0.73744  0.25981  0.36863  Biso   1.000  C
  C111     1.0000 0.76259  0.24021  0.36863  Biso   1.000  C
  H140     1.0000 0.82391  0.30052  0.39671  Biso   1.000  H
  H141     1.0000 0.76203  0.32410  0.40460  Biso   1.000  H
  H142     1.0000 0.82302  0.28229  0.39073  Biso   1.000  H
  H143     1.0000 0.77832  0.33042  0.40930  Biso   1.000  H
  N20      1.0000 0.98800  0.21074  0.80088  Biso   1.000  N
  H144     1.0000 0.03164  0.19229  0.72972  Biso   1.000  H
  C112     1.0000 0.09313  0.21519  0.78896  Biso   1.000  C
  H145     1.0000 0.10327  0.32389  0.69952  Biso   1.000  H
  H146     1.0000 0.09538  0.26201  0.67590  Biso   1.000  H
  C113     1.0000 0.13139  0.23746  0.74023  Biso   1.000  C
  C114     1.0000 0.13139  0.26256  0.75983  Biso   1.000  C
  H147     1.0000 0.10929  0.32300  0.71771  Biso   1.000  H
  H148     1.0000 0.09072  0.27830  0.66962  Biso   1.000  H
  N21      1.0000 0.51202  0.21074  0.69914  Biso   1.000  N
  H149     1.0000 0.46843  0.19229  0.77030  Biso   1.000  H
  C115     1.0000 0.40689  0.21519  0.71106  Biso   1.000  C
  C116     1.0000 0.36863  0.26256  0.74023  Biso   1.000  C
  C117     1.0000 0.36863  0.23746  0.75983  Biso   1.000  C
  H150     1.0000 0.39671  0.32389  0.80050  Biso   1.000  H
  H151     1.0000 0.40460  0.26201  0.82412  Biso   1.000  H
  H152     1.0000 0.39073  0.32300  0.78231  Biso   1.000  H
  H153     1.0000 0.40930  0.27830  0.83040  Biso   1.000  H
  N22      1.0000 0.78930  0.19912  0.98800  Biso   1.000  N
  H154     1.0000 0.80771  0.27033  0.03164  Biso   1.000  H
  C118     1.0000 0.78481  0.21104  0.09313  Biso   1.000  C
  H155     1.0000 0.67611  0.30052  0.10327  Biso   1.000  H
  H156     1.0000 0.73803  0.32410  0.09538  Biso   1.000  H
  C119     1.0000 0.73744  0.24021  0.13139  Biso   1.000  C
  C120     1.0000 0.76259  0.25981  0.13139  Biso   1.000  C
  H157     1.0000 0.67700  0.28229  0.10929  Biso   1.000  H
  H158     1.0000 0.72170  0.33042  0.09072  Biso   1.000  H
  H159     1.0000 0.67611  0.19950  0.39671  Biso   1.000  H
  H160     1.0000 0.73803  0.17592  0.40460  Biso   1.000  H
  H161     1.0000 0.67700  0.21769  0.39073  Biso   1.000  H
  H162     1.0000 0.72170  0.16960  0.40930  Biso   1.000  H
  C121     1.0000 0.67246  0.21235  0.54744  Biso   1.000  C
  H163     1.0000 0.70682  0.28691  0.35922  Biso   1.000  H
  H164     1.0000 0.75393  0.24479  0.33301  Biso   1.000  H
  H165     1.0000 0.74613  0.25518  0.33301  Biso   1.000  H
  H166     1.0000 0.79321  0.21311  0.35922  Biso   1.000  H
  C122     1.0000 0.95258  0.17248  0.78765  Biso   1.000  C
  H167     1.0000 0.10327  0.17609  0.80050  Biso   1.000  H
  H168     1.0000 0.09538  0.23801  0.82412  Biso   1.000  H
  H169     1.0000 0.10929  0.17702  0.78231  Biso   1.000  H
  H170     1.0000 0.09072  0.22172  0.83040  Biso   1.000  H
  H171     1.0000 0.16701  0.24611  0.74482  Biso   1.000  H
  H172     1.0000 0.14080  0.20679  0.71313  Biso   1.000  H
  H173     1.0000 0.16701  0.25391  0.75521  Biso   1.000  H
  H174     1.0000 0.14080  0.29323  0.78693  Biso   1.000  H
  C123     1.0000 0.54744  0.17248  0.71237  Biso   1.000  C
  H175     1.0000 0.39671  0.17609  0.69952  Biso   1.000  H
  H176     1.0000 0.40460  0.23801  0.67590  Biso   1.000  H
  H177     1.0000 0.39073  0.17702  0.71771  Biso   1.000  H
  H178     1.0000 0.40930  0.22172  0.66962  Biso   1.000  H
  H179     1.0000 0.35922  0.29323  0.71313  Biso   1.000  H
  H180     1.0000 0.33301  0.24611  0.75521  Biso   1.000  H
  H181     1.0000 0.33301  0.25391  0.74482  Biso   1.000  H
  H182     1.0000 0.35922  0.20679  0.78693  Biso   1.000  H
  C124     1.0000 0.82756  0.21235  0.95258  Biso   1.000  C
  H183     1.0000 0.82391  0.19950  0.10327  Biso   1.000  H
  H184     1.0000 0.76203  0.17592  0.09538  Biso   1.000  H
  H185     1.0000 0.82302  0.21769  0.10929  Biso   1.000  H
  H186     1.0000 0.77832  0.16960  0.09072  Biso   1.000  H
  H187     1.0000 0.70682  0.21311  0.14080  Biso   1.000  H
  H188     1.0000 0.75393  0.25518  0.16701  Biso   1.000  H
  H189     1.0000 0.74613  0.24479  0.16701  Biso   1.000  H
  H190     1.0000 0.79321  0.28691  0.14080  Biso   1.000  H
  H191     1.0000 0.65143  0.24619  0.54133  Biso   1.000  H
  C125     1.0000 0.65915  0.17783  0.59752  Biso   1.000  C
  H192     1.0000 0.95873  0.15141  0.75381  Biso   1.000  H
  C126     1.0000 0.90250  0.15917  0.82217  Biso   1.000  C
  C127     1.0000 0.59752  0.15917  0.67785  Biso   1.000  C
  H193     1.0000 0.54133  0.15141  0.74621  Biso   1.000  H
  C128     1.0000 0.84088  0.17783  0.90250  Biso   1.000  C
  H194     1.0000 0.84864  0.24619  0.95873  Biso   1.000  H
  C129     1.0000 0.61241  0.19182  0.63065  Biso   1.000  C
  C130     1.0000 0.69184  0.13062  0.61241  Biso   1.000  C
  C131     1.0000 0.86938  0.11239  0.80818  Biso   1.000  C
  C132     1.0000 0.88761  0.19182  0.86938  Biso   1.000  C
  C133     1.0000 0.63065  0.11239  0.69184  Biso   1.000  C
  C134     1.0000 0.80818  0.13062  0.88761  Biso   1.000  C
  H195     1.0000 0.59023  0.22410  0.62102  Biso   1.000  H
  C135     1.0000 0.67785  0.09754  0.65915  Biso   1.000  C
  H196     1.0000 0.72412  0.12100  0.59023  Biso   1.000  H
  C136     1.0000 0.82217  0.09754  0.84088  Biso   1.000  C
  H197     1.0000 0.87900  0.09021  0.77590  Biso   1.000  H
  H198     1.0000 0.90984  0.22410  0.87900  Biso   1.000  H
  H199     1.0000 0.62102  0.09021  0.72412  Biso   1.000  H
  H200     1.0000 0.77590  0.12100  0.90984  Biso   1.000  H
  C137     1.0000 0.71237  0.04742  0.67246  Biso   1.000  C
  C138     1.0000 0.78765  0.04742  0.82756  Biso   1.000  C
  N23      1.0000 0.69914  0.01200  0.71076  Biso   1.000  N
  H201     1.0000 0.74621  0.04131  0.65143  Biso   1.000  H
  N24      1.0000 0.80088  0.01200  0.78930  Biso   1.000  N
  H202     1.0000 0.75381  0.04131  0.84864  Biso   1.000  H
  C139     1.0000 0.73824  0.96556  0.71996  Biso   1.000  C
  C140     1.0000 0.76178  0.96556  0.78006  Biso   1.000  C
  H203     1.0000 0.77030  0.96840  0.69231  Biso   1.000  H
  C141     1.0000 0.71106  0.90691  0.71521  Biso   1.000  C
  H204     1.0000 0.72972  0.96840  0.80771  Biso   1.000  H
  C142     1.0000 0.78896  0.90691  0.78481  Biso   1.000  C
  H205     1.0000 0.69952  0.89673  0.67611  Biso   1.000  H
  H206     1.0000 0.67590  0.90466  0.73803  Biso   1.000  H
  C143     1.0000 0.74023  0.86865  0.76259  Biso   1.000  C
  C144     1.0000 0.75983  0.86865  0.73744  Biso   1.000  C
  H207     1.0000 0.71771  0.89071  0.67700  Biso   1.000  H
  H208     1.0000 0.66962  0.90933  0.72170  Biso   1.000  H
  H209     1.0000 0.80050  0.89673  0.82391  Biso   1.000  H
  H210     1.0000 0.82412  0.90466  0.76203  Biso   1.000  H
  H211     1.0000 0.78231  0.89071  0.82302  Biso   1.000  H
  H212     1.0000 0.83040  0.90933  0.77832  Biso   1.000  H
  H213     1.0000 0.71313  0.85924  0.79321  Biso   1.000  H
  H214     1.0000 0.75521  0.83303  0.74613  Biso   1.000  H
  H215     1.0000 0.74482  0.83303  0.75393  Biso   1.000  H
  H216     1.0000 0.78693  0.85924  0.70682  Biso   1.000  H
  C145     1.0000 0.63141  0.76259  0.75983  Biso   1.000  C
  C146     1.0000 0.59311  0.78481  0.71106  Biso   1.000  C
  C147     1.0000 0.59311  0.71521  0.78896  Biso   1.000  C
  H217     1.0000 0.66703  0.75393  0.75521  Biso   1.000  H
  H218     1.0000 0.66703  0.74613  0.74482  Biso   1.000  H
  H219     1.0000 0.64082  0.79321  0.78693  Biso   1.000  H
  C148     1.0000 0.53450  0.78006  0.73824  Biso   1.000  C
  C149     1.0000 0.63141  0.73744  0.74023  Biso   1.000  C
  H220     1.0000 0.60333  0.82391  0.69952  Biso   1.000  H
  H221     1.0000 0.59540  0.76203  0.67590  Biso   1.000  H
  H222     1.0000 0.60931  0.82302  0.71771  Biso   1.000  H
  H223     1.0000 0.59070  0.77832  0.66962  Biso   1.000  H
  C150     1.0000 0.53450  0.71996  0.76178  Biso   1.000  C
  H224     1.0000 0.60333  0.67611  0.80050  Biso   1.000  H
  H225     1.0000 0.59540  0.73803  0.82412  Biso   1.000  H
  H226     1.0000 0.60931  0.67700  0.78231  Biso   1.000  H
  H227     1.0000 0.59070  0.72170  0.83040  Biso   1.000  H
  N25      1.0000 0.48802  0.78930  0.69914  Biso   1.000  N
  H228     1.0000 0.53162  0.80771  0.77030  Biso   1.000  H
  H229     1.0000 0.64082  0.70682  0.71313  Biso   1.000  H
  N26      1.0000 0.48802  0.71076  0.80088  Biso   1.000  N
  H230     1.0000 0.53162  0.69231  0.72972  Biso   1.000  H
  C151     1.0000 0.45256  0.82756  0.71237  Biso   1.000  C
  C152     1.0000 0.45256  0.67246  0.78765  Biso   1.000  C
  C153     1.0000 0.40248  0.84088  0.67785  Biso   1.000  C
  H231     1.0000 0.45871  0.84864  0.74621  Biso   1.000  H
  H232     1.0000 0.45871  0.65143  0.75381  Biso   1.000  H
  C154     1.0000 0.40248  0.65915  0.82217  Biso   1.000  C
  C155     1.0000 0.38763  0.80818  0.63065  Biso   1.000  C
  C156     1.0000 0.36940  0.88761  0.69184  Biso   1.000  C
  C157     1.0000 0.36940  0.61241  0.80818  Biso   1.000  C
  C158     1.0000 0.38763  0.69184  0.86938  Biso   1.000  C
  C159     1.0000 0.34085  0.82217  0.59752  Biso   1.000  C
  H233     1.0000 0.40981  0.77590  0.62102  Biso   1.000  H
  C160     1.0000 0.32215  0.90250  0.65915  Biso   1.000  C
  H234     1.0000 0.37902  0.90984  0.72412  Biso   1.000  H
  C161     1.0000 0.32215  0.59752  0.84088  Biso   1.000  C
  H235     1.0000 0.37902  0.59023  0.77590  Biso   1.000  H
  C162     1.0000 0.34085  0.67785  0.90250  Biso   1.000  C
  H236     1.0000 0.40981  0.72412  0.87900  Biso   1.000  H
  C163     1.0000 0.32754  0.78765  0.54744  Biso   1.000  C
  C164     1.0000 0.30816  0.86938  0.61241  Biso   1.000  C
  C165     1.0000 0.28763  0.95258  0.67246  Biso   1.000  C
  C166     1.0000 0.28763  0.54744  0.82756  Biso   1.000  C
  C167     1.0000 0.30816  0.63065  0.88761  Biso   1.000  C
  C168     1.0000 0.32754  0.71237  0.95258  Biso   1.000  C
  N27      1.0000 0.28928  0.80088  0.51202  Biso   1.000  N
  H237     1.0000 0.34862  0.75381  0.54133  Biso   1.000  H
  H238     1.0000 0.27592  0.87900  0.59023  Biso   1.000  H
  N28      1.0000 0.30086  0.98800  0.71076  Biso   1.000  N
  H239     1.0000 0.25379  0.95873  0.65143  Biso   1.000  H
  N29      1.0000 0.30086  0.51202  0.78930  Biso   1.000  N
  H240     1.0000 0.25379  0.54133  0.84864  Biso   1.000  H
  H241     1.0000 0.27592  0.62102  0.90984  Biso   1.000  H
  N30      1.0000 0.28928  0.69914  0.98800  Biso   1.000  N
  H242     1.0000 0.34862  0.74621  0.95873  Biso   1.000  H
  C169     1.0000 0.28008  0.76178  0.46554  Biso   1.000  C
  C170     1.0000 0.26176  0.03448  0.71996  Biso   1.000  C
  C171     1.0000 0.26176  0.46554  0.78006  Biso   1.000  C
  C172     1.0000 0.28008  0.73824  0.03448  Biso   1.000  C
  C173     1.0000 0.21994  0.73824  0.46554  Biso   1.000  C
  C174     1.0000 0.28483  0.78896  0.40689  Biso   1.000  C
  H243     1.0000 0.30769  0.72972  0.46843  Biso   1.000  H
  C175     1.0000 0.23826  0.03448  0.78006  Biso   1.000  C
  H244     1.0000 0.22970  0.03164  0.69231  Biso   1.000  H
  C176     1.0000 0.28899  0.09313  0.71521  Biso   1.000  C
  C177     1.0000 0.23826  0.46554  0.71996  Biso   1.000  C
  H245     1.0000 0.22970  0.46843  0.80771  Biso   1.000  H
  C178     1.0000 0.28899  0.40689  0.78481  Biso   1.000  C
  C179     1.0000 0.21994  0.76178  0.03448  Biso   1.000  C
  H246     1.0000 0.30769  0.77030  0.03164  Biso   1.000  H
  C180     1.0000 0.28483  0.71106  0.09313  Biso   1.000  C
  C181     1.0000 0.21519  0.71106  0.40689  Biso   1.000  C
  N31      1.0000 0.21074  0.69914  0.51202  Biso   1.000  N
  H247     1.0000 0.19229  0.77030  0.46843  Biso   1.000  H
  C182     1.0000 0.26256  0.74023  0.36863  Biso   1.000  C
  C183     1.0000 0.23746  0.75983  0.36863  Biso   1.000  C
  H248     1.0000 0.32389  0.80050  0.39671  Biso   1.000  H
  H249     1.0000 0.26201  0.82412  0.40460  Biso   1.000  H
  H250     1.0000 0.32300  0.78231  0.39073  Biso   1.000  H
  H251     1.0000 0.27830  0.83040  0.40930  Biso   1.000  H
  N32      1.0000 0.19912  0.98800  0.78930  Biso   1.000  N
  H252     1.0000 0.27033  0.03164  0.80771  Biso   1.000  H
  C184     1.0000 0.21104  0.09313  0.78481  Biso   1.000  C
  H253     1.0000 0.30052  0.10327  0.67611  Biso   1.000  H
  H254     1.0000 0.32410  0.09538  0.73803  Biso   1.000  H
  C185     1.0000 0.25981  0.13139  0.76259  Biso   1.000  C
  C186     1.0000 0.24021  0.13139  0.73744  Biso   1.000  C
  H255     1.0000 0.28229  0.10929  0.67700  Biso   1.000  H
  H256     1.0000 0.33042  0.09072  0.72170  Biso   1.000  H
  N33      1.0000 0.19912  0.51202  0.71076  Biso   1.000  N
  H257     1.0000 0.27033  0.46843  0.69231  Biso   1.000  H
  C187     1.0000 0.21104  0.40689  0.71521  Biso   1.000  C
  C188     1.0000 0.25981  0.36863  0.73744  Biso   1.000  C
  C189     1.0000 0.24021  0.36863  0.76259  Biso   1.000  C
  H258     1.0000 0.30052  0.39671  0.82391  Biso   1.000  H
  H259     1.0000 0.32410  0.40460  0.76203  Biso   1.000  H
  H260     1.0000 0.28229  0.39073  0.82302  Biso   1.000  H
  H261     1.0000 0.33042  0.40930  0.77832  Biso   1.000  H
  N34      1.0000 0.21074  0.80088  0.98800  Biso   1.000  N
  H262     1.0000 0.19229  0.72972  0.03164  Biso   1.000  H
  C190     1.0000 0.21519  0.78896  0.09313  Biso   1.000  C
  H263     1.0000 0.32389  0.69952  0.10327  Biso   1.000  H
  H264     1.0000 0.26201  0.67590  0.09538  Biso   1.000  H
  C191     1.0000 0.26256  0.75983  0.13139  Biso   1.000  C
  C192     1.0000 0.23746  0.74023  0.13139  Biso   1.000  C
  H265     1.0000 0.32300  0.71771  0.10929  Biso   1.000  H
  H266     1.0000 0.27830  0.66962  0.09072  Biso   1.000  H
  H267     1.0000 0.17609  0.69952  0.39671  Biso   1.000  H
  H268     1.0000 0.23801  0.67590  0.40460  Biso   1.000  H
  H269     1.0000 0.17702  0.71771  0.39073  Biso   1.000  H
  H270     1.0000 0.22172  0.66962  0.40930  Biso   1.000  H
  C193     1.0000 0.17248  0.71237  0.54744  Biso   1.000  C
  H271     1.0000 0.29323  0.71313  0.35922  Biso   1.000  H
  H272     1.0000 0.24611  0.75521  0.33301  Biso   1.000  H
  H273     1.0000 0.25391  0.74482  0.33301  Biso   1.000  H
  H274     1.0000 0.20679  0.78693  0.35922  Biso   1.000  H
  C194     1.0000 0.21235  0.95258  0.82756  Biso   1.000  C
  H275     1.0000 0.19950  0.10327  0.82391  Biso   1.000  H
  H276     1.0000 0.17592  0.09538  0.76203  Biso   1.000  H
  H277     1.0000 0.21769  0.10929  0.82302  Biso   1.000  H
  H278     1.0000 0.16960  0.09072  0.77832  Biso   1.000  H
  H279     1.0000 0.28691  0.14080  0.79321  Biso   1.000  H
  H280     1.0000 0.24479  0.16701  0.74613  Biso   1.000  H
  H281     1.0000 0.25518  0.16701  0.75393  Biso   1.000  H
  H282     1.0000 0.21311  0.14080  0.70682  Biso   1.000  H
  C195     1.0000 0.21235  0.54744  0.67246  Biso   1.000  C
  H283     1.0000 0.19950  0.39671  0.67611  Biso   1.000  H
  H284     1.0000 0.17592  0.40460  0.73803  Biso   1.000  H
  H285     1.0000 0.21769  0.39073  0.67700  Biso   1.000  H
  H286     1.0000 0.16960  0.40930  0.72170  Biso   1.000  H
  H287     1.0000 0.28691  0.35922  0.70682  Biso   1.000  H
  H288     1.0000 0.24479  0.33301  0.75393  Biso   1.000  H
  H289     1.0000 0.25518  0.33301  0.74613  Biso   1.000  H
  H290     1.0000 0.21311  0.35922  0.79321  Biso   1.000  H
  C196     1.0000 0.17248  0.78765  0.95258  Biso   1.000  C
  H291     1.0000 0.17609  0.80050  0.10327  Biso   1.000  H
  H292     1.0000 0.23801  0.82412  0.09538  Biso   1.000  H
  H293     1.0000 0.17702  0.78231  0.10929  Biso   1.000  H
  H294     1.0000 0.22172  0.83040  0.09072  Biso   1.000  H
  H295     1.0000 0.29323  0.78693  0.14080  Biso   1.000  H
  H296     1.0000 0.24611  0.74482  0.16701  Biso   1.000  H
  H297     1.0000 0.25391  0.75521  0.16701  Biso   1.000  H
  H298     1.0000 0.20679  0.71313  0.14080  Biso   1.000  H
  H299     1.0000 0.15141  0.74621  0.54133  Biso   1.000  H
  C197     1.0000 0.15917  0.67785  0.59752  Biso   1.000  C
  H300     1.0000 0.24619  0.95873  0.84864  Biso   1.000  H
  C198     1.0000 0.17783  0.90250  0.84088  Biso   1.000  C
  C199     1.0000 0.17783  0.59752  0.65915  Biso   1.000  C
  H301     1.0000 0.24619  0.54133  0.65143  Biso   1.000  H
  C200     1.0000 0.15917  0.82217  0.90250  Biso   1.000  C
  H302     1.0000 0.15141  0.75381  0.95873  Biso   1.000  H
  C201     1.0000 0.19182  0.63065  0.61241  Biso   1.000  C
  C202     1.0000 0.11239  0.69184  0.63065  Biso   1.000  C
  C203     1.0000 0.13062  0.88761  0.80818  Biso   1.000  C
  C204     1.0000 0.19182  0.86938  0.88761  Biso   1.000  C
  C205     1.0000 0.13062  0.61241  0.69184  Biso   1.000  C
  C206     1.0000 0.11239  0.80818  0.86938  Biso   1.000  C
  H303     1.0000 0.22410  0.62102  0.59023  Biso   1.000  H
  C207     1.0000 0.09754  0.65915  0.67785  Biso   1.000  C
  H304     1.0000 0.09021  0.72412  0.62102  Biso   1.000  H
  C208     1.0000 0.09754  0.84088  0.82217  Biso   1.000  C
  H305     1.0000 0.12100  0.90984  0.77590  Biso   1.000  H
  H306     1.0000 0.22410  0.87900  0.90984  Biso   1.000  H
  H307     1.0000 0.12100  0.59023  0.72412  Biso   1.000  H
  H308     1.0000 0.09021  0.77590  0.87900  Biso   1.000  H
  C209     1.0000 0.04742  0.67246  0.71237  Biso   1.000  C
  C210     1.0000 0.04742  0.82756  0.78765  Biso   1.000  C
  N35      1.0000 0.01200  0.71076  0.69914  Biso   1.000  N
  H309     1.0000 0.04131  0.65143  0.74621  Biso   1.000  H
  N36      1.0000 0.01200  0.78930  0.80088  Biso   1.000  N
  H310     1.0000 0.04131  0.84864  0.75381  Biso   1.000  H
  C211     1.0000 0.96556  0.71996  0.73824  Biso   1.000  C
  C212     1.0000 0.96556  0.78006  0.76178  Biso   1.000  C
  H311     1.0000 0.96840  0.69231  0.77030  Biso   1.000  H
  C213     1.0000 0.90691  0.71521  0.71106  Biso   1.000  C
  H312     1.0000 0.96840  0.80771  0.72972  Biso   1.000  H
  C214     1.0000 0.90691  0.78481  0.78896  Biso   1.000  C
  H313     1.0000 0.89673  0.67611  0.69952  Biso   1.000  H
  H314     1.0000 0.90466  0.73803  0.67590  Biso   1.000  H
  C215     1.0000 0.86865  0.76259  0.74023  Biso   1.000  C
  C216     1.0000 0.86865  0.73744  0.75983  Biso   1.000  C
  H315     1.0000 0.89071  0.67700  0.71771  Biso   1.000  H
  H316     1.0000 0.90933  0.72170  0.66962  Biso   1.000  H
  H317     1.0000 0.89673  0.82391  0.80050  Biso   1.000  H
  H318     1.0000 0.90466  0.76203  0.82412  Biso   1.000  H
  H319     1.0000 0.89071  0.82302  0.78231  Biso   1.000  H
  H320     1.0000 0.90933  0.77832  0.83040  Biso   1.000  H
  H321     1.0000 0.83303  0.75393  0.74482  Biso   1.000  H
  H322     1.0000 0.85924  0.79321  0.71313  Biso   1.000  H
  H323     1.0000 0.83303  0.74613  0.75521  Biso   1.000  H
  H324     1.0000 0.85924  0.70682  0.78693  Biso   1.000  H
  C217     1.0000 0.93011  0.64973  0.91276  Biso   1.000  C
  C218     1.0000 0.94521  0.61741  0.86611  Biso   1.000  C
  C219     1.0000 0.94521  0.61741  0.86607  Biso   1.000  C
  C220     1.0000 0.94516  0.61741  0.86611  Biso   1.000  C
  C221     1.0000 0.94516  0.61741  0.86607  Biso   1.000  C
  C222     1.0000 0.96268  0.70147  0.92578  Biso   1.000  C
  C223     1.0000 0.88265  0.63395  0.94521  Biso   1.000  C
  C224     1.0000 0.88265  0.63395  0.94516  Biso   1.000  C
  C225     1.0000 0.96264  0.70147  0.92578  Biso   1.000  C
  C226     1.0000 0.88261  0.63395  0.94521  Biso   1.000  C
  C227     1.0000 0.88261  0.63395  0.94516  Biso   1.000  C
  C228     1.0000 0.91280  0.56987  0.85033  Biso   1.000  C
  C229     1.0000 0.91280  0.56987  0.85029  Biso   1.000  C
  C230     1.0000 0.91276  0.56987  0.85033  Biso   1.000  C
  C231     1.0000 0.91276  0.56987  0.85029  Biso   1.000  C
  H325     1.0000 0.97765  0.62751  0.84452  Biso   1.000  H
  C232     1.0000 0.93011  0.64973  0.91280  Biso   1.000  C
  H326     1.0000 0.97761  0.62751  0.84452  Biso   1.000  H
  C233     1.0000 0.93015  0.64973  0.91280  Biso   1.000  C
  C234     1.0000 0.93015  0.64973  0.91276  Biso   1.000  C
  N37      1.0000 0.94932  0.73544  0.96535  Biso   1.000  N
  H327     1.0000 0.99512  0.70983  0.90356  Biso   1.000  H
  N38      1.0000 0.94932  0.73544  0.96531  Biso   1.000  N
  H328     1.0000 0.99512  0.70983  0.90352  Biso   1.000  H
  N39      1.0000 0.94936  0.73544  0.96535  Biso   1.000  N
  N40      1.0000 0.94936  0.73544  0.96531  Biso   1.000  N
  C235     1.0000 0.85033  0.58726  0.93011  Biso   1.000  C
  C236     1.0000 0.85033  0.58726  0.93015  Biso   1.000  C
  C237     1.0000 0.85029  0.58726  0.93011  Biso   1.000  C
  C238     1.0000 0.85029  0.58726  0.93015  Biso   1.000  C
  H329     1.0000 0.87256  0.65550  0.97765  Biso   1.000  H
  H330     1.0000 0.87256  0.65550  0.97761  Biso   1.000  H
  H331     1.0000 0.87251  0.65550  0.97765  Biso   1.000  H
  H332     1.0000 0.87251  0.65550  0.97761  Biso   1.000  H
  C239     1.0000 0.92578  0.53738  0.79855  Biso   1.000  C
  C240     1.0000 0.86611  0.55486  0.88265  Biso   1.000  C
  C241     1.0000 0.86611  0.55486  0.88261  Biso   1.000  C
  C242     1.0000 0.86607  0.55486  0.88265  Biso   1.000  C
  C243     1.0000 0.86607  0.55486  0.88261  Biso   1.000  C
  C244     1.0000 0.98533  0.78528  0.97150  Biso   1.000  C
  C245     1.0000 0.98533  0.78528  0.97154  Biso   1.000  C
  C246     1.0000 0.98528  0.78528  0.97150  Biso   1.000  C
  C247     1.0000 0.98528  0.78528  0.97154  Biso   1.000  C
  C248     1.0000 0.79855  0.57424  0.96268  Biso   1.000  C
  C249     1.0000 0.79855  0.57424  0.96264  Biso   1.000  C
  N41      1.0000 0.96535  0.55066  0.76462  Biso   1.000  N
  N42      1.0000 0.96531  0.55066  0.76462  Biso   1.000  N
  H333     1.0000 0.90356  0.50490  0.79024  Biso   1.000  H
  H334     1.0000 0.90352  0.50490  0.79024  Biso   1.000  H
  H335     1.0000 0.84452  0.52241  0.87256  Biso   1.000  H
  H336     1.0000 0.84452  0.52241  0.87251  Biso   1.000  H
  H337     1.0000 0.96192  0.81992  0.96794  Biso   1.000  H
  H338     1.0000 0.01400  0.78570  0.94092  Biso   1.000  H
  H339     1.0000 0.01404  0.78570  0.94092  Biso   1.000  H
  C250     1.0000 0.01472  0.78528  0.02850  Biso   1.000  C
  C251     1.0000 0.01472  0.78528  0.02846  Biso   1.000  C
  N43      1.0000 0.76462  0.53471  0.94932  Biso   1.000  N
  H340     1.0000 0.79024  0.59651  0.99512  Biso   1.000  H
  N44      1.0000 0.76462  0.53471  0.94936  Biso   1.000  N
  C252     1.0000 0.97150  0.51474  0.71475  Biso   1.000  C
  C253     1.0000 0.97150  0.51474  0.71479  Biso   1.000  C
  C254     1.0000 0.97154  0.51474  0.71479  Biso   1.000  C
  C255     1.0000 0.97154  0.51474  0.71475  Biso   1.000  C
  H341     1.0000 0.98605  0.78570  0.05912  Biso   1.000  H
  H342     1.0000 0.98605  0.78570  0.05908  Biso   1.000  H
  H343     1.0000 0.98600  0.78570  0.05912  Biso   1.000  H
  H344     1.0000 0.98600  0.78570  0.05908  Biso   1.000  H
  N45      1.0000 0.05068  0.73544  0.03469  Biso   1.000  N
  H345     1.0000 0.03808  0.81992  0.03210  Biso   1.000  H
  N46      1.0000 0.05068  0.73544  0.03473  Biso   1.000  N
  H346     1.0000 0.03808  0.81992  0.03206  Biso   1.000  H
  H347     1.0000 0.03813  0.81992  0.03210  Biso   1.000  H
  H348     1.0000 0.03813  0.81992  0.03206  Biso   1.000  H
  C256     1.0000 0.71479  0.52848  0.98533  Biso   1.000  C
  C257     1.0000 0.71479  0.52848  0.98528  Biso   1.000  C
  C258     1.0000 0.71475  0.52848  0.98533  Biso   1.000  C
  C259     1.0000 0.71475  0.52848  0.98528  Biso   1.000  C
  H349     1.0000 0.96794  0.53811  0.68014  Biso   1.000  H
  H350     1.0000 0.94092  0.48603  0.71432  Biso   1.000  H
  H351     1.0000 0.96794  0.53811  0.68010  Biso   1.000  H
  C260     1.0000 0.02850  0.48530  0.71479  Biso   1.000  C
  C261     1.0000 0.02850  0.48530  0.71475  Biso   1.000  C
  C262     1.0000 0.02846  0.48530  0.71479  Biso   1.000  C
  C263     1.0000 0.02846  0.48530  0.71475  Biso   1.000  C
  C264     1.0000 0.03736  0.70147  0.07422  Biso   1.000  C
  H352     1.0000 0.68014  0.53213  0.96192  Biso   1.000  H
  H353     1.0000 0.68010  0.53213  0.96192  Biso   1.000  H
  C265     1.0000 0.71479  0.47152  0.01472  Biso   1.000  C
  H354     1.0000 0.71432  0.55910  0.01400  Biso   1.000  H
  H355     1.0000 0.71432  0.55910  0.01404  Biso   1.000  H
  C266     1.0000 0.71475  0.47152  0.01472  Biso   1.000  C
  N47      1.0000 0.03469  0.44934  0.76462  Biso   1.000  N
  H356     1.0000 0.03210  0.46189  0.68014  Biso   1.000  H
  H357     1.0000 0.05912  0.51402  0.71432  Biso   1.000  H
  H358     1.0000 0.03210  0.46189  0.68010  Biso   1.000  H
  N48      1.0000 0.03473  0.44934  0.76462  Biso   1.000  N
  H359     1.0000 0.03206  0.46189  0.68014  Biso   1.000  H
  H360     1.0000 0.05908  0.51402  0.71432  Biso   1.000  H
  H361     1.0000 0.03206  0.46189  0.68010  Biso   1.000  H
  H362     1.0000 0.00492  0.70983  0.09648  Biso   1.000  H
  C267     1.0000 0.06989  0.64973  0.08724  Biso   1.000  C
  H363     1.0000 0.00492  0.70983  0.09653  Biso   1.000  H
  H364     1.0000 0.71432  0.44090  0.98605  Biso   1.000  H
  H365     1.0000 0.71432  0.44090  0.98600  Biso   1.000  H
  N49      1.0000 0.76462  0.46529  0.05068  Biso   1.000  N
  H366     1.0000 0.68014  0.46792  0.03808  Biso   1.000  H
  H367     1.0000 0.68014  0.46792  0.03813  Biso   1.000  H
  H368     1.0000 0.68010  0.46792  0.03808  Biso   1.000  H
  H369     1.0000 0.68010  0.46792  0.03813  Biso   1.000  H
  C268     1.0000 0.07422  0.46266  0.79855  Biso   1.000  C
  C269     1.0000 0.11739  0.63395  0.05484  Biso   1.000  C
  C270     1.0000 0.05484  0.61741  0.13393  Biso   1.000  C
  C271     1.0000 0.05484  0.61741  0.13398  Biso   1.000  C
  C272     1.0000 0.79855  0.42576  0.03736  Biso   1.000  C
  H370     1.0000 0.09648  0.49510  0.79024  Biso   1.000  H
  C273     1.0000 0.08724  0.43013  0.85033  Biso   1.000  C
  C274     1.0000 0.08724  0.43013  0.85029  Biso   1.000  C
  H371     1.0000 0.09653  0.49510  0.79024  Biso   1.000  H
  C275     1.0000 0.14971  0.58726  0.06989  Biso   1.000  C
  C276     1.0000 0.14975  0.58726  0.06989  Biso   1.000  C
  H372     1.0000 0.12749  0.65550  0.02239  Biso   1.000  H
  H373     1.0000 0.12749  0.65550  0.02244  Biso   1.000  H
  C277     1.0000 0.08724  0.56987  0.14971  Biso   1.000  C
  H374     1.0000 0.02239  0.62751  0.15552  Biso   1.000  H
  C278     1.0000 0.08724  0.56987  0.14975  Biso   1.000  C
  H375     1.0000 0.02239  0.62751  0.15548  Biso   1.000  H
  H376     1.0000 0.02244  0.62751  0.15552  Biso   1.000  H
  H377     1.0000 0.02244  0.62751  0.15548  Biso   1.000  H
  H378     1.0000 0.79024  0.40349  0.00492  Biso   1.000  H
  C279     1.0000 0.85033  0.41278  0.06989  Biso   1.000  C
  C280     1.0000 0.85029  0.41278  0.06989  Biso   1.000  C
  C281     1.0000 0.05484  0.38259  0.86611  Biso   1.000  C
  C282     1.0000 0.13393  0.44514  0.88265  Biso   1.000  C
  C283     1.0000 0.05484  0.38259  0.86607  Biso   1.000  C
  C284     1.0000 0.13393  0.44514  0.88261  Biso   1.000  C
  C285     1.0000 0.13398  0.44514  0.88265  Biso   1.000  C
  C286     1.0000 0.13398  0.44514  0.88261  Biso   1.000  C
  C287     1.0000 0.20145  0.57424  0.03736  Biso   1.000  C
  C288     1.0000 0.13393  0.55486  0.11739  Biso   1.000  C
  C289     1.0000 0.13398  0.55486  0.11739  Biso   1.000  C
  C290     1.0000 0.07422  0.53738  0.20145  Biso   1.000  C
  C291     1.0000 0.88265  0.36605  0.05484  Biso   1.000  C
  C292     1.0000 0.86611  0.44514  0.11739  Biso   1.000  C
  C293     1.0000 0.88261  0.36605  0.05484  Biso   1.000  C
  C294     1.0000 0.86607  0.44514  0.11739  Biso   1.000  C
  C295     1.0000 0.06989  0.35027  0.91280  Biso   1.000  C
  H379     1.0000 0.02239  0.37249  0.84452  Biso   1.000  H
  C296     1.0000 0.06989  0.35027  0.91276  Biso   1.000  C
  H380     1.0000 0.02244  0.37249  0.84452  Biso   1.000  H
  C297     1.0000 0.14971  0.41278  0.93011  Biso   1.000  C
  H381     1.0000 0.15552  0.47763  0.87256  Biso   1.000  H
  C298     1.0000 0.14971  0.41278  0.93015  Biso   1.000  C
  H382     1.0000 0.15552  0.47763  0.87251  Biso   1.000  H
  C299     1.0000 0.14975  0.41278  0.93011  Biso   1.000  C
  H383     1.0000 0.15548  0.47763  0.87256  Biso   1.000  H
  C300     1.0000 0.14975  0.41278  0.93015  Biso   1.000  C
  H384     1.0000 0.15548  0.47763  0.87251  Biso   1.000  H
  N50      1.0000 0.23542  0.53471  0.05068  Biso   1.000  N
  H385     1.0000 0.20981  0.59651  0.00492  Biso   1.000  H
  H386     1.0000 0.20976  0.59651  0.00492  Biso   1.000  H
  H387     1.0000 0.15552  0.52241  0.12749  Biso   1.000  H
  H388     1.0000 0.15548  0.52241  0.12749  Biso   1.000  H
  N51      1.0000 0.03469  0.55066  0.23542  Biso   1.000  N
  H389     1.0000 0.09648  0.50490  0.20981  Biso   1.000  H
  H390     1.0000 0.09648  0.50490  0.20976  Biso   1.000  H
  N52      1.0000 0.03473  0.55066  0.23542  Biso   1.000  N
  H391     1.0000 0.09653  0.50490  0.20981  Biso   1.000  H
  H392     1.0000 0.09653  0.50490  0.20976  Biso   1.000  H
  C301     1.0000 0.93011  0.35027  0.08724  Biso   1.000  C
  C302     1.0000 0.93015  0.35027  0.08724  Biso   1.000  C
  H393     1.0000 0.87256  0.34450  0.02239  Biso   1.000  H
  H394     1.0000 0.87256  0.34450  0.02244  Biso   1.000  H
  H395     1.0000 0.87251  0.34450  0.02239  Biso   1.000  H
  H396     1.0000 0.87251  0.34450  0.02244  Biso   1.000  H
  C303     1.0000 0.91280  0.43013  0.14971  Biso   1.000  C
  H397     1.0000 0.84452  0.47763  0.12749  Biso   1.000  H
  C304     1.0000 0.91280  0.43013  0.14975  Biso   1.000  C
  C305     1.0000 0.91276  0.43013  0.14971  Biso   1.000  C
  C306     1.0000 0.91276  0.43013  0.14975  Biso   1.000  C
  C307     1.0000 0.03736  0.29853  0.92578  Biso   1.000  C
  C308     1.0000 0.11739  0.36605  0.94521  Biso   1.000  C
  C309     1.0000 0.11739  0.36605  0.94516  Biso   1.000  C
  C310     1.0000 0.20145  0.42576  0.96268  Biso   1.000  C
  C311     1.0000 0.20145  0.42576  0.96264  Biso   1.000  C
  C312     1.0000 0.28525  0.52848  0.01472  Biso   1.000  C
  C313     1.0000 0.28530  0.52848  0.01472  Biso   1.000  C
  C314     1.0000 0.02850  0.51474  0.28525  Biso   1.000  C
  C315     1.0000 0.02850  0.51474  0.28530  Biso   1.000  C
  C316     1.0000 0.02846  0.51474  0.28525  Biso   1.000  C
  C317     1.0000 0.02846  0.51474  0.28530  Biso   1.000  C
  C318     1.0000 0.96268  0.29853  0.07422  Biso   1.000  C
  C319     1.0000 0.96264  0.29853  0.07422  Biso   1.000  C
  C320     1.0000 0.94521  0.38259  0.13393  Biso   1.000  C
  C321     1.0000 0.94521  0.38259  0.13398  Biso   1.000  C
  C322     1.0000 0.94516  0.38259  0.13393  Biso   1.000  C
  C323     1.0000 0.94516  0.38259  0.13398  Biso   1.000  C
  C324     1.0000 0.92578  0.46266  0.20145  Biso   1.000  C
  N53      1.0000 0.05068  0.26460  0.96535  Biso   1.000  N
  H398     1.0000 0.00492  0.29022  0.90356  Biso   1.000  H
  N54      1.0000 0.05068  0.26460  0.96531  Biso   1.000  N
  H399     1.0000 0.00492  0.29022  0.90352  Biso   1.000  H
  H400     1.0000 0.12749  0.34450  0.97765  Biso   1.000  H
  H401     1.0000 0.12749  0.34450  0.97761  Biso   1.000  H
  N55      1.0000 0.23542  0.46529  0.94932  Biso   1.000  N
  H402     1.0000 0.20981  0.40349  0.99512  Biso   1.000  H
  N56      1.0000 0.23542  0.46529  0.94936  Biso   1.000  N
  H403     1.0000 0.20976  0.40349  0.99512  Biso   1.000  H
  C325     1.0000 0.28525  0.47152  0.98533  Biso   1.000  C
  C326     1.0000 0.28525  0.47152  0.98528  Biso   1.000  C
  C327     1.0000 0.28530  0.47152  0.98533  Biso   1.000  C
  C328     1.0000 0.28530  0.47152  0.98528  Biso   1.000  C
  H404     1.0000 0.28572  0.55910  0.98605  Biso   1.000  H
  H405     1.0000 0.28572  0.55910  0.98600  Biso   1.000  H
  H406     1.0000 0.31990  0.53213  0.03808  Biso   1.000  H
  H407     1.0000 0.31990  0.53213  0.03813  Biso   1.000  H
  C329     1.0000 0.97150  0.48530  0.28525  Biso   1.000  C
  C330     1.0000 0.97150  0.48530  0.28530  Biso   1.000  C
  C331     1.0000 0.97154  0.48530  0.28525  Biso   1.000  C
  C332     1.0000 0.97154  0.48530  0.28530  Biso   1.000  C
  H408     1.0000 0.03210  0.53811  0.31990  Biso   1.000  H
  H409     1.0000 0.05912  0.48603  0.28572  Biso   1.000  H
  H410     1.0000 0.03206  0.53811  0.31990  Biso   1.000  H
  H411     1.0000 0.05908  0.48603  0.28572  Biso   1.000  H
  N57      1.0000 0.94932  0.26460  0.03469  Biso   1.000  N
  N58      1.0000 0.94932  0.26460  0.03473  Biso   1.000  N
  N59      1.0000 0.94936  0.26460  0.03469  Biso   1.000  N
  N60      1.0000 0.94936  0.26460  0.03473  Biso   1.000  N
  H412     1.0000 0.99512  0.29022  0.09648  Biso   1.000  H
  H413     1.0000 0.99512  0.29022  0.09653  Biso   1.000  H
  H414     1.0000 0.97765  0.37249  0.15552  Biso   1.000  H
  H415     1.0000 0.97765  0.37249  0.15548  Biso   1.000  H
  H416     1.0000 0.97761  0.37249  0.15552  Biso   1.000  H
  H417     1.0000 0.97761  0.37249  0.15548  Biso   1.000  H
  N61      1.0000 0.96535  0.44934  0.23542  Biso   1.000  N
  H418     1.0000 0.90356  0.49510  0.20981  Biso   1.000  H
  H419     1.0000 0.90356  0.49510  0.20976  Biso   1.000  H
  N62      1.0000 0.96531  0.44934  0.23542  Biso   1.000  N
  H420     1.0000 0.90352  0.49510  0.20981  Biso   1.000  H
  H421     1.0000 0.90352  0.49510  0.20976  Biso   1.000  H
  C333     1.0000 0.01472  0.21477  0.97150  Biso   1.000  C
  C334     1.0000 0.01472  0.21477  0.97154  Biso   1.000  C
  H422     1.0000 0.31990  0.46792  0.96192  Biso   1.000  H
  H423     1.0000 0.28572  0.44090  0.01400  Biso   1.000  H
  H424     1.0000 0.28572  0.44090  0.01404  Biso   1.000  H
  H425     1.0000 0.96794  0.46189  0.31990  Biso   1.000  H
  H426     1.0000 0.94092  0.51402  0.28572  Biso   1.000  H
  C335     1.0000 0.98533  0.21477  0.02850  Biso   1.000  C
  C336     1.0000 0.98533  0.21477  0.02846  Biso   1.000  C
  C337     1.0000 0.98528  0.21477  0.02850  Biso   1.000  C
  C338     1.0000 0.98528  0.21477  0.02846  Biso   1.000  C
  H427     1.0000 0.98605  0.21430  0.94092  Biso   1.000  H
  H428     1.0000 0.98600  0.21430  0.94092  Biso   1.000  H
  H429     1.0000 0.03808  0.18012  0.96794  Biso   1.000  H
  H430     1.0000 0.03813  0.18012  0.96794  Biso   1.000  H
  H431     1.0000 0.96192  0.18012  0.03210  Biso   1.000  H
  H432     1.0000 0.96192  0.18012  0.03206  Biso   1.000  H
  H433     1.0000 0.01400  0.21430  0.05912  Biso   1.000  H
  H434     1.0000 0.01400  0.21430  0.05908  Biso   1.000  H
  H435     1.0000 0.01404  0.21430  0.05912  Biso   1.000  H
  H436     1.0000 0.01404  0.21430  0.05908  Biso   1.000  H
  C339     1.0000 0.93011  0.64973  0.91276  Biso   1.000  C
  C340     1.0000 0.88265  0.63395  0.94521  Biso   1.000  C
  C341     1.0000 0.88265  0.63395  0.94516  Biso   1.000  C
  C342     1.0000 0.88261  0.63395  0.94521  Biso   1.000  C
  C343     1.0000 0.88261  0.63395  0.94516  Biso   1.000  C
  C344     1.0000 0.94521  0.61741  0.86611  Biso   1.000  C
  C345     1.0000 0.94521  0.61741  0.86607  Biso   1.000  C
  C346     1.0000 0.94516  0.61741  0.86611  Biso   1.000  C
  C347     1.0000 0.94516  0.61741  0.86607  Biso   1.000  C
  C348     1.0000 0.96268  0.70147  0.92578  Biso   1.000  C
  C349     1.0000 0.96264  0.70147  0.92578  Biso   1.000  C
  C350     1.0000 0.85033  0.58726  0.93011  Biso   1.000  C
  C351     1.0000 0.85033  0.58726  0.93015  Biso   1.000  C
  C352     1.0000 0.85029  0.58726  0.93011  Biso   1.000  C
  C353     1.0000 0.85029  0.58726  0.93015  Biso   1.000  C
  C354     1.0000 0.93011  0.64973  0.91280  Biso   1.000  C
  H437     1.0000 0.87256  0.65550  0.97765  Biso   1.000  H
  H438     1.0000 0.87256  0.65550  0.97761  Biso   1.000  H
  C355     1.0000 0.93015  0.64973  0.91280  Biso   1.000  C
  H439     1.0000 0.87251  0.65550  0.97765  Biso   1.000  H
  C356     1.0000 0.93015  0.64973  0.91276  Biso   1.000  C
  H440     1.0000 0.87251  0.65550  0.97761  Biso   1.000  H
  C357     1.0000 0.91280  0.56987  0.85033  Biso   1.000  C
  C358     1.0000 0.91280  0.56987  0.85029  Biso   1.000  C
  C359     1.0000 0.91276  0.56987  0.85033  Biso   1.000  C
  C360     1.0000 0.91276  0.56987  0.85029  Biso   1.000  C
  H441     1.0000 0.97765  0.62751  0.84452  Biso   1.000  H
  H442     1.0000 0.97761  0.62751  0.84452  Biso   1.000  H
  H443     1.0000 0.99512  0.70983  0.90356  Biso   1.000  H
  H444     1.0000 0.99512  0.70983  0.90352  Biso   1.000  H
  N63      1.0000 0.94932  0.73544  0.96535  Biso   1.000  N
  N64      1.0000 0.94932  0.73544  0.96531  Biso   1.000  N
  N65      1.0000 0.94936  0.73544  0.96535  Biso   1.000  N
  N66      1.0000 0.94936  0.73544  0.96531  Biso   1.000  N
  C361     1.0000 0.79855  0.57424  0.96268  Biso   1.000  C
  C362     1.0000 0.79855  0.57424  0.96264  Biso   1.000  C
  C363     1.0000 0.86611  0.55486  0.88265  Biso   1.000  C
  C364     1.0000 0.86611  0.55486  0.88261  Biso   1.000  C
  C365     1.0000 0.86607  0.55486  0.88265  Biso   1.000  C
  C366     1.0000 0.86607  0.55486  0.88261  Biso   1.000  C
  C367     1.0000 0.92578  0.53738  0.79855  Biso   1.000  C
  C368     1.0000 0.98533  0.78528  0.97150  Biso   1.000  C
  C369     1.0000 0.98533  0.78528  0.97154  Biso   1.000  C
  C370     1.0000 0.98528  0.78528  0.97150  Biso   1.000  C
  C371     1.0000 0.98528  0.78528  0.97154  Biso   1.000  C
  N67      1.0000 0.76462  0.53471  0.94932  Biso   1.000  N
  H445     1.0000 0.79024  0.59651  0.99512  Biso   1.000  H
  N68      1.0000 0.76462  0.53471  0.94936  Biso   1.000  N
  H446     1.0000 0.84452  0.52241  0.87256  Biso   1.000  H
  H447     1.0000 0.84452  0.52241  0.87251  Biso   1.000  H
  N69      1.0000 0.96535  0.55066  0.76462  Biso   1.000  N
  H448     1.0000 0.90356  0.50490  0.79024  Biso   1.000  H
  N70      1.0000 0.96531  0.55066  0.76462  Biso   1.000  N
  H449     1.0000 0.90352  0.50490  0.79024  Biso   1.000  H
  H450     1.0000 0.96192  0.81992  0.96794  Biso   1.000  H
  H451     1.0000 0.01400  0.78570  0.94092  Biso   1.000  H
  H452     1.0000 0.01404  0.78570  0.94092  Biso   1.000  H
  C372     1.0000 0.01472  0.78528  0.02850  Biso   1.000  C
  C373     1.0000 0.01472  0.78528  0.02846  Biso   1.000  C
  C374     1.0000 0.71479  0.52848  0.98533  Biso   1.000  C
  C375     1.0000 0.71479  0.52848  0.98528  Biso   1.000  C
  C376     1.0000 0.71475  0.52848  0.98533  Biso   1.000  C
  C377     1.0000 0.71475  0.52848  0.98528  Biso   1.000  C
  C378     1.0000 0.97150  0.51474  0.71479  Biso   1.000  C
  C379     1.0000 0.97150  0.51474  0.71475  Biso   1.000  C
  C380     1.0000 0.97154  0.51474  0.71479  Biso   1.000  C
  C381     1.0000 0.97154  0.51474  0.71475  Biso   1.000  C
  H453     1.0000 0.98605  0.78570  0.05912  Biso   1.000  H
  H454     1.0000 0.98605  0.78570  0.05908  Biso   1.000  H
  H455     1.0000 0.98600  0.78570  0.05912  Biso   1.000  H
  H456     1.0000 0.98600  0.78570  0.05908  Biso   1.000  H
  N71      1.0000 0.05068  0.73544  0.03469  Biso   1.000  N
  H457     1.0000 0.03808  0.81992  0.03210  Biso   1.000  H
  N72      1.0000 0.05068  0.73544  0.03473  Biso   1.000  N
  H458     1.0000 0.03808  0.81992  0.03206  Biso   1.000  H
  H459     1.0000 0.03813  0.81992  0.03210  Biso   1.000  H
  H460     1.0000 0.03813  0.81992  0.03206  Biso   1.000  H
  H461     1.0000 0.68014  0.53213  0.96192  Biso   1.000  H
  H462     1.0000 0.68010  0.53213  0.96192  Biso   1.000  H
  C382     1.0000 0.71479  0.47152  0.01472  Biso   1.000  C
  H463     1.0000 0.71432  0.55910  0.01400  Biso   1.000  H
  H464     1.0000 0.71432  0.55910  0.01404  Biso   1.000  H
  C383     1.0000 0.71475  0.47152  0.01472  Biso   1.000  C
  H465     1.0000 0.94092  0.48603  0.71432  Biso   1.000  H
  H466     1.0000 0.96794  0.53811  0.68014  Biso   1.000  H
  H467     1.0000 0.96794  0.53811  0.68010  Biso   1.000  H
  C384     1.0000 0.02850  0.48530  0.71479  Biso   1.000  C
  C385     1.0000 0.02850  0.48530  0.71475  Biso   1.000  C
  C386     1.0000 0.02846  0.48530  0.71479  Biso   1.000  C
  C387     1.0000 0.02846  0.48530  0.71475  Biso   1.000  C
  C388     1.0000 0.03736  0.70147  0.07422  Biso   1.000  C
  H468     1.0000 0.71432  0.44090  0.98605  Biso   1.000  H
  H469     1.0000 0.71432  0.44090  0.98600  Biso   1.000  H
  N73      1.0000 0.76462  0.46529  0.05068  Biso   1.000  N
  H470     1.0000 0.68014  0.46792  0.03808  Biso   1.000  H
  H471     1.0000 0.68014  0.46792  0.03813  Biso   1.000  H
  H472     1.0000 0.68010  0.46792  0.03808  Biso   1.000  H
  H473     1.0000 0.68010  0.46792  0.03813  Biso   1.000  H
  N74      1.0000 0.03469  0.44934  0.76462  Biso   1.000  N
  H474     1.0000 0.03210  0.46189  0.68014  Biso   1.000  H
  H475     1.0000 0.05912  0.51402  0.71432  Biso   1.000  H
  H476     1.0000 0.03210  0.46189  0.68010  Biso   1.000  H
  N75      1.0000 0.03473  0.44934  0.76462  Biso   1.000  N
  H477     1.0000 0.03206  0.46189  0.68014  Biso   1.000  H
  H478     1.0000 0.05908  0.51402  0.71432  Biso   1.000  H
  H479     1.0000 0.03206  0.46189  0.68010  Biso   1.000  H
  H480     1.0000 0.00492  0.70983  0.09648  Biso   1.000  H
  C389     1.0000 0.06989  0.64973  0.08724  Biso   1.000  C
  H481     1.0000 0.00492  0.70983  0.09653  Biso   1.000  H
  C390     1.0000 0.79855  0.42576  0.03736  Biso   1.000  C
  C391     1.0000 0.07422  0.46266  0.79855  Biso   1.000  C
  C392     1.0000 0.11739  0.63395  0.05484  Biso   1.000  C
  C393     1.0000 0.05484  0.61741  0.13393  Biso   1.000  C
  C394     1.0000 0.05484  0.61741  0.13398  Biso   1.000  C
  H482     1.0000 0.79024  0.40349  0.00492  Biso   1.000  H
  C395     1.0000 0.85033  0.41278  0.06989  Biso   1.000  C
  C396     1.0000 0.85029  0.41278  0.06989  Biso   1.000  C
  H483     1.0000 0.09648  0.49510  0.79024  Biso   1.000  H
  C397     1.0000 0.08724  0.43013  0.85033  Biso   1.000  C
  C398     1.0000 0.08724  0.43013  0.85029  Biso   1.000  C
  H484     1.0000 0.09653  0.49510  0.79024  Biso   1.000  H
  C399     1.0000 0.14971  0.58726  0.06989  Biso   1.000  C
  H485     1.0000 0.12749  0.65550  0.02239  Biso   1.000  H
  H486     1.0000 0.12749  0.65550  0.02244  Biso   1.000  H
  C400     1.0000 0.14975  0.58726  0.06989  Biso   1.000  C
  C401     1.0000 0.08724  0.56987  0.14971  Biso   1.000  C
  H487     1.0000 0.02239  0.62751  0.15552  Biso   1.000  H
  C402     1.0000 0.08724  0.56987  0.14975  Biso   1.000  C
  H488     1.0000 0.02239  0.62751  0.15548  Biso   1.000  H
  H489     1.0000 0.02244  0.62751  0.15552  Biso   1.000  H
  H490     1.0000 0.02244  0.62751  0.15548  Biso   1.000  H
  C403     1.0000 0.88265  0.36605  0.05484  Biso   1.000  C
  C404     1.0000 0.86611  0.44514  0.11739  Biso   1.000  C
  C405     1.0000 0.88261  0.36605  0.05484  Biso   1.000  C
  C406     1.0000 0.86607  0.44514  0.11739  Biso   1.000  C
  C407     1.0000 0.05484  0.38259  0.86611  Biso   1.000  C
  C408     1.0000 0.13393  0.44514  0.88265  Biso   1.000  C
  C409     1.0000 0.05484  0.38259  0.86607  Biso   1.000  C
  C410     1.0000 0.13393  0.44514  0.88261  Biso   1.000  C
  C411     1.0000 0.13398  0.44514  0.88265  Biso   1.000  C
  C412     1.0000 0.13398  0.44514  0.88261  Biso   1.000  C
  C413     1.0000 0.20145  0.57424  0.03736  Biso   1.000  C
  C414     1.0000 0.13393  0.55486  0.11739  Biso   1.000  C
  C415     1.0000 0.13398  0.55486  0.11739  Biso   1.000  C
  C416     1.0000 0.07422  0.53738  0.20145  Biso   1.000  C
  C417     1.0000 0.93011  0.35027  0.08724  Biso   1.000  C
  H491     1.0000 0.87256  0.34450  0.02239  Biso   1.000  H
  H492     1.0000 0.87256  0.34450  0.02244  Biso   1.000  H
  C418     1.0000 0.93015  0.35027  0.08724  Biso   1.000  C
  H493     1.0000 0.87251  0.34450  0.02239  Biso   1.000  H
  H494     1.0000 0.87251  0.34450  0.02244  Biso   1.000  H
  C419     1.0000 0.91280  0.43013  0.14971  Biso   1.000  C
  H495     1.0000 0.84452  0.47763  0.12749  Biso   1.000  H
  C420     1.0000 0.91280  0.43013  0.14975  Biso   1.000  C
  C421     1.0000 0.91276  0.43013  0.14971  Biso   1.000  C
  C422     1.0000 0.91276  0.43013  0.14975  Biso   1.000  C
  C423     1.0000 0.06989  0.35027  0.91280  Biso   1.000  C
  H496     1.0000 0.02239  0.37249  0.84452  Biso   1.000  H
  C424     1.0000 0.06989  0.35027  0.91276  Biso   1.000  C
  H497     1.0000 0.02244  0.37249  0.84452  Biso   1.000  H
  C425     1.0000 0.14971  0.41278  0.93011  Biso   1.000  C
  H498     1.0000 0.15552  0.47763  0.87256  Biso   1.000  H
  C426     1.0000 0.14971  0.41278  0.93015  Biso   1.000  C
  H499     1.0000 0.15552  0.47763  0.87251  Biso   1.000  H
  C427     1.0000 0.14975  0.41278  0.93011  Biso   1.000  C
  H500     1.0000 0.15548  0.47763  0.87256  Biso   1.000  H
  C428     1.0000 0.14975  0.41278  0.93015  Biso   1.000  C
  H501     1.0000 0.15548  0.47763  0.87251  Biso   1.000  H
  N76      1.0000 0.23542  0.53471  0.05068  Biso   1.000  N
  H502     1.0000 0.20981  0.59651  0.00492  Biso   1.000  H
  H503     1.0000 0.20976  0.59651  0.00492  Biso   1.000  H
  H504     1.0000 0.15552  0.52241  0.12749  Biso   1.000  H
  H505     1.0000 0.15548  0.52241  0.12749  Biso   1.000  H
  N77      1.0000 0.03469  0.55066  0.23542  Biso   1.000  N
  N78      1.0000 0.03473  0.55066  0.23542  Biso   1.000  N
  H506     1.0000 0.09648  0.50490  0.20981  Biso   1.000  H
  H507     1.0000 0.09648  0.50490  0.20976  Biso   1.000  H
  H508     1.0000 0.09653  0.50490  0.20981  Biso   1.000  H
  H509     1.0000 0.09653  0.50490  0.20976  Biso   1.000  H
  C429     1.0000 0.96268  0.29853  0.07422  Biso   1.000  C
  C430     1.0000 0.94521  0.38259  0.13393  Biso   1.000  C
  C431     1.0000 0.94521  0.38259  0.13398  Biso   1.000  C
  C432     1.0000 0.96264  0.29853  0.07422  Biso   1.000  C
  C433     1.0000 0.94516  0.38259  0.13393  Biso   1.000  C
  C434     1.0000 0.94516  0.38259  0.13398  Biso   1.000  C
  C435     1.0000 0.92578  0.46266  0.20145  Biso   1.000  C
  C436     1.0000 0.03736  0.29853  0.92578  Biso   1.000  C
  C437     1.0000 0.11739  0.36605  0.94521  Biso   1.000  C
  C438     1.0000 0.11739  0.36605  0.94516  Biso   1.000  C
  C439     1.0000 0.20145  0.42576  0.96268  Biso   1.000  C
  C440     1.0000 0.20145  0.42576  0.96264  Biso   1.000  C
  C441     1.0000 0.28525  0.52848  0.01472  Biso   1.000  C
  C442     1.0000 0.28530  0.52848  0.01472  Biso   1.000  C
  C443     1.0000 0.02850  0.51474  0.28525  Biso   1.000  C
  C444     1.0000 0.02850  0.51474  0.28530  Biso   1.000  C
  C445     1.0000 0.02846  0.51474  0.28525  Biso   1.000  C
  C446     1.0000 0.02846  0.51474  0.28530  Biso   1.000  C
  N79      1.0000 0.94932  0.26460  0.03469  Biso   1.000  N
  H510     1.0000 0.99512  0.29022  0.09648  Biso   1.000  H
  N80      1.0000 0.94932  0.26460  0.03473  Biso   1.000  N
  H511     1.0000 0.99512  0.29022  0.09653  Biso   1.000  H
  N81      1.0000 0.94936  0.26460  0.03469  Biso   1.000  N
  N82      1.0000 0.94936  0.26460  0.03473  Biso   1.000  N
  H512     1.0000 0.97765  0.37249  0.15552  Biso   1.000  H
  H513     1.0000 0.97765  0.37249  0.15548  Biso   1.000  H
  H514     1.0000 0.97761  0.37249  0.15552  Biso   1.000  H
  H515     1.0000 0.97761  0.37249  0.15548  Biso   1.000  H
  N83      1.0000 0.96535  0.44934  0.23542  Biso   1.000  N
  H516     1.0000 0.90356  0.49510  0.20981  Biso   1.000  H
  H517     1.0000 0.90356  0.49510  0.20976  Biso   1.000  H
  N84      1.0000 0.96531  0.44934  0.23542  Biso   1.000  N
  H518     1.0000 0.90352  0.49510  0.20981  Biso   1.000  H
  H519     1.0000 0.90352  0.49510  0.20976  Biso   1.000  H
  N85      1.0000 0.05068  0.26460  0.96535  Biso   1.000  N
  N86      1.0000 0.05068  0.26460  0.96531  Biso   1.000  N
  H520     1.0000 0.00492  0.29022  0.90356  Biso   1.000  H
  H521     1.0000 0.00492  0.29022  0.90352  Biso   1.000  H
  H522     1.0000 0.12749  0.34450  0.97765  Biso   1.000  H
  H523     1.0000 0.12749  0.34450  0.97761  Biso   1.000  H
  N87      1.0000 0.23542  0.46529  0.94932  Biso   1.000  N
  H524     1.0000 0.20981  0.40349  0.99512  Biso   1.000  H
  N88      1.0000 0.23542  0.46529  0.94936  Biso   1.000  N
  H525     1.0000 0.20976  0.40349  0.99512  Biso   1.000  H
  C447     1.0000 0.28525  0.47152  0.98533  Biso   1.000  C
  C448     1.0000 0.28525  0.47152  0.98528  Biso   1.000  C
  C449     1.0000 0.28530  0.47152  0.98533  Biso   1.000  C
  C450     1.0000 0.28530  0.47152  0.98528  Biso   1.000  C
  H526     1.0000 0.28572  0.55910  0.98605  Biso   1.000  H
  H527     1.0000 0.28572  0.55910  0.98600  Biso   1.000  H
  H528     1.0000 0.31990  0.53213  0.03808  Biso   1.000  H
  H529     1.0000 0.31990  0.53213  0.03813  Biso   1.000  H
  C451     1.0000 0.97150  0.48530  0.28525  Biso   1.000  C
  C452     1.0000 0.97150  0.48530  0.28530  Biso   1.000  C
  C453     1.0000 0.97154  0.48530  0.28525  Biso   1.000  C
  C454     1.0000 0.97154  0.48530  0.28530  Biso   1.000  C
  H530     1.0000 0.03210  0.53811  0.31990  Biso   1.000  H
  H531     1.0000 0.05912  0.48603  0.28572  Biso   1.000  H
  H532     1.0000 0.03206  0.53811  0.31990  Biso   1.000  H
  H533     1.0000 0.05908  0.48603  0.28572  Biso   1.000  H
  C455     1.0000 0.98533  0.21477  0.02850  Biso   1.000  C
  C456     1.0000 0.98533  0.21477  0.02846  Biso   1.000  C
  C457     1.0000 0.98528  0.21477  0.02850  Biso   1.000  C
  C458     1.0000 0.98528  0.21477  0.02846  Biso   1.000  C
  C459     1.0000 0.01472  0.21477  0.97150  Biso   1.000  C
  C460     1.0000 0.01472  0.21477  0.97154  Biso   1.000  C
  H534     1.0000 0.31990  0.46792  0.96192  Biso   1.000  H
  H535     1.0000 0.28572  0.44090  0.01400  Biso   1.000  H
  H536     1.0000 0.28572  0.44090  0.01404  Biso   1.000  H
  H537     1.0000 0.96794  0.46189  0.31990  Biso   1.000  H
  H538     1.0000 0.94092  0.51402  0.28572  Biso   1.000  H
  H539     1.0000 0.96192  0.18012  0.03210  Biso   1.000  H
  H540     1.0000 0.96192  0.18012  0.03206  Biso   1.000  H
  H541     1.0000 0.01400  0.21430  0.05912  Biso   1.000  H
  H542     1.0000 0.01400  0.21430  0.05908  Biso   1.000  H
  H543     1.0000 0.01404  0.21430  0.05912  Biso   1.000  H
  H544     1.0000 0.01404  0.21430  0.05908  Biso   1.000  H
  H545     1.0000 0.98605  0.21430  0.94092  Biso   1.000  H
  H546     1.0000 0.98600  0.21430  0.94092  Biso   1.000  H
  H547     1.0000 0.03808  0.18012  0.96794  Biso   1.000  H
  H548     1.0000 0.03813  0.18012  0.96794  Biso   1.000  H
  C461     1.0000 0.93011  0.64973  0.91276  Biso   1.000  C
  C462     1.0000 0.94521  0.61741  0.86611  Biso   1.000  C
  C463     1.0000 0.94521  0.61741  0.86607  Biso   1.000  C
  C464     1.0000 0.94516  0.61741  0.86611  Biso   1.000  C
  C465     1.0000 0.94516  0.61741  0.86607  Biso   1.000  C
  C466     1.0000 0.96268  0.70147  0.92578  Biso   1.000  C
  C467     1.0000 0.88265  0.63395  0.94521  Biso   1.000  C
  C468     1.0000 0.88265  0.63395  0.94516  Biso   1.000  C
  C469     1.0000 0.96264  0.70147  0.92578  Biso   1.000  C
  C470     1.0000 0.88261  0.63395  0.94521  Biso   1.000  C
  C471     1.0000 0.88261  0.63395  0.94516  Biso   1.000  C
  C472     1.0000 0.91280  0.56987  0.85033  Biso   1.000  C
  C473     1.0000 0.91280  0.56987  0.85029  Biso   1.000  C
  C474     1.0000 0.91276  0.56987  0.85033  Biso   1.000  C
  C475     1.0000 0.91276  0.56987  0.85029  Biso   1.000  C
  H549     1.0000 0.97765  0.62751  0.84452  Biso   1.000  H
  C476     1.0000 0.93011  0.64973  0.91280  Biso   1.000  C
  H550     1.0000 0.97761  0.62751  0.84452  Biso   1.000  H
  C477     1.0000 0.93015  0.64973  0.91280  Biso   1.000  C
  C478     1.0000 0.93015  0.64973  0.91276  Biso   1.000  C
  N89      1.0000 0.94932  0.73544  0.96535  Biso   1.000  N
  H551     1.0000 0.99512  0.70983  0.90356  Biso   1.000  H
  N90      1.0000 0.94932  0.73544  0.96531  Biso   1.000  N
  H552     1.0000 0.99512  0.70983  0.90352  Biso   1.000  H
  N91      1.0000 0.94936  0.73544  0.96535  Biso   1.000  N
  N92      1.0000 0.94936  0.73544  0.96531  Biso   1.000  N
  C479     1.0000 0.85033  0.58726  0.93011  Biso   1.000  C
  C480     1.0000 0.85033  0.58726  0.93015  Biso   1.000  C
  C481     1.0000 0.85029  0.58726  0.93011  Biso   1.000  C
  C482     1.0000 0.85029  0.58726  0.93015  Biso   1.000  C
  H553     1.0000 0.87256  0.65550  0.97765  Biso   1.000  H
  H554     1.0000 0.87256  0.65550  0.97761  Biso   1.000  H
  H555     1.0000 0.87251  0.65550  0.97765  Biso   1.000  H
  H556     1.0000 0.87251  0.65550  0.97761  Biso   1.000  H
  C483     1.0000 0.92578  0.53738  0.79855  Biso   1.000  C
  C484     1.0000 0.86611  0.55486  0.88265  Biso   1.000  C
  C485     1.0000 0.86611  0.55486  0.88261  Biso   1.000  C
  C486     1.0000 0.86607  0.55486  0.88265  Biso   1.000  C
  C487     1.0000 0.86607  0.55486  0.88261  Biso   1.000  C
  C488     1.0000 0.98533  0.78528  0.97150  Biso   1.000  C
  C489     1.0000 0.98533  0.78528  0.97154  Biso   1.000  C
  C490     1.0000 0.98528  0.78528  0.97150  Biso   1.000  C
  C491     1.0000 0.98528  0.78528  0.97154  Biso   1.000  C
  C492     1.0000 0.79855  0.57424  0.96268  Biso   1.000  C
  C493     1.0000 0.79855  0.57424  0.96264  Biso   1.000  C
  N93      1.0000 0.96535  0.55066  0.76462  Biso   1.000  N
  H557     1.0000 0.90356  0.50490  0.79024  Biso   1.000  H
  N94      1.0000 0.96531  0.55066  0.76462  Biso   1.000  N
  H558     1.0000 0.90352  0.50490  0.79024  Biso   1.000  H
  H559     1.0000 0.84452  0.52241  0.87256  Biso   1.000  H
  H560     1.0000 0.84452  0.52241  0.87251  Biso   1.000  H
  H561     1.0000 0.96192  0.81992  0.96794  Biso   1.000  H
  H562     1.0000 0.01400  0.78570  0.94092  Biso   1.000  H
  H563     1.0000 0.01404  0.78570  0.94092  Biso   1.000  H
  C494     1.0000 0.01472  0.78528  0.02850  Biso   1.000  C
  C495     1.0000 0.01472  0.78528  0.02846  Biso   1.000  C
  H564     1.0000 0.79024  0.59651  0.99512  Biso   1.000  H
  N95      1.0000 0.76462  0.53471  0.94932  Biso   1.000  N
  N96      1.0000 0.76462  0.53471  0.94936  Biso   1.000  N
  C496     1.0000 0.97150  0.51474  0.71479  Biso   1.000  C
  C497     1.0000 0.97150  0.51474  0.71475  Biso   1.000  C
  C498     1.0000 0.97154  0.51474  0.71479  Biso   1.000  C
  C499     1.0000 0.97154  0.51474  0.71475  Biso   1.000  C
  H565     1.0000 0.98605  0.78570  0.05912  Biso   1.000  H
  H566     1.0000 0.98605  0.78570  0.05908  Biso   1.000  H
  H567     1.0000 0.98600  0.78570  0.05912  Biso   1.000  H
  H568     1.0000 0.98600  0.78570  0.05908  Biso   1.000  H
  N97      1.0000 0.05068  0.73544  0.03469  Biso   1.000  N
  H569     1.0000 0.03808  0.81992  0.03210  Biso   1.000  H
  N98      1.0000 0.05068  0.73544  0.03473  Biso   1.000  N
  H570     1.0000 0.03808  0.81992  0.03206  Biso   1.000  H
  H571     1.0000 0.03813  0.81992  0.03210  Biso   1.000  H
  H572     1.0000 0.03813  0.81992  0.03206  Biso   1.000  H
  C500     1.0000 0.71479  0.52848  0.98533  Biso   1.000  C
  C501     1.0000 0.71479  0.52848  0.98528  Biso   1.000  C
  C502     1.0000 0.71475  0.52848  0.98533  Biso   1.000  C
  C503     1.0000 0.71475  0.52848  0.98528  Biso   1.000  C
  H573     1.0000 0.94092  0.48603  0.71432  Biso   1.000  H
  H574     1.0000 0.96794  0.53811  0.68014  Biso   1.000  H
  H575     1.0000 0.96794  0.53811  0.68010  Biso   1.000  H
  C504     1.0000 0.02850  0.48530  0.71479  Biso   1.000  C
  C505     1.0000 0.02850  0.48530  0.71475  Biso   1.000  C
  C506     1.0000 0.02846  0.48530  0.71479  Biso   1.000  C
  C507     1.0000 0.02846  0.48530  0.71475  Biso   1.000  C
  C508     1.0000 0.03736  0.70147  0.07422  Biso   1.000  C
  H576     1.0000 0.68014  0.53213  0.96192  Biso   1.000  H
  H577     1.0000 0.68010  0.53213  0.96192  Biso   1.000  H
  C509     1.0000 0.71479  0.47152  0.01472  Biso   1.000  C
  H578     1.0000 0.71432  0.55910  0.01400  Biso   1.000  H
  H579     1.0000 0.71432  0.55910  0.01404  Biso   1.000  H
  C510     1.0000 0.71475  0.47152  0.01472  Biso   1.000  C
  N99      1.0000 0.03469  0.44934  0.76462  Biso   1.000  N
  H580     1.0000 0.03210  0.46189  0.68014  Biso   1.000  H
  H581     1.0000 0.05912  0.51402  0.71432  Biso   1.000  H
  H582     1.0000 0.03210  0.46189  0.68010  Biso   1.000  H
  N100     1.0000 0.03473  0.44934  0.76462  Biso   1.000  N
  H583     1.0000 0.03206  0.46189  0.68014  Biso   1.000  H
  H584     1.0000 0.05908  0.51402  0.71432  Biso   1.000  H
  H585     1.0000 0.03206  0.46189  0.68010  Biso   1.000  H
  H586     1.0000 0.00492  0.70983  0.09648  Biso   1.000  H
  C511     1.0000 0.06989  0.64973  0.08724  Biso   1.000  C
  H587     1.0000 0.00492  0.70983  0.09653  Biso   1.000  H
  H588     1.0000 0.71432  0.44090  0.98605  Biso   1.000  H
  H589     1.0000 0.71432  0.44090  0.98600  Biso   1.000  H
  N101     1.0000 0.76462  0.46529  0.05068  Biso   1.000  N
  H590     1.0000 0.68014  0.46792  0.03808  Biso   1.000  H
  H591     1.0000 0.68014  0.46792  0.03813  Biso   1.000  H
  H592     1.0000 0.68010  0.46792  0.03808  Biso   1.000  H
  H593     1.0000 0.68010  0.46792  0.03813  Biso   1.000  H
  C512     1.0000 0.07422  0.46266  0.79855  Biso   1.000  C
  C513     1.0000 0.11739  0.63395  0.05484  Biso   1.000  C
  C514     1.0000 0.05484  0.61741  0.13393  Biso   1.000  C
  C515     1.0000 0.05484  0.61741  0.13398  Biso   1.000  C
  C516     1.0000 0.79855  0.42576  0.03736  Biso   1.000  C
  H594     1.0000 0.09648  0.49510  0.79024  Biso   1.000  H
  C517     1.0000 0.08724  0.43013  0.85033  Biso   1.000  C
  C518     1.0000 0.08724  0.43013  0.85029  Biso   1.000  C
  H595     1.0000 0.09653  0.49510  0.79024  Biso   1.000  H
  C519     1.0000 0.14971  0.58726  0.06989  Biso   1.000  C
  H596     1.0000 0.12749  0.65550  0.02239  Biso   1.000  H
  H597     1.0000 0.12749  0.65550  0.02244  Biso   1.000  H
  C520     1.0000 0.14975  0.58726  0.06989  Biso   1.000  C
  C521     1.0000 0.08724  0.56987  0.14971  Biso   1.000  C
  H598     1.0000 0.02239  0.62751  0.15552  Biso   1.000  H
  C522     1.0000 0.08724  0.56987  0.14975  Biso   1.000  C
  H599     1.0000 0.02239  0.62751  0.15548  Biso   1.000  H
  H600     1.0000 0.02244  0.62751  0.15552  Biso   1.000  H
  H601     1.0000 0.02244  0.62751  0.15548  Biso   1.000  H
  H602     1.0000 0.79024  0.40349  0.00492  Biso   1.000  H
  C523     1.0000 0.85033  0.41278  0.06989  Biso   1.000  C
  C524     1.0000 0.85029  0.41278  0.06989  Biso   1.000  C
  C525     1.0000 0.05484  0.38259  0.86611  Biso   1.000  C
  C526     1.0000 0.13393  0.44514  0.88265  Biso   1.000  C
  C527     1.0000 0.05484  0.38259  0.86607  Biso   1.000  C
  C528     1.0000 0.13393  0.44514  0.88261  Biso   1.000  C
  C529     1.0000 0.13398  0.44514  0.88265  Biso   1.000  C
  C530     1.0000 0.13398  0.44514  0.88261  Biso   1.000  C
  C531     1.0000 0.20145  0.57424  0.03736  Biso   1.000  C
  C532     1.0000 0.13393  0.55486  0.11739  Biso   1.000  C
  C533     1.0000 0.13398  0.55486  0.11739  Biso   1.000  C
  C534     1.0000 0.07422  0.53738  0.20145  Biso   1.000  C
  C535     1.0000 0.88265  0.36605  0.05484  Biso   1.000  C
  C536     1.0000 0.86611  0.44514  0.11739  Biso   1.000  C
  C537     1.0000 0.88261  0.36605  0.05484  Biso   1.000  C
  C538     1.0000 0.86607  0.44514  0.11739  Biso   1.000  C
  C539     1.0000 0.06989  0.35027  0.91280  Biso   1.000  C
  H603     1.0000 0.02239  0.37249  0.84452  Biso   1.000  H
  C540     1.0000 0.06989  0.35027  0.91276  Biso   1.000  C
  H604     1.0000 0.02244  0.37249  0.84452  Biso   1.000  H
  C541     1.0000 0.14971  0.41278  0.93011  Biso   1.000  C
  H605     1.0000 0.15552  0.47763  0.87256  Biso   1.000  H
  C542     1.0000 0.14971  0.41278  0.93015  Biso   1.000  C
  H606     1.0000 0.15552  0.47763  0.87251  Biso   1.000  H
  C543     1.0000 0.14975  0.41278  0.93011  Biso   1.000  C
  H607     1.0000 0.15548  0.47763  0.87256  Biso   1.000  H
  C544     1.0000 0.14975  0.41278  0.93015  Biso   1.000  C
  H608     1.0000 0.15548  0.47763  0.87251  Biso   1.000  H
  N102     1.0000 0.23542  0.53471  0.05068  Biso   1.000  N
  H609     1.0000 0.20981  0.59651  0.00492  Biso   1.000  H
  H610     1.0000 0.20976  0.59651  0.00492  Biso   1.000  H
  H611     1.0000 0.15552  0.52241  0.12749  Biso   1.000  H
  H612     1.0000 0.15548  0.52241  0.12749  Biso   1.000  H
  N103     1.0000 0.03469  0.55066  0.23542  Biso   1.000  N
  H613     1.0000 0.09648  0.50490  0.20981  Biso   1.000  H
  H614     1.0000 0.09648  0.50490  0.20976  Biso   1.000  H
  N104     1.0000 0.03473  0.55066  0.23542  Biso   1.000  N
  H615     1.0000 0.09653  0.50490  0.20981  Biso   1.000  H
  H616     1.0000 0.09653  0.50490  0.20976  Biso   1.000  H
  C545     1.0000 0.93011  0.35027  0.08724  Biso   1.000  C
  H617     1.0000 0.87256  0.34450  0.02239  Biso   1.000  H
  H618     1.0000 0.87256  0.34450  0.02244  Biso   1.000  H
  C546     1.0000 0.93015  0.35027  0.08724  Biso   1.000  C
  H619     1.0000 0.87251  0.34450  0.02239  Biso   1.000  H
  H620     1.0000 0.87251  0.34450  0.02244  Biso   1.000  H
  C547     1.0000 0.91280  0.43013  0.14971  Biso   1.000  C
  H621     1.0000 0.84452  0.47763  0.12749  Biso   1.000  H
  C548     1.0000 0.91280  0.43013  0.14975  Biso   1.000  C
  C549     1.0000 0.91276  0.43013  0.14971  Biso   1.000  C
  C550     1.0000 0.91276  0.43013  0.14975  Biso   1.000  C
  C551     1.0000 0.03736  0.29853  0.92578  Biso   1.000  C
  C552     1.0000 0.11739  0.36605  0.94521  Biso   1.000  C
  C553     1.0000 0.11739  0.36605  0.94516  Biso   1.000  C
  C554     1.0000 0.20145  0.42576  0.96268  Biso   1.000  C
  C555     1.0000 0.20145  0.42576  0.96264  Biso   1.000  C
  C556     1.0000 0.28525  0.52848  0.01472  Biso   1.000  C
  C557     1.0000 0.28530  0.52848  0.01472  Biso   1.000  C
  C558     1.0000 0.02850  0.51474  0.28525  Biso   1.000  C
  C559     1.0000 0.02850  0.51474  0.28530  Biso   1.000  C
  C560     1.0000 0.02846  0.51474  0.28525  Biso   1.000  C
  C561     1.0000 0.02846  0.51474  0.28530  Biso   1.000  C
  C562     1.0000 0.96268  0.29853  0.07422  Biso   1.000  C
  C563     1.0000 0.94521  0.38259  0.13393  Biso   1.000  C
  C564     1.0000 0.94521  0.38259  0.13398  Biso   1.000  C
  C565     1.0000 0.96264  0.29853  0.07422  Biso   1.000  C
  C566     1.0000 0.94516  0.38259  0.13393  Biso   1.000  C
  C567     1.0000 0.94516  0.38259  0.13398  Biso   1.000  C
  C568     1.0000 0.92578  0.46266  0.20145  Biso   1.000  C
  N105     1.0000 0.05068  0.26460  0.96535  Biso   1.000  N
  H622     1.0000 0.00492  0.29022  0.90356  Biso   1.000  H
  N106     1.0000 0.05068  0.26460  0.96531  Biso   1.000  N
  H623     1.0000 0.00492  0.29022  0.90352  Biso   1.000  H
  H624     1.0000 0.12749  0.34450  0.97765  Biso   1.000  H
  H625     1.0000 0.12749  0.34450  0.97761  Biso   1.000  H
  N107     1.0000 0.23542  0.46529  0.94932  Biso   1.000  N
  H626     1.0000 0.20981  0.40349  0.99512  Biso   1.000  H
  N108     1.0000 0.23542  0.46529  0.94936  Biso   1.000  N
  H627     1.0000 0.20976  0.40349  0.99512  Biso   1.000  H
  C569     1.0000 0.28525  0.47152  0.98533  Biso   1.000  C
  C570     1.0000 0.28525  0.47152  0.98528  Biso   1.000  C
  C571     1.0000 0.28530  0.47152  0.98533  Biso   1.000  C
  C572     1.0000 0.28530  0.47152  0.98528  Biso   1.000  C
  H628     1.0000 0.28572  0.55910  0.98605  Biso   1.000  H
  H629     1.0000 0.28572  0.55910  0.98600  Biso   1.000  H
  H630     1.0000 0.31990  0.53213  0.03808  Biso   1.000  H
  H631     1.0000 0.31990  0.53213  0.03813  Biso   1.000  H
  C573     1.0000 0.97150  0.48530  0.28525  Biso   1.000  C
  C574     1.0000 0.97150  0.48530  0.28530  Biso   1.000  C
  C575     1.0000 0.97154  0.48530  0.28525  Biso   1.000  C
  C576     1.0000 0.97154  0.48530  0.28530  Biso   1.000  C
  H632     1.0000 0.03210  0.53811  0.31990  Biso   1.000  H
  H633     1.0000 0.05912  0.48603  0.28572  Biso   1.000  H
  H634     1.0000 0.03206  0.53811  0.31990  Biso   1.000  H
  H635     1.0000 0.05908  0.48603  0.28572  Biso   1.000  H
  N109     1.0000 0.94932  0.26460  0.03469  Biso   1.000  N
  N110     1.0000 0.94932  0.26460  0.03473  Biso   1.000  N
  N111     1.0000 0.94936  0.26460  0.03469  Biso   1.000  N
  N112     1.0000 0.94936  0.26460  0.03473  Biso   1.000  N
  H636     1.0000 0.99512  0.29022  0.09648  Biso   1.000  H
  H637     1.0000 0.99512  0.29022  0.09653  Biso   1.000  H
  H638     1.0000 0.97765  0.37249  0.15552  Biso   1.000  H
  H639     1.0000 0.97765  0.37249  0.15548  Biso   1.000  H
  H640     1.0000 0.97761  0.37249  0.15552  Biso   1.000  H
  H641     1.0000 0.97761  0.37249  0.15548  Biso   1.000  H
  N113     1.0000 0.96535  0.44934  0.23542  Biso   1.000  N
  H642     1.0000 0.90356  0.49510  0.20981  Biso   1.000  H
  H643     1.0000 0.90356  0.49510  0.20976  Biso   1.000  H
  N114     1.0000 0.96531  0.44934  0.23542  Biso   1.000  N
  H644     1.0000 0.90352  0.49510  0.20981  Biso   1.000  H
  H645     1.0000 0.90352  0.49510  0.20976  Biso   1.000  H
  C577     1.0000 0.01472  0.21477  0.97150  Biso   1.000  C
  C578     1.0000 0.01472  0.21477  0.97154  Biso   1.000  C
  H646     1.0000 0.31990  0.46792  0.96192  Biso   1.000  H
  H647     1.0000 0.28572  0.44090  0.01400  Biso   1.000  H
  H648     1.0000 0.28572  0.44090  0.01404  Biso   1.000  H
  H649     1.0000 0.96794  0.46189  0.31990  Biso   1.000  H
  H650     1.0000 0.94092  0.51402  0.28572  Biso   1.000  H
  C579     1.0000 0.98533  0.21477  0.02850  Biso   1.000  C
  C580     1.0000 0.98533  0.21477  0.02846  Biso   1.000  C
  C581     1.0000 0.98528  0.21477  0.02850  Biso   1.000  C
  C582     1.0000 0.98528  0.21477  0.02846  Biso   1.000  C
  H651     1.0000 0.98605  0.21430  0.94092  Biso   1.000  H
  H652     1.0000 0.98600  0.21430  0.94092  Biso   1.000  H
  H653     1.0000 0.03808  0.18012  0.96794  Biso   1.000  H
  H654     1.0000 0.03813  0.18012  0.96794  Biso   1.000  H
  H655     1.0000 0.96192  0.18012  0.03210  Biso   1.000  H
  H656     1.0000 0.96192  0.18012  0.03206  Biso   1.000  H
  H657     1.0000 0.01400  0.21430  0.05912  Biso   1.000  H
  H658     1.0000 0.01400  0.21430  0.05908  Biso   1.000  H
  H659     1.0000 0.01404  0.21430  0.05912  Biso   1.000  H
  H660     1.0000 0.01404  0.21430  0.05908  Biso   1.000  H
  C583     1.0000 0.93011  0.64973  0.91276  Biso   1.000  C
  C584     1.0000 0.94521  0.61741  0.86611  Biso   1.000  C
  C585     1.0000 0.94521  0.61741  0.86607  Biso   1.000  C
  C586     1.0000 0.94516  0.61741  0.86611  Biso   1.000  C
  C587     1.0000 0.94516  0.61741  0.86607  Biso   1.000  C
  C588     1.0000 0.96268  0.70147  0.92578  Biso   1.000  C
  C589     1.0000 0.88265  0.63395  0.94521  Biso   1.000  C
  C590     1.0000 0.88265  0.63395  0.94516  Biso   1.000  C
  C591     1.0000 0.96264  0.70147  0.92578  Biso   1.000  C
  C592     1.0000 0.88261  0.63395  0.94521  Biso   1.000  C
  C593     1.0000 0.88261  0.63395  0.94516  Biso   1.000  C
  C594     1.0000 0.91280  0.56987  0.85033  Biso   1.000  C
  C595     1.0000 0.91280  0.56987  0.85029  Biso   1.000  C
  C596     1.0000 0.91276  0.56987  0.85033  Biso   1.000  C
  C597     1.0000 0.91276  0.56987  0.85029  Biso   1.000  C
  H661     1.0000 0.97765  0.62751  0.84452  Biso   1.000  H
  C598     1.0000 0.93011  0.64973  0.91280  Biso   1.000  C
  H662     1.0000 0.97761  0.62751  0.84452  Biso   1.000  H
  C599     1.0000 0.93015  0.64973  0.91280  Biso   1.000  C
  C600     1.0000 0.93015  0.64973  0.91276  Biso   1.000  C
  N115     1.0000 0.94932  0.73544  0.96535  Biso   1.000  N
  H663     1.0000 0.99512  0.70983  0.90356  Biso   1.000  H
  N116     1.0000 0.94932  0.73544  0.96531  Biso   1.000  N
  H664     1.0000 0.99512  0.70983  0.90352  Biso   1.000  H
  N117     1.0000 0.94936  0.73544  0.96535  Biso   1.000  N
  N118     1.0000 0.94936  0.73544  0.96531  Biso   1.000  N
  C601     1.0000 0.85033  0.58726  0.93011  Biso   1.000  C
  C602     1.0000 0.85033  0.58726  0.93015  Biso   1.000  C
  C603     1.0000 0.85029  0.58726  0.93011  Biso   1.000  C
  C604     1.0000 0.85029  0.58726  0.93015  Biso   1.000  C
  H665     1.0000 0.87256  0.65550  0.97765  Biso   1.000  H
  H666     1.0000 0.87256  0.65550  0.97761  Biso   1.000  H
  H667     1.0000 0.87251  0.65550  0.97765  Biso   1.000  H
  H668     1.0000 0.87251  0.65550  0.97761  Biso   1.000  H
  C605     1.0000 0.92578  0.53738  0.79855  Biso   1.000  C
  C606     1.0000 0.86611  0.55486  0.88265  Biso   1.000  C
  C607     1.0000 0.86611  0.55486  0.88261  Biso   1.000  C
  C608     1.0000 0.86607  0.55486  0.88265  Biso   1.000  C
  C609     1.0000 0.86607  0.55486  0.88261  Biso   1.000  C
  C610     1.0000 0.98533  0.78528  0.97150  Biso   1.000  C
  C611     1.0000 0.98533  0.78528  0.97154  Biso   1.000  C
  C612     1.0000 0.98528  0.78528  0.97150  Biso   1.000  C
  C613     1.0000 0.98528  0.78528  0.97154  Biso   1.000  C
  C614     1.0000 0.79855  0.57424  0.96268  Biso   1.000  C
  C615     1.0000 0.79855  0.57424  0.96264  Biso   1.000  C
  N119     1.0000 0.96535  0.55066  0.76462  Biso   1.000  N
  H669     1.0000 0.90356  0.50490  0.79024  Biso   1.000  H
  N120     1.0000 0.96531  0.55066  0.76462  Biso   1.000  N
  H670     1.0000 0.90352  0.50490  0.79024  Biso   1.000  H
  H671     1.0000 0.84452  0.52241  0.87256  Biso   1.000  H
  H672     1.0000 0.84452  0.52241  0.87251  Biso   1.000  H
  H673     1.0000 0.96192  0.81992  0.96794  Biso   1.000  H
  H674     1.0000 0.01400  0.78570  0.94092  Biso   1.000  H
  H675     1.0000 0.01404  0.78570  0.94092  Biso   1.000  H
  C616     1.0000 0.01472  0.78528  0.02850  Biso   1.000  C
  C617     1.0000 0.01472  0.78528  0.02846  Biso   1.000  C
  H676     1.0000 0.79024  0.59651  0.99512  Biso   1.000  H
  N121     1.0000 0.76462  0.53471  0.94932  Biso   1.000  N
  N122     1.0000 0.76462  0.53471  0.94936  Biso   1.000  N
  C618     1.0000 0.97150  0.51474  0.71479  Biso   1.000  C
  C619     1.0000 0.97150  0.51474  0.71475  Biso   1.000  C
  C620     1.0000 0.97154  0.51474  0.71479  Biso   1.000  C
  C621     1.0000 0.97154  0.51474  0.71475  Biso   1.000  C
  H677     1.0000 0.98605  0.78570  0.05912  Biso   1.000  H
  H678     1.0000 0.98605  0.78570  0.05908  Biso   1.000  H
  H679     1.0000 0.98600  0.78570  0.05912  Biso   1.000  H
  H680     1.0000 0.98600  0.78570  0.05908  Biso   1.000  H
  N123     1.0000 0.05068  0.73544  0.03469  Biso   1.000  N
  H681     1.0000 0.03808  0.81992  0.03210  Biso   1.000  H
  N124     1.0000 0.05068  0.73544  0.03473  Biso   1.000  N
  H682     1.0000 0.03808  0.81992  0.03206  Biso   1.000  H
  H683     1.0000 0.03813  0.81992  0.03210  Biso   1.000  H
  H684     1.0000 0.03813  0.81992  0.03206  Biso   1.000  H
  C622     1.0000 0.71479  0.52848  0.98533  Biso   1.000  C
  C623     1.0000 0.71479  0.52848  0.98528  Biso   1.000  C
  C624     1.0000 0.71475  0.52848  0.98533  Biso   1.000  C
  C625     1.0000 0.71475  0.52848  0.98528  Biso   1.000  C
  H685     1.0000 0.94092  0.48603  0.71432  Biso   1.000  H
  H686     1.0000 0.96794  0.53811  0.68014  Biso   1.000  H
  H687     1.0000 0.96794  0.53811  0.68010  Biso   1.000  H
  C626     1.0000 0.02850  0.48530  0.71479  Biso   1.000  C
  C627     1.0000 0.02850  0.48530  0.71475  Biso   1.000  C
  C628     1.0000 0.02846  0.48530  0.71479  Biso   1.000  C
  C629     1.0000 0.02846  0.48530  0.71475  Biso   1.000  C
  C630     1.0000 0.03736  0.70147  0.07422  Biso   1.000  C
  H688     1.0000 0.68014  0.53213  0.96192  Biso   1.000  H
  H689     1.0000 0.68010  0.53213  0.96192  Biso   1.000  H
  C631     1.0000 0.71479  0.47152  0.01472  Biso   1.000  C
  H690     1.0000 0.71432  0.55910  0.01400  Biso   1.000  H
  H691     1.0000 0.71432  0.55910  0.01404  Biso   1.000  H
  C632     1.0000 0.71475  0.47152  0.01472  Biso   1.000  C
  N125     1.0000 0.03469  0.44934  0.76462  Biso   1.000  N
  H692     1.0000 0.03210  0.46189  0.68014  Biso   1.000  H
  H693     1.0000 0.05912  0.51402  0.71432  Biso   1.000  H
  H694     1.0000 0.03210  0.46189  0.68010  Biso   1.000  H
  N126     1.0000 0.03473  0.44934  0.76462  Biso   1.000  N
  H695     1.0000 0.03206  0.46189  0.68014  Biso   1.000  H
  H696     1.0000 0.05908  0.51402  0.71432  Biso   1.000  H
  H697     1.0000 0.03206  0.46189  0.68010  Biso   1.000  H
  H698     1.0000 0.00492  0.70983  0.09648  Biso   1.000  H
  C633     1.0000 0.06989  0.64973  0.08724  Biso   1.000  C
  H699     1.0000 0.00492  0.70983  0.09653  Biso   1.000  H
  H700     1.0000 0.71432  0.44090  0.98605  Biso   1.000  H
  H701     1.0000 0.71432  0.44090  0.98600  Biso   1.000  H
  N127     1.0000 0.76462  0.46529  0.05068  Biso   1.000  N
  H702     1.0000 0.68014  0.46792  0.03808  Biso   1.000  H
  H703     1.0000 0.68014  0.46792  0.03813  Biso   1.000  H
  H704     1.0000 0.68010  0.46792  0.03808  Biso   1.000  H
  H705     1.0000 0.68010  0.46792  0.03813  Biso   1.000  H
  C634     1.0000 0.07422  0.46266  0.79855  Biso   1.000  C
  C635     1.0000 0.11739  0.63395  0.05484  Biso   1.000  C
  C636     1.0000 0.05484  0.61741  0.13393  Biso   1.000  C
  C637     1.0000 0.05484  0.61741  0.13398  Biso   1.000  C
  C638     1.0000 0.79855  0.42576  0.03736  Biso   1.000  C
  H706     1.0000 0.09648  0.49510  0.79024  Biso   1.000  H
  C639     1.0000 0.08724  0.43013  0.85033  Biso   1.000  C
  C640     1.0000 0.08724  0.43013  0.85029  Biso   1.000  C
  H707     1.0000 0.09653  0.49510  0.79024  Biso   1.000  H
  C641     1.0000 0.14971  0.58726  0.06989  Biso   1.000  C
  H708     1.0000 0.12749  0.65550  0.02239  Biso   1.000  H
  H709     1.0000 0.12749  0.65550  0.02244  Biso   1.000  H
  C642     1.0000 0.14975  0.58726  0.06989  Biso   1.000  C
  C643     1.0000 0.08724  0.56987  0.14971  Biso   1.000  C
  H710     1.0000 0.02239  0.62751  0.15552  Biso   1.000  H
  C644     1.0000 0.08724  0.56987  0.14975  Biso   1.000  C
  H711     1.0000 0.02239  0.62751  0.15548  Biso   1.000  H
  H712     1.0000 0.02244  0.62751  0.15552  Biso   1.000  H
  H713     1.0000 0.02244  0.62751  0.15548  Biso   1.000  H
  H714     1.0000 0.79024  0.40349  0.00492  Biso   1.000  H
  C645     1.0000 0.85033  0.41278  0.06989  Biso   1.000  C
  C646     1.0000 0.85029  0.41278  0.06989  Biso   1.000  C
  C647     1.0000 0.05484  0.38259  0.86611  Biso   1.000  C
  C648     1.0000 0.13393  0.44514  0.88265  Biso   1.000  C
  C649     1.0000 0.05484  0.38259  0.86607  Biso   1.000  C
  C650     1.0000 0.13393  0.44514  0.88261  Biso   1.000  C
  C651     1.0000 0.13398  0.44514  0.88265  Biso   1.000  C
  C652     1.0000 0.13398  0.44514  0.88261  Biso   1.000  C
  C653     1.0000 0.20145  0.57424  0.03736  Biso   1.000  C
  C654     1.0000 0.13393  0.55486  0.11739  Biso   1.000  C
  C655     1.0000 0.13398  0.55486  0.11739  Biso   1.000  C
  C656     1.0000 0.07422  0.53738  0.20145  Biso   1.000  C
  C657     1.0000 0.88265  0.36605  0.05484  Biso   1.000  C
  C658     1.0000 0.86611  0.44514  0.11739  Biso   1.000  C
  C659     1.0000 0.88261  0.36605  0.05484  Biso   1.000  C
  C660     1.0000 0.86607  0.44514  0.11739  Biso   1.000  C
  C661     1.0000 0.06989  0.35027  0.91280  Biso   1.000  C
  H715     1.0000 0.02239  0.37249  0.84452  Biso   1.000  H
  C662     1.0000 0.06989  0.35027  0.91276  Biso   1.000  C
  H716     1.0000 0.02244  0.37249  0.84452  Biso   1.000  H
  C663     1.0000 0.14971  0.41278  0.93011  Biso   1.000  C
  H717     1.0000 0.15552  0.47763  0.87256  Biso   1.000  H
  C664     1.0000 0.14971  0.41278  0.93015  Biso   1.000  C
  H718     1.0000 0.15552  0.47763  0.87251  Biso   1.000  H
  C665     1.0000 0.14975  0.41278  0.93011  Biso   1.000  C
  H719     1.0000 0.15548  0.47763  0.87256  Biso   1.000  H
  C666     1.0000 0.14975  0.41278  0.93015  Biso   1.000  C
  H720     1.0000 0.15548  0.47763  0.87251  Biso   1.000  H
  N128     1.0000 0.23542  0.53471  0.05068  Biso   1.000  N
  H721     1.0000 0.20981  0.59651  0.00492  Biso   1.000  H
  H722     1.0000 0.20976  0.59651  0.00492  Biso   1.000  H
  H723     1.0000 0.15552  0.52241  0.12749  Biso   1.000  H
  H724     1.0000 0.15548  0.52241  0.12749  Biso   1.000  H
  N129     1.0000 0.03469  0.55066  0.23542  Biso   1.000  N
  H725     1.0000 0.09648  0.50490  0.20981  Biso   1.000  H
  H726     1.0000 0.09648  0.50490  0.20976  Biso   1.000  H
  N130     1.0000 0.03473  0.55066  0.23542  Biso   1.000  N
  H727     1.0000 0.09653  0.50490  0.20981  Biso   1.000  H
  H728     1.0000 0.09653  0.50490  0.20976  Biso   1.000  H
  C667     1.0000 0.93011  0.35027  0.08724  Biso   1.000  C
  H729     1.0000 0.87256  0.34450  0.02239  Biso   1.000  H
  H730     1.0000 0.87256  0.34450  0.02244  Biso   1.000  H
  C668     1.0000 0.93015  0.35027  0.08724  Biso   1.000  C
  H731     1.0000 0.87251  0.34450  0.02239  Biso   1.000  H
  H732     1.0000 0.87251  0.34450  0.02244  Biso   1.000  H
  C669     1.0000 0.91280  0.43013  0.14971  Biso   1.000  C
  H733     1.0000 0.84452  0.47763  0.12749  Biso   1.000  H
  C670     1.0000 0.91280  0.43013  0.14975  Biso   1.000  C
  C671     1.0000 0.91276  0.43013  0.14971  Biso   1.000  C
  C672     1.0000 0.91276  0.43013  0.14975  Biso   1.000  C
  C673     1.0000 0.03736  0.29853  0.92578  Biso   1.000  C
  C674     1.0000 0.11739  0.36605  0.94521  Biso   1.000  C
  C675     1.0000 0.11739  0.36605  0.94516  Biso   1.000  C
  C676     1.0000 0.20145  0.42576  0.96268  Biso   1.000  C
  C677     1.0000 0.20145  0.42576  0.96264  Biso   1.000  C
  C678     1.0000 0.28525  0.52848  0.01472  Biso   1.000  C
  C679     1.0000 0.28530  0.52848  0.01472  Biso   1.000  C
  C680     1.0000 0.02850  0.51474  0.28525  Biso   1.000  C
  C681     1.0000 0.02850  0.51474  0.28530  Biso   1.000  C
  C682     1.0000 0.02846  0.51474  0.28525  Biso   1.000  C
  C683     1.0000 0.02846  0.51474  0.28530  Biso   1.000  C
  C684     1.0000 0.96268  0.29853  0.07422  Biso   1.000  C
  C685     1.0000 0.94521  0.38259  0.13393  Biso   1.000  C
  C686     1.0000 0.94521  0.38259  0.13398  Biso   1.000  C
  C687     1.0000 0.96264  0.29853  0.07422  Biso   1.000  C
  C688     1.0000 0.94516  0.38259  0.13393  Biso   1.000  C
  C689     1.0000 0.94516  0.38259  0.13398  Biso   1.000  C
  C690     1.0000 0.92578  0.46266  0.20145  Biso   1.000  C
  N131     1.0000 0.05068  0.26460  0.96535  Biso   1.000  N
  H734     1.0000 0.00492  0.29022  0.90356  Biso   1.000  H
  N132     1.0000 0.05068  0.26460  0.96531  Biso   1.000  N
  H735     1.0000 0.00492  0.29022  0.90352  Biso   1.000  H
  H736     1.0000 0.12749  0.34450  0.97765  Biso   1.000  H
  H737     1.0000 0.12749  0.34450  0.97761  Biso   1.000  H
  N133     1.0000 0.23542  0.46529  0.94932  Biso   1.000  N
  H738     1.0000 0.20981  0.40349  0.99512  Biso   1.000  H
  N134     1.0000 0.23542  0.46529  0.94936  Biso   1.000  N
  H739     1.0000 0.20976  0.40349  0.99512  Biso   1.000  H
  C691     1.0000 0.28525  0.47152  0.98533  Biso   1.000  C
  C692     1.0000 0.28525  0.47152  0.98528  Biso   1.000  C
  C693     1.0000 0.28530  0.47152  0.98533  Biso   1.000  C
  C694     1.0000 0.28530  0.47152  0.98528  Biso   1.000  C
  H740     1.0000 0.28572  0.55910  0.98605  Biso   1.000  H
  H741     1.0000 0.28572  0.55910  0.98600  Biso   1.000  H
  H742     1.0000 0.31990  0.53213  0.03808  Biso   1.000  H
  H743     1.0000 0.31990  0.53213  0.03813  Biso   1.000  H
  C695     1.0000 0.97150  0.48530  0.28525  Biso   1.000  C
  C696     1.0000 0.97150  0.48530  0.28530  Biso   1.000  C
  C697     1.0000 0.97154  0.48530  0.28525  Biso   1.000  C
  C698     1.0000 0.97154  0.48530  0.28530  Biso   1.000  C
  H744     1.0000 0.03210  0.53811  0.31990  Biso   1.000  H
  H745     1.0000 0.05912  0.48603  0.28572  Biso   1.000  H
  H746     1.0000 0.03206  0.53811  0.31990  Biso   1.000  H
  H747     1.0000 0.05908  0.48603  0.28572  Biso   1.000  H
  N135     1.0000 0.94932  0.26460  0.03469  Biso   1.000  N
  N136     1.0000 0.94932  0.26460  0.03473  Biso   1.000  N
  N137     1.0000 0.94936  0.26460  0.03469  Biso   1.000  N
  N138     1.0000 0.94936  0.26460  0.03473  Biso   1.000  N
  H748     1.0000 0.99512  0.29022  0.09648  Biso   1.000  H
  H749     1.0000 0.99512  0.29022  0.09653  Biso   1.000  H
  H750     1.0000 0.97765  0.37249  0.15552  Biso   1.000  H
  H751     1.0000 0.97765  0.37249  0.15548  Biso   1.000  H
  H752     1.0000 0.97761  0.37249  0.15552  Biso   1.000  H
  H753     1.0000 0.97761  0.37249  0.15548  Biso   1.000  H
  N139     1.0000 0.96535  0.44934  0.23542  Biso   1.000  N
  H754     1.0000 0.90356  0.49510  0.20981  Biso   1.000  H
  H755     1.0000 0.90356  0.49510  0.20976  Biso   1.000  H
  N140     1.0000 0.96531  0.44934  0.23542  Biso   1.000  N
  H756     1.0000 0.90352  0.49510  0.20981  Biso   1.000  H
  H757     1.0000 0.90352  0.49510  0.20976  Biso   1.000  H
  C699     1.0000 0.01472  0.21477  0.97150  Biso   1.000  C
  C700     1.0000 0.01472  0.21477  0.97154  Biso   1.000  C
  H758     1.0000 0.31990  0.46792  0.96192  Biso   1.000  H
  H759     1.0000 0.28572  0.44090  0.01400  Biso   1.000  H
  H760     1.0000 0.28572  0.44090  0.01404  Biso   1.000  H
  H761     1.0000 0.96794  0.46189  0.31990  Biso   1.000  H
  H762     1.0000 0.94092  0.51402  0.28572  Biso   1.000  H
  C701     1.0000 0.98533  0.21477  0.02850  Biso   1.000  C
  C702     1.0000 0.98533  0.21477  0.02846  Biso   1.000  C
  C703     1.0000 0.98528  0.21477  0.02850  Biso   1.000  C
  C704     1.0000 0.98528  0.21477  0.02846  Biso   1.000  C
  H763     1.0000 0.98605  0.21430  0.94092  Biso   1.000  H
  H764     1.0000 0.98600  0.21430  0.94092  Biso   1.000  H
  H765     1.0000 0.03808  0.18012  0.96794  Biso   1.000  H
  H766     1.0000 0.03813  0.18012  0.96794  Biso   1.000  H
  H767     1.0000 0.96192  0.18012  0.03210  Biso   1.000  H
  H768     1.0000 0.96192  0.18012  0.03206  Biso   1.000  H
  H769     1.0000 0.01400  0.21430  0.05912  Biso   1.000  H
  H770     1.0000 0.01400  0.21430  0.05908  Biso   1.000  H
  H771     1.0000 0.01404  0.21430  0.05912  Biso   1.000  H
  H772     1.0000 0.01404  0.21430  0.05908  Biso   1.000  H
  C705     1.0000 0.91276  0.93011  0.64973  Biso   1.000  C
  C706     1.0000 0.86611  0.94521  0.61741  Biso   1.000  C
  C707     1.0000 0.86611  0.94516  0.61741  Biso   1.000  C
  C708     1.0000 0.86607  0.94521  0.61741  Biso   1.000  C
  C709     1.0000 0.86607  0.94516  0.61741  Biso   1.000  C
  C710     1.0000 0.92578  0.96268  0.70147  Biso   1.000  C
  C711     1.0000 0.94521  0.88265  0.63395  Biso   1.000  C
  C712     1.0000 0.92578  0.96264  0.70147  Biso   1.000  C
  C713     1.0000 0.94521  0.88261  0.63395  Biso   1.000  C
  C714     1.0000 0.94516  0.88265  0.63395  Biso   1.000  C
  C715     1.0000 0.94516  0.88261  0.63395  Biso   1.000  C
  C716     1.0000 0.85033  0.91280  0.56987  Biso   1.000  C
  C717     1.0000 0.85033  0.91276  0.56987  Biso   1.000  C
  C718     1.0000 0.85029  0.91280  0.56987  Biso   1.000  C
  C719     1.0000 0.85029  0.91276  0.56987  Biso   1.000  C
  H773     1.0000 0.84452  0.97765  0.62751  Biso   1.000  H
  C720     1.0000 0.91280  0.93011  0.64973  Biso   1.000  C
  H774     1.0000 0.84452  0.97761  0.62751  Biso   1.000  H
  C721     1.0000 0.91280  0.93015  0.64973  Biso   1.000  C
  C722     1.0000 0.91276  0.93015  0.64973  Biso   1.000  C
  N141     1.0000 0.96535  0.94932  0.73544  Biso   1.000  N
  H775     1.0000 0.90356  0.99512  0.70983  Biso   1.000  H
  N142     1.0000 0.96535  0.94936  0.73544  Biso   1.000  N
  N143     1.0000 0.96531  0.94932  0.73544  Biso   1.000  N
  H776     1.0000 0.90352  0.99512  0.70983  Biso   1.000  H
  N144     1.0000 0.96531  0.94936  0.73544  Biso   1.000  N
  C723     1.0000 0.93011  0.85033  0.58726  Biso   1.000  C
  C724     1.0000 0.93011  0.85029  0.58726  Biso   1.000  C
  C725     1.0000 0.93015  0.85033  0.58726  Biso   1.000  C
  C726     1.0000 0.93015  0.85029  0.58726  Biso   1.000  C
  H777     1.0000 0.97765  0.87256  0.65550  Biso   1.000  H
  H778     1.0000 0.97765  0.87251  0.65550  Biso   1.000  H
  H779     1.0000 0.97761  0.87256  0.65550  Biso   1.000  H
  H780     1.0000 0.97761  0.87251  0.65550  Biso   1.000  H
  C727     1.0000 0.79855  0.92578  0.53738  Biso   1.000  C
  C728     1.0000 0.88265  0.86611  0.55486  Biso   1.000  C
  C729     1.0000 0.88265  0.86607  0.55486  Biso   1.000  C
  C730     1.0000 0.88261  0.86611  0.55486  Biso   1.000  C
  C731     1.0000 0.88261  0.86607  0.55486  Biso   1.000  C
  C732     1.0000 0.97150  0.98533  0.78528  Biso   1.000  C
  C733     1.0000 0.97150  0.98528  0.78528  Biso   1.000  C
  C734     1.0000 0.97154  0.98533  0.78528  Biso   1.000  C
  C735     1.0000 0.97154  0.98528  0.78528  Biso   1.000  C
  C736     1.0000 0.96268  0.79855  0.57424  Biso   1.000  C
  C737     1.0000 0.96264  0.79855  0.57424  Biso   1.000  C
  N145     1.0000 0.76462  0.96535  0.55066  Biso   1.000  N
  N146     1.0000 0.76462  0.96531  0.55066  Biso   1.000  N
  H781     1.0000 0.79024  0.90356  0.50490  Biso   1.000  H
  H782     1.0000 0.79024  0.90352  0.50490  Biso   1.000  H
  H783     1.0000 0.87256  0.84452  0.52241  Biso   1.000  H
  H784     1.0000 0.87251  0.84452  0.52241  Biso   1.000  H
  H785     1.0000 0.96794  0.96192  0.81992  Biso   1.000  H
  H786     1.0000 0.94092  0.01400  0.78570  Biso   1.000  H
  H787     1.0000 0.94092  0.01404  0.78570  Biso   1.000  H
  C738     1.0000 0.02850  0.01472  0.78528  Biso   1.000  C
  C739     1.0000 0.02846  0.01472  0.78528  Biso   1.000  C
  N147     1.0000 0.94932  0.76462  0.53471  Biso   1.000  N
  H788     1.0000 0.99512  0.79024  0.59651  Biso   1.000  H
  N148     1.0000 0.94936  0.76462  0.53471  Biso   1.000  N
  C740     1.0000 0.71475  0.97150  0.51474  Biso   1.000  C
  C741     1.0000 0.71479  0.97150  0.51474  Biso   1.000  C
  C742     1.0000 0.71479  0.97154  0.51474  Biso   1.000  C
  C743     1.0000 0.71475  0.97154  0.51474  Biso   1.000  C
  H789     1.0000 0.05912  0.98605  0.78570  Biso   1.000  H
  H790     1.0000 0.05912  0.98600  0.78570  Biso   1.000  H
  H791     1.0000 0.05908  0.98605  0.78570  Biso   1.000  H
  H792     1.0000 0.05908  0.98600  0.78570  Biso   1.000  H
  N149     1.0000 0.03469  0.05068  0.73544  Biso   1.000  N
  H793     1.0000 0.03210  0.03808  0.81992  Biso   1.000  H
  H794     1.0000 0.03210  0.03813  0.81992  Biso   1.000  H
  N150     1.0000 0.03473  0.05068  0.73544  Biso   1.000  N
  H795     1.0000 0.03206  0.03808  0.81992  Biso   1.000  H
  H796     1.0000 0.03206  0.03813  0.81992  Biso   1.000  H
  C744     1.0000 0.98533  0.71479  0.52848  Biso   1.000  C
  C745     1.0000 0.98533  0.71475  0.52848  Biso   1.000  C
  C746     1.0000 0.98528  0.71479  0.52848  Biso   1.000  C
  C747     1.0000 0.98528  0.71475  0.52848  Biso   1.000  C
  H797     1.0000 0.68014  0.96794  0.53811  Biso   1.000  H
  H798     1.0000 0.71432  0.94092  0.48603  Biso   1.000  H
  H799     1.0000 0.68010  0.96794  0.53811  Biso   1.000  H
  C748     1.0000 0.71479  0.02850  0.48530  Biso   1.000  C
  C749     1.0000 0.71479  0.02846  0.48530  Biso   1.000  C
  C750     1.0000 0.71475  0.02850  0.48530  Biso   1.000  C
  C751     1.0000 0.71475  0.02846  0.48530  Biso   1.000  C
  C752     1.0000 0.07422  0.03736  0.70147  Biso   1.000  C
  H800     1.0000 0.96192  0.68014  0.53213  Biso   1.000  H
  H801     1.0000 0.96192  0.68010  0.53213  Biso   1.000  H
  C753     1.0000 0.01472  0.71479  0.47152  Biso   1.000  C
  H802     1.0000 0.01400  0.71432  0.55910  Biso   1.000  H
  C754     1.0000 0.01472  0.71475  0.47152  Biso   1.000  C
  H803     1.0000 0.01404  0.71432  0.55910  Biso   1.000  H
  N151     1.0000 0.76462  0.03469  0.44934  Biso   1.000  N
  H804     1.0000 0.68014  0.03210  0.46189  Biso   1.000  H
  H805     1.0000 0.71432  0.05912  0.51402  Biso   1.000  H
  N152     1.0000 0.76462  0.03473  0.44934  Biso   1.000  N
  H806     1.0000 0.68014  0.03206  0.46189  Biso   1.000  H
  H807     1.0000 0.71432  0.05908  0.51402  Biso   1.000  H
  H808     1.0000 0.68010  0.03210  0.46189  Biso   1.000  H
  H809     1.0000 0.68010  0.03206  0.46189  Biso   1.000  H
  H810     1.0000 0.09648  0.00492  0.70983  Biso   1.000  H
  C755     1.0000 0.08724  0.06989  0.64973  Biso   1.000  C
  H811     1.0000 0.09653  0.00492  0.70983  Biso   1.000  H
  H812     1.0000 0.98605  0.71432  0.44090  Biso   1.000  H
  H813     1.0000 0.98600  0.71432  0.44090  Biso   1.000  H
  N153     1.0000 0.05068  0.76462  0.46529  Biso   1.000  N
  H814     1.0000 0.03808  0.68014  0.46792  Biso   1.000  H
  H815     1.0000 0.03808  0.68010  0.46792  Biso   1.000  H
  H816     1.0000 0.03813  0.68014  0.46792  Biso   1.000  H
  H817     1.0000 0.03813  0.68010  0.46792  Biso   1.000  H
  C756     1.0000 0.79855  0.07422  0.46266  Biso   1.000  C
  C757     1.0000 0.05484  0.11739  0.63395  Biso   1.000  C
  C758     1.0000 0.13393  0.05484  0.61741  Biso   1.000  C
  C759     1.0000 0.13398  0.05484  0.61741  Biso   1.000  C
  C760     1.0000 0.03736  0.79855  0.42576  Biso   1.000  C
  H818     1.0000 0.79024  0.09648  0.49510  Biso   1.000  H
  C761     1.0000 0.85033  0.08724  0.43013  Biso   1.000  C
  H819     1.0000 0.79024  0.09653  0.49510  Biso   1.000  H
  C762     1.0000 0.85029  0.08724  0.43013  Biso   1.000  C
  C763     1.0000 0.06989  0.14971  0.58726  Biso   1.000  C
  C764     1.0000 0.06989  0.14975  0.58726  Biso   1.000  C
  H820     1.0000 0.02239  0.12749  0.65550  Biso   1.000  H
  H821     1.0000 0.02244  0.12749  0.65550  Biso   1.000  H
  C765     1.0000 0.14971  0.08724  0.56987  Biso   1.000  C
  H822     1.0000 0.15552  0.02239  0.62751  Biso   1.000  H
  H823     1.0000 0.15552  0.02244  0.62751  Biso   1.000  H
  C766     1.0000 0.14975  0.08724  0.56987  Biso   1.000  C
  H824     1.0000 0.15548  0.02239  0.62751  Biso   1.000  H
  H825     1.0000 0.15548  0.02244  0.62751  Biso   1.000  H
  H826     1.0000 0.00492  0.79024  0.40349  Biso   1.000  H
  C767     1.0000 0.06989  0.85033  0.41278  Biso   1.000  C
  C768     1.0000 0.06989  0.85029  0.41278  Biso   1.000  C
  C769     1.0000 0.86611  0.05484  0.38259  Biso   1.000  C
  C770     1.0000 0.88265  0.13393  0.44514  Biso   1.000  C
  C771     1.0000 0.88265  0.13398  0.44514  Biso   1.000  C
  C772     1.0000 0.86607  0.05484  0.38259  Biso   1.000  C
  C773     1.0000 0.88261  0.13393  0.44514  Biso   1.000  C
  C774     1.0000 0.88261  0.13398  0.44514  Biso   1.000  C
  C775     1.0000 0.03736  0.20145  0.57424  Biso   1.000  C
  C776     1.0000 0.11739  0.13393  0.55486  Biso   1.000  C
  C777     1.0000 0.11739  0.13398  0.55486  Biso   1.000  C
  C778     1.0000 0.20145  0.07422  0.53738  Biso   1.000  C
  C779     1.0000 0.05484  0.88265  0.36605  Biso   1.000  C
  C780     1.0000 0.11739  0.86611  0.44514  Biso   1.000  C
  C781     1.0000 0.05484  0.88261  0.36605  Biso   1.000  C
  C782     1.0000 0.11739  0.86607  0.44514  Biso   1.000  C
  C783     1.0000 0.91280  0.06989  0.35027  Biso   1.000  C
  H827     1.0000 0.84452  0.02239  0.37249  Biso   1.000  H
  H828     1.0000 0.84452  0.02244  0.37249  Biso   1.000  H
  C784     1.0000 0.91276  0.06989  0.35027  Biso   1.000  C
  C785     1.0000 0.93011  0.14971  0.41278  Biso   1.000  C
  H829     1.0000 0.87256  0.15552  0.47763  Biso   1.000  H
  C786     1.0000 0.93011  0.14975  0.41278  Biso   1.000  C
  H830     1.0000 0.87256  0.15548  0.47763  Biso   1.000  H
  C787     1.0000 0.93015  0.14971  0.41278  Biso   1.000  C
  H831     1.0000 0.87251  0.15552  0.47763  Biso   1.000  H
  C788     1.0000 0.93015  0.14975  0.41278  Biso   1.000  C
  H832     1.0000 0.87251  0.15548  0.47763  Biso   1.000  H
  N154     1.0000 0.05068  0.23542  0.53471  Biso   1.000  N
  H833     1.0000 0.00492  0.20981  0.59651  Biso   1.000  H
  H834     1.0000 0.00492  0.20976  0.59651  Biso   1.000  H
  H835     1.0000 0.12749  0.15552  0.52241  Biso   1.000  H
  H836     1.0000 0.12749  0.15548  0.52241  Biso   1.000  H
  N155     1.0000 0.23542  0.03469  0.55066  Biso   1.000  N
  H837     1.0000 0.20981  0.09648  0.50490  Biso   1.000  H
  N156     1.0000 0.23542  0.03473  0.55066  Biso   1.000  N
  H838     1.0000 0.20981  0.09653  0.50490  Biso   1.000  H
  H839     1.0000 0.20976  0.09648  0.50490  Biso   1.000  H
  H840     1.0000 0.20976  0.09653  0.50490  Biso   1.000  H
  C789     1.0000 0.08724  0.93011  0.35027  Biso   1.000  C
  C790     1.0000 0.08724  0.93015  0.35027  Biso   1.000  C
  H841     1.0000 0.02239  0.87256  0.34450  Biso   1.000  H
  H842     1.0000 0.02239  0.87251  0.34450  Biso   1.000  H
  H843     1.0000 0.02244  0.87256  0.34450  Biso   1.000  H
  H844     1.0000 0.02244  0.87251  0.34450  Biso   1.000  H
  C791     1.0000 0.14971  0.91280  0.43013  Biso   1.000  C
  H845     1.0000 0.12749  0.84452  0.47763  Biso   1.000  H
  C792     1.0000 0.14971  0.91276  0.43013  Biso   1.000  C
  C793     1.0000 0.14975  0.91280  0.43013  Biso   1.000  C
  C794     1.0000 0.14975  0.91276  0.43013  Biso   1.000  C
  C795     1.0000 0.92578  0.03736  0.29853  Biso   1.000  C
  C796     1.0000 0.94521  0.11739  0.36605  Biso   1.000  C
  C797     1.0000 0.94516  0.11739  0.36605  Biso   1.000  C
  C798     1.0000 0.96268  0.20145  0.42576  Biso   1.000  C
  C799     1.0000 0.96264  0.20145  0.42576  Biso   1.000  C
  C800     1.0000 0.01472  0.28525  0.52848  Biso   1.000  C
  C801     1.0000 0.01472  0.28530  0.52848  Biso   1.000  C
  C802     1.0000 0.28525  0.02850  0.51474  Biso   1.000  C
  C803     1.0000 0.28525  0.02846  0.51474  Biso   1.000  C
  C804     1.0000 0.28530  0.02850  0.51474  Biso   1.000  C
  C805     1.0000 0.28530  0.02846  0.51474  Biso   1.000  C
  C806     1.0000 0.07422  0.96268  0.29853  Biso   1.000  C
  C807     1.0000 0.07422  0.96264  0.29853  Biso   1.000  C
  C808     1.0000 0.13393  0.94521  0.38259  Biso   1.000  C
  C809     1.0000 0.13393  0.94516  0.38259  Biso   1.000  C
  C810     1.0000 0.13398  0.94521  0.38259  Biso   1.000  C
  C811     1.0000 0.13398  0.94516  0.38259  Biso   1.000  C
  C812     1.0000 0.20145  0.92578  0.46266  Biso   1.000  C
  N157     1.0000 0.96535  0.05068  0.26460  Biso   1.000  N
  H846     1.0000 0.90356  0.00492  0.29022  Biso   1.000  H
  N158     1.0000 0.96531  0.05068  0.26460  Biso   1.000  N
  H847     1.0000 0.90352  0.00492  0.29022  Biso   1.000  H
  H848     1.0000 0.97765  0.12749  0.34450  Biso   1.000  H
  H849     1.0000 0.97761  0.12749  0.34450  Biso   1.000  H
  N159     1.0000 0.94932  0.23542  0.46529  Biso   1.000  N
  H850     1.0000 0.99512  0.20981  0.40349  Biso   1.000  H
  H851     1.0000 0.99512  0.20976  0.40349  Biso   1.000  H
  N160     1.0000 0.94936  0.23542  0.46529  Biso   1.000  N
  C813     1.0000 0.98533  0.28525  0.47152  Biso   1.000  C
  C814     1.0000 0.98533  0.28530  0.47152  Biso   1.000  C
  C815     1.0000 0.98528  0.28525  0.47152  Biso   1.000  C
  C816     1.0000 0.98528  0.28530  0.47152  Biso   1.000  C
  H852     1.0000 0.98605  0.28572  0.55910  Biso   1.000  H
  H853     1.0000 0.98600  0.28572  0.55910  Biso   1.000  H
  H854     1.0000 0.03808  0.31990  0.53213  Biso   1.000  H
  H855     1.0000 0.03813  0.31990  0.53213  Biso   1.000  H
  C817     1.0000 0.28525  0.97150  0.48530  Biso   1.000  C
  C818     1.0000 0.28525  0.97154  0.48530  Biso   1.000  C
  C819     1.0000 0.28530  0.97150  0.48530  Biso   1.000  C
  C820     1.0000 0.28530  0.97154  0.48530  Biso   1.000  C
  H856     1.0000 0.31990  0.03210  0.53811  Biso   1.000  H
  H857     1.0000 0.28572  0.05912  0.48603  Biso   1.000  H
  H858     1.0000 0.31990  0.03206  0.53811  Biso   1.000  H
  H859     1.0000 0.28572  0.05908  0.48603  Biso   1.000  H
  N161     1.0000 0.03469  0.94932  0.26460  Biso   1.000  N
  N162     1.0000 0.03469  0.94936  0.26460  Biso   1.000  N
  N163     1.0000 0.03473  0.94932  0.26460  Biso   1.000  N
  N164     1.0000 0.03473  0.94936  0.26460  Biso   1.000  N
  H860     1.0000 0.09648  0.99512  0.29022  Biso   1.000  H
  H861     1.0000 0.09653  0.99512  0.29022  Biso   1.000  H
  H862     1.0000 0.15552  0.97765  0.37249  Biso   1.000  H
  H863     1.0000 0.15552  0.97761  0.37249  Biso   1.000  H
  H864     1.0000 0.15548  0.97765  0.37249  Biso   1.000  H
  H865     1.0000 0.15548  0.97761  0.37249  Biso   1.000  H
  N165     1.0000 0.23542  0.96535  0.44934  Biso   1.000  N
  H866     1.0000 0.20981  0.90356  0.49510  Biso   1.000  H
  N166     1.0000 0.23542  0.96531  0.44934  Biso   1.000  N
  H867     1.0000 0.20981  0.90352  0.49510  Biso   1.000  H
  H868     1.0000 0.20976  0.90356  0.49510  Biso   1.000  H
  H869     1.0000 0.20976  0.90352  0.49510  Biso   1.000  H
  C821     1.0000 0.97150  0.01472  0.21477  Biso   1.000  C
  C822     1.0000 0.97154  0.01472  0.21477  Biso   1.000  C
  H870     1.0000 0.96192  0.31990  0.46792  Biso   1.000  H
  H871     1.0000 0.01400  0.28572  0.44090  Biso   1.000  H
  H872     1.0000 0.01404  0.28572  0.44090  Biso   1.000  H
  H873     1.0000 0.31990  0.96794  0.46189  Biso   1.000  H
  H874     1.0000 0.28572  0.94092  0.51402  Biso   1.000  H
  C823     1.0000 0.02850  0.98533  0.21477  Biso   1.000  C
  C824     1.0000 0.02850  0.98528  0.21477  Biso   1.000  C
  C825     1.0000 0.02846  0.98533  0.21477  Biso   1.000  C
  C826     1.0000 0.02846  0.98528  0.21477  Biso   1.000  C
  H875     1.0000 0.94092  0.98605  0.21430  Biso   1.000  H
  H876     1.0000 0.94092  0.98600  0.21430  Biso   1.000  H
  H877     1.0000 0.96794  0.03808  0.18012  Biso   1.000  H
  H878     1.0000 0.96794  0.03813  0.18012  Biso   1.000  H
  H879     1.0000 0.03210  0.96192  0.18012  Biso   1.000  H
  H880     1.0000 0.03206  0.96192  0.18012  Biso   1.000  H
  H881     1.0000 0.05912  0.01400  0.21430  Biso   1.000  H
  H882     1.0000 0.05912  0.01404  0.21430  Biso   1.000  H
  H883     1.0000 0.05908  0.01400  0.21430  Biso   1.000  H
  H884     1.0000 0.05908  0.01404  0.21430  Biso   1.000  H
  C827     1.0000 0.91276  0.93011  0.64973  Biso   1.000  C
  C828     1.0000 0.94521  0.88265  0.63395  Biso   1.000  C
  C829     1.0000 0.94521  0.88261  0.63395  Biso   1.000  C
  C830     1.0000 0.94516  0.88265  0.63395  Biso   1.000  C
  C831     1.0000 0.94516  0.88261  0.63395  Biso   1.000  C
  C832     1.0000 0.86611  0.94521  0.61741  Biso   1.000  C
  C833     1.0000 0.86611  0.94516  0.61741  Biso   1.000  C
  C834     1.0000 0.86607  0.94521  0.61741  Biso   1.000  C
  C835     1.0000 0.86607  0.94516  0.61741  Biso   1.000  C
  C836     1.0000 0.92578  0.96268  0.70147  Biso   1.000  C
  C837     1.0000 0.92578  0.96264  0.70147  Biso   1.000  C
  C838     1.0000 0.93011  0.85033  0.58726  Biso   1.000  C
  C839     1.0000 0.93011  0.85029  0.58726  Biso   1.000  C
  C840     1.0000 0.93015  0.85033  0.58726  Biso   1.000  C
  C841     1.0000 0.93015  0.85029  0.58726  Biso   1.000  C
  C842     1.0000 0.91280  0.93011  0.64973  Biso   1.000  C
  H885     1.0000 0.97765  0.87256  0.65550  Biso   1.000  H
  C843     1.0000 0.91280  0.93015  0.64973  Biso   1.000  C
  H886     1.0000 0.97765  0.87251  0.65550  Biso   1.000  H
  H887     1.0000 0.97761  0.87256  0.65550  Biso   1.000  H
  C844     1.0000 0.91276  0.93015  0.64973  Biso   1.000  C
  H888     1.0000 0.97761  0.87251  0.65550  Biso   1.000  H
  C845     1.0000 0.85033  0.91280  0.56987  Biso   1.000  C
  C846     1.0000 0.85033  0.91276  0.56987  Biso   1.000  C
  C847     1.0000 0.85029  0.91280  0.56987  Biso   1.000  C
  C848     1.0000 0.85029  0.91276  0.56987  Biso   1.000  C
  H889     1.0000 0.84452  0.97765  0.62751  Biso   1.000  H
  H890     1.0000 0.84452  0.97761  0.62751  Biso   1.000  H
  H891     1.0000 0.90356  0.99512  0.70983  Biso   1.000  H
  H892     1.0000 0.90352  0.99512  0.70983  Biso   1.000  H
  N167     1.0000 0.96535  0.94932  0.73544  Biso   1.000  N
  N168     1.0000 0.96535  0.94936  0.73544  Biso   1.000  N
  N169     1.0000 0.96531  0.94932  0.73544  Biso   1.000  N
  N170     1.0000 0.96531  0.94936  0.73544  Biso   1.000  N
  C849     1.0000 0.96268  0.79855  0.57424  Biso   1.000  C
  C850     1.0000 0.96264  0.79855  0.57424  Biso   1.000  C
  C851     1.0000 0.88265  0.86611  0.55486  Biso   1.000  C
  C852     1.0000 0.88265  0.86607  0.55486  Biso   1.000  C
  C853     1.0000 0.88261  0.86611  0.55486  Biso   1.000  C
  C854     1.0000 0.88261  0.86607  0.55486  Biso   1.000  C
  C855     1.0000 0.79855  0.92578  0.53738  Biso   1.000  C
  C856     1.0000 0.97150  0.98533  0.78528  Biso   1.000  C
  C857     1.0000 0.97150  0.98528  0.78528  Biso   1.000  C
  C858     1.0000 0.97154  0.98533  0.78528  Biso   1.000  C
  C859     1.0000 0.97154  0.98528  0.78528  Biso   1.000  C
  N171     1.0000 0.94932  0.76462  0.53471  Biso   1.000  N
  H893     1.0000 0.99512  0.79024  0.59651  Biso   1.000  H
  N172     1.0000 0.94936  0.76462  0.53471  Biso   1.000  N
  H894     1.0000 0.87256  0.84452  0.52241  Biso   1.000  H
  H895     1.0000 0.87251  0.84452  0.52241  Biso   1.000  H
  N173     1.0000 0.76462  0.96535  0.55066  Biso   1.000  N
  H896     1.0000 0.79024  0.90356  0.50490  Biso   1.000  H
  N174     1.0000 0.76462  0.96531  0.55066  Biso   1.000  N
  H897     1.0000 0.79024  0.90352  0.50490  Biso   1.000  H
  H898     1.0000 0.96794  0.96192  0.81992  Biso   1.000  H
  H899     1.0000 0.94092  0.01400  0.78570  Biso   1.000  H
  H900     1.0000 0.94092  0.01404  0.78570  Biso   1.000  H
  C860     1.0000 0.02850  0.01472  0.78528  Biso   1.000  C
  C861     1.0000 0.02846  0.01472  0.78528  Biso   1.000  C
  C862     1.0000 0.98533  0.71479  0.52848  Biso   1.000  C
  C863     1.0000 0.98533  0.71475  0.52848  Biso   1.000  C
  C864     1.0000 0.98528  0.71479  0.52848  Biso   1.000  C
  C865     1.0000 0.98528  0.71475  0.52848  Biso   1.000  C
  C866     1.0000 0.71479  0.97150  0.51474  Biso   1.000  C
  C867     1.0000 0.71479  0.97154  0.51474  Biso   1.000  C
  C868     1.0000 0.71475  0.97150  0.51474  Biso   1.000  C
  C869     1.0000 0.71475  0.97154  0.51474  Biso   1.000  C
  H901     1.0000 0.05912  0.98605  0.78570  Biso   1.000  H
  H902     1.0000 0.05912  0.98600  0.78570  Biso   1.000  H
  H903     1.0000 0.05908  0.98605  0.78570  Biso   1.000  H
  H904     1.0000 0.05908  0.98600  0.78570  Biso   1.000  H
  N175     1.0000 0.03469  0.05068  0.73544  Biso   1.000  N
  H905     1.0000 0.03210  0.03808  0.81992  Biso   1.000  H
  H906     1.0000 0.03210  0.03813  0.81992  Biso   1.000  H
  N176     1.0000 0.03473  0.05068  0.73544  Biso   1.000  N
  H907     1.0000 0.03206  0.03808  0.81992  Biso   1.000  H
  H908     1.0000 0.03206  0.03813  0.81992  Biso   1.000  H
  H909     1.0000 0.96192  0.68014  0.53213  Biso   1.000  H
  H910     1.0000 0.96192  0.68010  0.53213  Biso   1.000  H
  C870     1.0000 0.01472  0.71479  0.47152  Biso   1.000  C
  H911     1.0000 0.01400  0.71432  0.55910  Biso   1.000  H
  C871     1.0000 0.01472  0.71475  0.47152  Biso   1.000  C
  H912     1.0000 0.01404  0.71432  0.55910  Biso   1.000  H
  H913     1.0000 0.68014  0.96794  0.53811  Biso   1.000  H
  H914     1.0000 0.71432  0.94092  0.48603  Biso   1.000  H
  H915     1.0000 0.68010  0.96794  0.53811  Biso   1.000  H
  C872     1.0000 0.71479  0.02850  0.48530  Biso   1.000  C
  C873     1.0000 0.71479  0.02846  0.48530  Biso   1.000  C
  C874     1.0000 0.71475  0.02850  0.48530  Biso   1.000  C
  C875     1.0000 0.71475  0.02846  0.48530  Biso   1.000  C
  C876     1.0000 0.07422  0.03736  0.70147  Biso   1.000  C
  H916     1.0000 0.98605  0.71432  0.44090  Biso   1.000  H
  H917     1.0000 0.98600  0.71432  0.44090  Biso   1.000  H
  N177     1.0000 0.05068  0.76462  0.46529  Biso   1.000  N
  H918     1.0000 0.03808  0.68014  0.46792  Biso   1.000  H
  H919     1.0000 0.03808  0.68010  0.46792  Biso   1.000  H
  H920     1.0000 0.03813  0.68014  0.46792  Biso   1.000  H
  H921     1.0000 0.03813  0.68010  0.46792  Biso   1.000  H
  N178     1.0000 0.76462  0.03469  0.44934  Biso   1.000  N
  H922     1.0000 0.68014  0.03210  0.46189  Biso   1.000  H
  H923     1.0000 0.71432  0.05912  0.51402  Biso   1.000  H
  N179     1.0000 0.76462  0.03473  0.44934  Biso   1.000  N
  H924     1.0000 0.68014  0.03206  0.46189  Biso   1.000  H
  H925     1.0000 0.71432  0.05908  0.51402  Biso   1.000  H
  H926     1.0000 0.68010  0.03210  0.46189  Biso   1.000  H
  H927     1.0000 0.68010  0.03206  0.46189  Biso   1.000  H
  H928     1.0000 0.09648  0.00492  0.70983  Biso   1.000  H
  C877     1.0000 0.08724  0.06989  0.64973  Biso   1.000  C
  H929     1.0000 0.09653  0.00492  0.70983  Biso   1.000  H
  C878     1.0000 0.03736  0.79855  0.42576  Biso   1.000  C
  C879     1.0000 0.79855  0.07422  0.46266  Biso   1.000  C
  C880     1.0000 0.05484  0.11739  0.63395  Biso   1.000  C
  C881     1.0000 0.13393  0.05484  0.61741  Biso   1.000  C
  C882     1.0000 0.13398  0.05484  0.61741  Biso   1.000  C
  H930     1.0000 0.00492  0.79024  0.40349  Biso   1.000  H
  C883     1.0000 0.06989  0.85033  0.41278  Biso   1.000  C
  C884     1.0000 0.06989  0.85029  0.41278  Biso   1.000  C
  H931     1.0000 0.79024  0.09648  0.49510  Biso   1.000  H
  C885     1.0000 0.85033  0.08724  0.43013  Biso   1.000  C
  H932     1.0000 0.79024  0.09653  0.49510  Biso   1.000  H
  C886     1.0000 0.85029  0.08724  0.43013  Biso   1.000  C
  C887     1.0000 0.06989  0.14971  0.58726  Biso   1.000  C
  H933     1.0000 0.02239  0.12749  0.65550  Biso   1.000  H
  C888     1.0000 0.06989  0.14975  0.58726  Biso   1.000  C
  H934     1.0000 0.02244  0.12749  0.65550  Biso   1.000  H
  C889     1.0000 0.14971  0.08724  0.56987  Biso   1.000  C
  H935     1.0000 0.15552  0.02239  0.62751  Biso   1.000  H
  H936     1.0000 0.15552  0.02244  0.62751  Biso   1.000  H
  C890     1.0000 0.14975  0.08724  0.56987  Biso   1.000  C
  H937     1.0000 0.15548  0.02239  0.62751  Biso   1.000  H
  H938     1.0000 0.15548  0.02244  0.62751  Biso   1.000  H
  C891     1.0000 0.05484  0.88265  0.36605  Biso   1.000  C
  C892     1.0000 0.11739  0.86611  0.44514  Biso   1.000  C
  C893     1.0000 0.05484  0.88261  0.36605  Biso   1.000  C
  C894     1.0000 0.11739  0.86607  0.44514  Biso   1.000  C
  C895     1.0000 0.86611  0.05484  0.38259  Biso   1.000  C
  C896     1.0000 0.88265  0.13393  0.44514  Biso   1.000  C
  C897     1.0000 0.88265  0.13398  0.44514  Biso   1.000  C
  C898     1.0000 0.86607  0.05484  0.38259  Biso   1.000  C
  C899     1.0000 0.88261  0.13393  0.44514  Biso   1.000  C
  C900     1.0000 0.88261  0.13398  0.44514  Biso   1.000  C
  C901     1.0000 0.03736  0.20145  0.57424  Biso   1.000  C
  C902     1.0000 0.11739  0.13393  0.55486  Biso   1.000  C
  C903     1.0000 0.11739  0.13398  0.55486  Biso   1.000  C
  C904     1.0000 0.20145  0.07422  0.53738  Biso   1.000  C
  C905     1.0000 0.08724  0.93011  0.35027  Biso   1.000  C
  H939     1.0000 0.02239  0.87256  0.34450  Biso   1.000  H
  C906     1.0000 0.08724  0.93015  0.35027  Biso   1.000  C
  H940     1.0000 0.02239  0.87251  0.34450  Biso   1.000  H
  H941     1.0000 0.02244  0.87256  0.34450  Biso   1.000  H
  H942     1.0000 0.02244  0.87251  0.34450  Biso   1.000  H
  C907     1.0000 0.14971  0.91280  0.43013  Biso   1.000  C
  H943     1.0000 0.12749  0.84452  0.47763  Biso   1.000  H
  C908     1.0000 0.14971  0.91276  0.43013  Biso   1.000  C
  C909     1.0000 0.14975  0.91280  0.43013  Biso   1.000  C
  C910     1.0000 0.14975  0.91276  0.43013  Biso   1.000  C
  C911     1.0000 0.91280  0.06989  0.35027  Biso   1.000  C
  H944     1.0000 0.84452  0.02239  0.37249  Biso   1.000  H
  H945     1.0000 0.84452  0.02244  0.37249  Biso   1.000  H
  C912     1.0000 0.91276  0.06989  0.35027  Biso   1.000  C
  C913     1.0000 0.93011  0.14971  0.41278  Biso   1.000  C
  H946     1.0000 0.87256  0.15552  0.47763  Biso   1.000  H
  C914     1.0000 0.93011  0.14975  0.41278  Biso   1.000  C
  H947     1.0000 0.87256  0.15548  0.47763  Biso   1.000  H
  C915     1.0000 0.93015  0.14971  0.41278  Biso   1.000  C
  H948     1.0000 0.87251  0.15552  0.47763  Biso   1.000  H
  C916     1.0000 0.93015  0.14975  0.41278  Biso   1.000  C
  H949     1.0000 0.87251  0.15548  0.47763  Biso   1.000  H
  N180     1.0000 0.05068  0.23542  0.53471  Biso   1.000  N
  H950     1.0000 0.00492  0.20981  0.59651  Biso   1.000  H
  H951     1.0000 0.00492  0.20976  0.59651  Biso   1.000  H
  H952     1.0000 0.12749  0.15552  0.52241  Biso   1.000  H
  H953     1.0000 0.12749  0.15548  0.52241  Biso   1.000  H
  N181     1.0000 0.23542  0.03469  0.55066  Biso   1.000  N
  N182     1.0000 0.23542  0.03473  0.55066  Biso   1.000  N
  H954     1.0000 0.20981  0.09648  0.50490  Biso   1.000  H
  H955     1.0000 0.20981  0.09653  0.50490  Biso   1.000  H
  H956     1.0000 0.20976  0.09648  0.50490  Biso   1.000  H
  H957     1.0000 0.20976  0.09653  0.50490  Biso   1.000  H
  C917     1.0000 0.07422  0.96268  0.29853  Biso   1.000  C
  C918     1.0000 0.13393  0.94521  0.38259  Biso   1.000  C
  C919     1.0000 0.07422  0.96264  0.29853  Biso   1.000  C
  C920     1.0000 0.13393  0.94516  0.38259  Biso   1.000  C
  C921     1.0000 0.13398  0.94521  0.38259  Biso   1.000  C
  C922     1.0000 0.13398  0.94516  0.38259  Biso   1.000  C
  C923     1.0000 0.20145  0.92578  0.46266  Biso   1.000  C
  C924     1.0000 0.92578  0.03736  0.29853  Biso   1.000  C
  C925     1.0000 0.94521  0.11739  0.36605  Biso   1.000  C
  C926     1.0000 0.94516  0.11739  0.36605  Biso   1.000  C
  C927     1.0000 0.96268  0.20145  0.42576  Biso   1.000  C
  C928     1.0000 0.96264  0.20145  0.42576  Biso   1.000  C
  C929     1.0000 0.01472  0.28525  0.52848  Biso   1.000  C
  C930     1.0000 0.01472  0.28530  0.52848  Biso   1.000  C
  C931     1.0000 0.28525  0.02850  0.51474  Biso   1.000  C
  C932     1.0000 0.28525  0.02846  0.51474  Biso   1.000  C
  C933     1.0000 0.28530  0.02850  0.51474  Biso   1.000  C
  C934     1.0000 0.28530  0.02846  0.51474  Biso   1.000  C
  N183     1.0000 0.03469  0.94932  0.26460  Biso   1.000  N
  H958     1.0000 0.09648  0.99512  0.29022  Biso   1.000  H
  N184     1.0000 0.03469  0.94936  0.26460  Biso   1.000  N
  N185     1.0000 0.03473  0.94932  0.26460  Biso   1.000  N
  H959     1.0000 0.09653  0.99512  0.29022  Biso   1.000  H
  N186     1.0000 0.03473  0.94936  0.26460  Biso   1.000  N
  H960     1.0000 0.15552  0.97765  0.37249  Biso   1.000  H
  H961     1.0000 0.15552  0.97761  0.37249  Biso   1.000  H
  H962     1.0000 0.15548  0.97765  0.37249  Biso   1.000  H
  H963     1.0000 0.15548  0.97761  0.37249  Biso   1.000  H
  N187     1.0000 0.23542  0.96535  0.44934  Biso   1.000  N
  H964     1.0000 0.20981  0.90356  0.49510  Biso   1.000  H
  N188     1.0000 0.23542  0.96531  0.44934  Biso   1.000  N
  H965     1.0000 0.20981  0.90352  0.49510  Biso   1.000  H
  H966     1.0000 0.20976  0.90356  0.49510  Biso   1.000  H
  H967     1.0000 0.20976  0.90352  0.49510  Biso   1.000  H
  N189     1.0000 0.96535  0.05068  0.26460  Biso   1.000  N
  N190     1.0000 0.96531  0.05068  0.26460  Biso   1.000  N
  H968     1.0000 0.90356  0.00492  0.29022  Biso   1.000  H
  H969     1.0000 0.90352  0.00492  0.29022  Biso   1.000  H
  H970     1.0000 0.97765  0.12749  0.34450  Biso   1.000  H
  H971     1.0000 0.97761  0.12749  0.34450  Biso   1.000  H
  N191     1.0000 0.94932  0.23542  0.46529  Biso   1.000  N
  H972     1.0000 0.99512  0.20981  0.40349  Biso   1.000  H
  H973     1.0000 0.99512  0.20976  0.40349  Biso   1.000  H
  N192     1.0000 0.94936  0.23542  0.46529  Biso   1.000  N
  C935     1.0000 0.98533  0.28525  0.47152  Biso   1.000  C
  C936     1.0000 0.98533  0.28530  0.47152  Biso   1.000  C
  C937     1.0000 0.98528  0.28525  0.47152  Biso   1.000  C
  C938     1.0000 0.98528  0.28530  0.47152  Biso   1.000  C
  H974     1.0000 0.98605  0.28572  0.55910  Biso   1.000  H
  H975     1.0000 0.98600  0.28572  0.55910  Biso   1.000  H
  H976     1.0000 0.03808  0.31990  0.53213  Biso   1.000  H
  H977     1.0000 0.03813  0.31990  0.53213  Biso   1.000  H
  C939     1.0000 0.28525  0.97150  0.48530  Biso   1.000  C
  C940     1.0000 0.28525  0.97154  0.48530  Biso   1.000  C
  C941     1.0000 0.28530  0.97150  0.48530  Biso   1.000  C
  C942     1.0000 0.28530  0.97154  0.48530  Biso   1.000  C
  H978     1.0000 0.31990  0.03210  0.53811  Biso   1.000  H
  H979     1.0000 0.28572  0.05912  0.48603  Biso   1.000  H
  H980     1.0000 0.31990  0.03206  0.53811  Biso   1.000  H
  H981     1.0000 0.28572  0.05908  0.48603  Biso   1.000  H
  C943     1.0000 0.02850  0.98533  0.21477  Biso   1.000  C
  C944     1.0000 0.02850  0.98528  0.21477  Biso   1.000  C
  C945     1.0000 0.02846  0.98533  0.21477  Biso   1.000  C
  C946     1.0000 0.02846  0.98528  0.21477  Biso   1.000  C
  C947     1.0000 0.97150  0.01472  0.21477  Biso   1.000  C
  C948     1.0000 0.97154  0.01472  0.21477  Biso   1.000  C
  H982     1.0000 0.96192  0.31990  0.46792  Biso   1.000  H
  H983     1.0000 0.01400  0.28572  0.44090  Biso   1.000  H
  H984     1.0000 0.01404  0.28572  0.44090  Biso   1.000  H
  H985     1.0000 0.31990  0.96794  0.46189  Biso   1.000  H
  H986     1.0000 0.28572  0.94092  0.51402  Biso   1.000  H
  H987     1.0000 0.03210  0.96192  0.18012  Biso   1.000  H
  H988     1.0000 0.03206  0.96192  0.18012  Biso   1.000  H
  H989     1.0000 0.05912  0.01400  0.21430  Biso   1.000  H
  H990     1.0000 0.05912  0.01404  0.21430  Biso   1.000  H
  H991     1.0000 0.05908  0.01400  0.21430  Biso   1.000  H
  H992     1.0000 0.05908  0.01404  0.21430  Biso   1.000  H
  H993     1.0000 0.94092  0.98605  0.21430  Biso   1.000  H
  H994     1.0000 0.94092  0.98600  0.21430  Biso   1.000  H
  H995     1.0000 0.96794  0.03808  0.18012  Biso   1.000  H
  H996     1.0000 0.96794  0.03813  0.18012  Biso   1.000  H
  C949     1.0000 0.91276  0.93011  0.64973  Biso   1.000  C
  C950     1.0000 0.86611  0.94521  0.61741  Biso   1.000  C
  C951     1.0000 0.86611  0.94516  0.61741  Biso   1.000  C
  C952     1.0000 0.86607  0.94521  0.61741  Biso   1.000  C
  C953     1.0000 0.86607  0.94516  0.61741  Biso   1.000  C
  C954     1.0000 0.92578  0.96268  0.70147  Biso   1.000  C
  C955     1.0000 0.94521  0.88265  0.63395  Biso   1.000  C
  C956     1.0000 0.92578  0.96264  0.70147  Biso   1.000  C
  C957     1.0000 0.94521  0.88261  0.63395  Biso   1.000  C
  C958     1.0000 0.94516  0.88265  0.63395  Biso   1.000  C
  C959     1.0000 0.94516  0.88261  0.63395  Biso   1.000  C
  C960     1.0000 0.85033  0.91280  0.56987  Biso   1.000  C
  C961     1.0000 0.85033  0.91276  0.56987  Biso   1.000  C
  C962     1.0000 0.85029  0.91280  0.56987  Biso   1.000  C
  C963     1.0000 0.85029  0.91276  0.56987  Biso   1.000  C
  H997     1.0000 0.84452  0.97765  0.62751  Biso   1.000  H
  C964     1.0000 0.91280  0.93011  0.64973  Biso   1.000  C
  H998     1.0000 0.84452  0.97761  0.62751  Biso   1.000  H
  C965     1.0000 0.91280  0.93015  0.64973  Biso   1.000  C
  C966     1.0000 0.91276  0.93015  0.64973  Biso   1.000  C
  N193     1.0000 0.96535  0.94932  0.73544  Biso   1.000  N
  H999     1.0000 0.90356  0.99512  0.70983  Biso   1.000  H
  N194     1.0000 0.96535  0.94936  0.73544  Biso   1.000  N
  N195     1.0000 0.96531  0.94932  0.73544  Biso   1.000  N
  H1000    1.0000 0.90352  0.99512  0.70983  Biso   1.000  H
  N196     1.0000 0.96531  0.94936  0.73544  Biso   1.000  N
  C967     1.0000 0.93011  0.85033  0.58726  Biso   1.000  C
  C968     1.0000 0.93011  0.85029  0.58726  Biso   1.000  C
  C969     1.0000 0.93015  0.85033  0.58726  Biso   1.000  C
  C970     1.0000 0.93015  0.85029  0.58726  Biso   1.000  C
  H1001    1.0000 0.97765  0.87256  0.65550  Biso   1.000  H
  H1002    1.0000 0.97765  0.87251  0.65550  Biso   1.000  H
  H1003    1.0000 0.97761  0.87256  0.65550  Biso   1.000  H
  H1004    1.0000 0.97761  0.87251  0.65550  Biso   1.000  H
  C971     1.0000 0.79855  0.92578  0.53738  Biso   1.000  C
  C972     1.0000 0.88265  0.86611  0.55486  Biso   1.000  C
  C973     1.0000 0.88265  0.86607  0.55486  Biso   1.000  C
  C974     1.0000 0.88261  0.86611  0.55486  Biso   1.000  C
  C975     1.0000 0.88261  0.86607  0.55486  Biso   1.000  C
  C976     1.0000 0.97150  0.98533  0.78528  Biso   1.000  C
  C977     1.0000 0.97150  0.98528  0.78528  Biso   1.000  C
  C978     1.0000 0.97154  0.98533  0.78528  Biso   1.000  C
  C979     1.0000 0.97154  0.98528  0.78528  Biso   1.000  C
  C980     1.0000 0.96268  0.79855  0.57424  Biso   1.000  C
  C981     1.0000 0.96264  0.79855  0.57424  Biso   1.000  C
  N197     1.0000 0.76462  0.96535  0.55066  Biso   1.000  N
  H1005    1.0000 0.79024  0.90356  0.50490  Biso   1.000  H
  N198     1.0000 0.76462  0.96531  0.55066  Biso   1.000  N
  H1006    1.0000 0.79024  0.90352  0.50490  Biso   1.000  H
  H1007    1.0000 0.87256  0.84452  0.52241  Biso   1.000  H
  H1008    1.0000 0.87251  0.84452  0.52241  Biso   1.000  H
  H1009    1.0000 0.96794  0.96192  0.81992  Biso   1.000  H
  H1010    1.0000 0.94092  0.01400  0.78570  Biso   1.000  H
  H1011    1.0000 0.94092  0.01404  0.78570  Biso   1.000  H
  C982     1.0000 0.02850  0.01472  0.78528  Biso   1.000  C
  C983     1.0000 0.02846  0.01472  0.78528  Biso   1.000  C
  H1012    1.0000 0.99512  0.79024  0.59651  Biso   1.000  H
  N199     1.0000 0.94932  0.76462  0.53471  Biso   1.000  N
  N200     1.0000 0.94936  0.76462  0.53471  Biso   1.000  N
  C984     1.0000 0.71479  0.97150  0.51474  Biso   1.000  C
  C985     1.0000 0.71479  0.97154  0.51474  Biso   1.000  C
  C986     1.0000 0.71475  0.97150  0.51474  Biso   1.000  C
  C987     1.0000 0.71475  0.97154  0.51474  Biso   1.000  C
  H1013    1.0000 0.05912  0.98605  0.78570  Biso   1.000  H
  H1014    1.0000 0.05912  0.98600  0.78570  Biso   1.000  H
  H1015    1.0000 0.05908  0.98605  0.78570  Biso   1.000  H
  H1016    1.0000 0.05908  0.98600  0.78570  Biso   1.000  H
  N201     1.0000 0.03469  0.05068  0.73544  Biso   1.000  N
  H1017    1.0000 0.03210  0.03808  0.81992  Biso   1.000  H
  H1018    1.0000 0.03210  0.03813  0.81992  Biso   1.000  H
  N202     1.0000 0.03473  0.05068  0.73544  Biso   1.000  N
  H1019    1.0000 0.03206  0.03808  0.81992  Biso   1.000  H
  H1020    1.0000 0.03206  0.03813  0.81992  Biso   1.000  H
  C988     1.0000 0.98533  0.71479  0.52848  Biso   1.000  C
  C989     1.0000 0.98533  0.71475  0.52848  Biso   1.000  C
  C990     1.0000 0.98528  0.71479  0.52848  Biso   1.000  C
  C991     1.0000 0.98528  0.71475  0.52848  Biso   1.000  C
  H1021    1.0000 0.71432  0.94092  0.48603  Biso   1.000  H
  H1022    1.0000 0.68014  0.96794  0.53811  Biso   1.000  H
  H1023    1.0000 0.68010  0.96794  0.53811  Biso   1.000  H
  C992     1.0000 0.71479  0.02850  0.48530  Biso   1.000  C
  C993     1.0000 0.71479  0.02846  0.48530  Biso   1.000  C
  C994     1.0000 0.71475  0.02850  0.48530  Biso   1.000  C
  C995     1.0000 0.71475  0.02846  0.48530  Biso   1.000  C
  C996     1.0000 0.07422  0.03736  0.70147  Biso   1.000  C
  H1024    1.0000 0.96192  0.68014  0.53213  Biso   1.000  H
  H1025    1.0000 0.96192  0.68010  0.53213  Biso   1.000  H
  C997     1.0000 0.01472  0.71479  0.47152  Biso   1.000  C
  H1026    1.0000 0.01400  0.71432  0.55910  Biso   1.000  H
  C998     1.0000 0.01472  0.71475  0.47152  Biso   1.000  C
  H1027    1.0000 0.01404  0.71432  0.55910  Biso   1.000  H
  N203     1.0000 0.76462  0.03469  0.44934  Biso   1.000  N
  H1028    1.0000 0.68014  0.03210  0.46189  Biso   1.000  H
  H1029    1.0000 0.71432  0.05912  0.51402  Biso   1.000  H
  N204     1.0000 0.76462  0.03473  0.44934  Biso   1.000  N
  H1030    1.0000 0.68014  0.03206  0.46189  Biso   1.000  H
  H1031    1.0000 0.71432  0.05908  0.51402  Biso   1.000  H
  H1032    1.0000 0.68010  0.03210  0.46189  Biso   1.000  H
  H1033    1.0000 0.68010  0.03206  0.46189  Biso   1.000  H
  H1034    1.0000 0.09648  0.00492  0.70983  Biso   1.000  H
  C999     1.0000 0.08724  0.06989  0.64973  Biso   1.000  C
  H1035    1.0000 0.09653  0.00492  0.70983  Biso   1.000  H
  H1036    1.0000 0.98605  0.71432  0.44090  Biso   1.000  H
  H1037    1.0000 0.98600  0.71432  0.44090  Biso   1.000  H
  N205     1.0000 0.05068  0.76462  0.46529  Biso   1.000  N
  H1038    1.0000 0.03808  0.68014  0.46792  Biso   1.000  H
  H1039    1.0000 0.03808  0.68010  0.46792  Biso   1.000  H
  H1040    1.0000 0.03813  0.68014  0.46792  Biso   1.000  H
  H1041    1.0000 0.03813  0.68010  0.46792  Biso   1.000  H
  C1000    1.0000 0.79855  0.07422  0.46266  Biso   1.000  C
  C1001    1.0000 0.05484  0.11739  0.63395  Biso   1.000  C
  C1002    1.0000 0.13393  0.05484  0.61741  Biso   1.000  C
  C1003    1.0000 0.13398  0.05484  0.61741  Biso   1.000  C
  C1004    1.0000 0.03736  0.79855  0.42576  Biso   1.000  C
  H1042    1.0000 0.79024  0.09648  0.49510  Biso   1.000  H
  C1005    1.0000 0.85033  0.08724  0.43013  Biso   1.000  C
  H1043    1.0000 0.79024  0.09653  0.49510  Biso   1.000  H
  C1006    1.0000 0.85029  0.08724  0.43013  Biso   1.000  C
  C1007    1.0000 0.06989  0.14971  0.58726  Biso   1.000  C
  H1044    1.0000 0.02239  0.12749  0.65550  Biso   1.000  H
  C1008    1.0000 0.06989  0.14975  0.58726  Biso   1.000  C
  H1045    1.0000 0.02244  0.12749  0.65550  Biso   1.000  H
  C1009    1.0000 0.14971  0.08724  0.56987  Biso   1.000  C
  H1046    1.0000 0.15552  0.02239  0.62751  Biso   1.000  H
  H1047    1.0000 0.15552  0.02244  0.62751  Biso   1.000  H
  C1010    1.0000 0.14975  0.08724  0.56987  Biso   1.000  C
  H1048    1.0000 0.15548  0.02239  0.62751  Biso   1.000  H
  H1049    1.0000 0.15548  0.02244  0.62751  Biso   1.000  H
  H1050    1.0000 0.00492  0.79024  0.40349  Biso   1.000  H
  C1011    1.0000 0.06989  0.85033  0.41278  Biso   1.000  C
  C1012    1.0000 0.06989  0.85029  0.41278  Biso   1.000  C
  C1013    1.0000 0.86611  0.05484  0.38259  Biso   1.000  C
  C1014    1.0000 0.88265  0.13393  0.44514  Biso   1.000  C
  C1015    1.0000 0.88265  0.13398  0.44514  Biso   1.000  C
  C1016    1.0000 0.86607  0.05484  0.38259  Biso   1.000  C
  C1017    1.0000 0.88261  0.13393  0.44514  Biso   1.000  C
  C1018    1.0000 0.88261  0.13398  0.44514  Biso   1.000  C
  C1019    1.0000 0.03736  0.20145  0.57424  Biso   1.000  C
  C1020    1.0000 0.11739  0.13393  0.55486  Biso   1.000  C
  C1021    1.0000 0.11739  0.13398  0.55486  Biso   1.000  C
  C1022    1.0000 0.20145  0.07422  0.53738  Biso   1.000  C
  C1023    1.0000 0.05484  0.88265  0.36605  Biso   1.000  C
  C1024    1.0000 0.11739  0.86611  0.44514  Biso   1.000  C
  C1025    1.0000 0.05484  0.88261  0.36605  Biso   1.000  C
  C1026    1.0000 0.11739  0.86607  0.44514  Biso   1.000  C
  C1027    1.0000 0.91280  0.06989  0.35027  Biso   1.000  C
  H1051    1.0000 0.84452  0.02239  0.37249  Biso   1.000  H
  H1052    1.0000 0.84452  0.02244  0.37249  Biso   1.000  H
  C1028    1.0000 0.91276  0.06989  0.35027  Biso   1.000  C
  C1029    1.0000 0.93011  0.14971  0.41278  Biso   1.000  C
  H1053    1.0000 0.87256  0.15552  0.47763  Biso   1.000  H
  C1030    1.0000 0.93011  0.14975  0.41278  Biso   1.000  C
  H1054    1.0000 0.87256  0.15548  0.47763  Biso   1.000  H
  C1031    1.0000 0.93015  0.14971  0.41278  Biso   1.000  C
  H1055    1.0000 0.87251  0.15552  0.47763  Biso   1.000  H
  C1032    1.0000 0.93015  0.14975  0.41278  Biso   1.000  C
  H1056    1.0000 0.87251  0.15548  0.47763  Biso   1.000  H
  N206     1.0000 0.05068  0.23542  0.53471  Biso   1.000  N
  H1057    1.0000 0.00492  0.20981  0.59651  Biso   1.000  H
  H1058    1.0000 0.00492  0.20976  0.59651  Biso   1.000  H
  H1059    1.0000 0.12749  0.15552  0.52241  Biso   1.000  H
  H1060    1.0000 0.12749  0.15548  0.52241  Biso   1.000  H
  N207     1.0000 0.23542  0.03469  0.55066  Biso   1.000  N
  H1061    1.0000 0.20981  0.09648  0.50490  Biso   1.000  H
  N208     1.0000 0.23542  0.03473  0.55066  Biso   1.000  N
  H1062    1.0000 0.20981  0.09653  0.50490  Biso   1.000  H
  H1063    1.0000 0.20976  0.09648  0.50490  Biso   1.000  H
  H1064    1.0000 0.20976  0.09653  0.50490  Biso   1.000  H
  C1033    1.0000 0.08724  0.93011  0.35027  Biso   1.000  C
  H1065    1.0000 0.02239  0.87256  0.34450  Biso   1.000  H
  C1034    1.0000 0.08724  0.93015  0.35027  Biso   1.000  C
  H1066    1.0000 0.02239  0.87251  0.34450  Biso   1.000  H
  H1067    1.0000 0.02244  0.87256  0.34450  Biso   1.000  H
  H1068    1.0000 0.02244  0.87251  0.34450  Biso   1.000  H
  C1035    1.0000 0.14971  0.91280  0.43013  Biso   1.000  C
  H1069    1.0000 0.12749  0.84452  0.47763  Biso   1.000  H
  C1036    1.0000 0.14971  0.91276  0.43013  Biso   1.000  C
  C1037    1.0000 0.14975  0.91280  0.43013  Biso   1.000  C
  C1038    1.0000 0.14975  0.91276  0.43013  Biso   1.000  C
  C1039    1.0000 0.92578  0.03736  0.29853  Biso   1.000  C
  C1040    1.0000 0.94521  0.11739  0.36605  Biso   1.000  C
  C1041    1.0000 0.94516  0.11739  0.36605  Biso   1.000  C
  C1042    1.0000 0.96268  0.20145  0.42576  Biso   1.000  C
  C1043    1.0000 0.96264  0.20145  0.42576  Biso   1.000  C
  C1044    1.0000 0.01472  0.28525  0.52848  Biso   1.000  C
  C1045    1.0000 0.01472  0.28530  0.52848  Biso   1.000  C
  C1046    1.0000 0.28525  0.02850  0.51474  Biso   1.000  C
  C1047    1.0000 0.28525  0.02846  0.51474  Biso   1.000  C
  C1048    1.0000 0.28530  0.02850  0.51474  Biso   1.000  C
  C1049    1.0000 0.28530  0.02846  0.51474  Biso   1.000  C
  C1050    1.0000 0.07422  0.96268  0.29853  Biso   1.000  C
  C1051    1.0000 0.13393  0.94521  0.38259  Biso   1.000  C
  C1052    1.0000 0.07422  0.96264  0.29853  Biso   1.000  C
  C1053    1.0000 0.13393  0.94516  0.38259  Biso   1.000  C
  C1054    1.0000 0.13398  0.94521  0.38259  Biso   1.000  C
  C1055    1.0000 0.13398  0.94516  0.38259  Biso   1.000  C
  C1056    1.0000 0.20145  0.92578  0.46266  Biso   1.000  C
  N209     1.0000 0.96535  0.05068  0.26460  Biso   1.000  N
  H1070    1.0000 0.90356  0.00492  0.29022  Biso   1.000  H
  N210     1.0000 0.96531  0.05068  0.26460  Biso   1.000  N
  H1071    1.0000 0.90352  0.00492  0.29022  Biso   1.000  H
  H1072    1.0000 0.97765  0.12749  0.34450  Biso   1.000  H
  H1073    1.0000 0.97761  0.12749  0.34450  Biso   1.000  H
  N211     1.0000 0.94932  0.23542  0.46529  Biso   1.000  N
  H1074    1.0000 0.99512  0.20981  0.40349  Biso   1.000  H
  H1075    1.0000 0.99512  0.20976  0.40349  Biso   1.000  H
  N212     1.0000 0.94936  0.23542  0.46529  Biso   1.000  N
  C1057    1.0000 0.98533  0.28525  0.47152  Biso   1.000  C
  C1058    1.0000 0.98533  0.28530  0.47152  Biso   1.000  C
  C1059    1.0000 0.98528  0.28525  0.47152  Biso   1.000  C
  C1060    1.0000 0.98528  0.28530  0.47152  Biso   1.000  C
  H1076    1.0000 0.98605  0.28572  0.55910  Biso   1.000  H
  H1077    1.0000 0.98600  0.28572  0.55910  Biso   1.000  H
  H1078    1.0000 0.03808  0.31990  0.53213  Biso   1.000  H
  H1079    1.0000 0.03813  0.31990  0.53213  Biso   1.000  H
  C1061    1.0000 0.28525  0.97150  0.48530  Biso   1.000  C
  C1062    1.0000 0.28525  0.97154  0.48530  Biso   1.000  C
  C1063    1.0000 0.28530  0.97150  0.48530  Biso   1.000  C
  C1064    1.0000 0.28530  0.97154  0.48530  Biso   1.000  C
  H1080    1.0000 0.31990  0.03210  0.53811  Biso   1.000  H
  H1081    1.0000 0.28572  0.05912  0.48603  Biso   1.000  H
  H1082    1.0000 0.31990  0.03206  0.53811  Biso   1.000  H
  H1083    1.0000 0.28572  0.05908  0.48603  Biso   1.000  H
  N213     1.0000 0.03469  0.94932  0.26460  Biso   1.000  N
  N214     1.0000 0.03469  0.94936  0.26460  Biso   1.000  N
  N215     1.0000 0.03473  0.94932  0.26460  Biso   1.000  N
  N216     1.0000 0.03473  0.94936  0.26460  Biso   1.000  N
  H1084    1.0000 0.09648  0.99512  0.29022  Biso   1.000  H
  H1085    1.0000 0.09653  0.99512  0.29022  Biso   1.000  H
  H1086    1.0000 0.15552  0.97765  0.37249  Biso   1.000  H
  H1087    1.0000 0.15552  0.97761  0.37249  Biso   1.000  H
  H1088    1.0000 0.15548  0.97765  0.37249  Biso   1.000  H
  H1089    1.0000 0.15548  0.97761  0.37249  Biso   1.000  H
  N217     1.0000 0.23542  0.96535  0.44934  Biso   1.000  N
  H1090    1.0000 0.20981  0.90356  0.49510  Biso   1.000  H
  N218     1.0000 0.23542  0.96531  0.44934  Biso   1.000  N
  H1091    1.0000 0.20981  0.90352  0.49510  Biso   1.000  H
  H1092    1.0000 0.20976  0.90356  0.49510  Biso   1.000  H
  H1093    1.0000 0.20976  0.90352  0.49510  Biso   1.000  H
  C1065    1.0000 0.97150  0.01472  0.21477  Biso   1.000  C
  C1066    1.0000 0.97154  0.01472  0.21477  Biso   1.000  C
  H1094    1.0000 0.96192  0.31990  0.46792  Biso   1.000  H
  H1095    1.0000 0.01400  0.28572  0.44090  Biso   1.000  H
  H1096    1.0000 0.01404  0.28572  0.44090  Biso   1.000  H
  H1097    1.0000 0.31990  0.96794  0.46189  Biso   1.000  H
  H1098    1.0000 0.28572  0.94092  0.51402  Biso   1.000  H
  C1067    1.0000 0.02850  0.98533  0.21477  Biso   1.000  C
  C1068    1.0000 0.02850  0.98528  0.21477  Biso   1.000  C
  C1069    1.0000 0.02846  0.98533  0.21477  Biso   1.000  C
  C1070    1.0000 0.02846  0.98528  0.21477  Biso   1.000  C
  H1099    1.0000 0.94092  0.98605  0.21430  Biso   1.000  H
  H1100    1.0000 0.94092  0.98600  0.21430  Biso   1.000  H
  H1101    1.0000 0.96794  0.03808  0.18012  Biso   1.000  H
  H1102    1.0000 0.96794  0.03813  0.18012  Biso   1.000  H
  H1103    1.0000 0.03210  0.96192  0.18012  Biso   1.000  H
  H1104    1.0000 0.03206  0.96192  0.18012  Biso   1.000  H
  H1105    1.0000 0.05912  0.01400  0.21430  Biso   1.000  H
  H1106    1.0000 0.05912  0.01404  0.21430  Biso   1.000  H
  H1107    1.0000 0.05908  0.01400  0.21430  Biso   1.000  H
  H1108    1.0000 0.05908  0.01404  0.21430  Biso   1.000  H
  C1071    1.0000 0.91276  0.93011  0.64973  Biso   1.000  C
  C1072    1.0000 0.86611  0.94521  0.61741  Biso   1.000  C
  C1073    1.0000 0.86611  0.94516  0.61741  Biso   1.000  C
  C1074    1.0000 0.86607  0.94521  0.61741  Biso   1.000  C
  C1075    1.0000 0.86607  0.94516  0.61741  Biso   1.000  C
  C1076    1.0000 0.92578  0.96268  0.70147  Biso   1.000  C
  C1077    1.0000 0.94521  0.88265  0.63395  Biso   1.000  C
  C1078    1.0000 0.92578  0.96264  0.70147  Biso   1.000  C
  C1079    1.0000 0.94521  0.88261  0.63395  Biso   1.000  C
  C1080    1.0000 0.94516  0.88265  0.63395  Biso   1.000  C
  C1081    1.0000 0.94516  0.88261  0.63395  Biso   1.000  C
  C1082    1.0000 0.85033  0.91280  0.56987  Biso   1.000  C
  C1083    1.0000 0.85033  0.91276  0.56987  Biso   1.000  C
  C1084    1.0000 0.85029  0.91280  0.56987  Biso   1.000  C
  C1085    1.0000 0.85029  0.91276  0.56987  Biso   1.000  C
  H1109    1.0000 0.84452  0.97765  0.62751  Biso   1.000  H
  C1086    1.0000 0.91280  0.93011  0.64973  Biso   1.000  C
  H1110    1.0000 0.84452  0.97761  0.62751  Biso   1.000  H
  C1087    1.0000 0.91280  0.93015  0.64973  Biso   1.000  C
  C1088    1.0000 0.91276  0.93015  0.64973  Biso   1.000  C
  N219     1.0000 0.96535  0.94932  0.73544  Biso   1.000  N
  H1111    1.0000 0.90356  0.99512  0.70983  Biso   1.000  H
  N220     1.0000 0.96535  0.94936  0.73544  Biso   1.000  N
  N221     1.0000 0.96531  0.94932  0.73544  Biso   1.000  N
  H1112    1.0000 0.90352  0.99512  0.70983  Biso   1.000  H
  N222     1.0000 0.96531  0.94936  0.73544  Biso   1.000  N
  C1089    1.0000 0.93011  0.85033  0.58726  Biso   1.000  C
  C1090    1.0000 0.93011  0.85029  0.58726  Biso   1.000  C
  C1091    1.0000 0.93015  0.85033  0.58726  Biso   1.000  C
  C1092    1.0000 0.93015  0.85029  0.58726  Biso   1.000  C
  H1113    1.0000 0.97765  0.87256  0.65550  Biso   1.000  H
  H1114    1.0000 0.97765  0.87251  0.65550  Biso   1.000  H
  H1115    1.0000 0.97761  0.87256  0.65550  Biso   1.000  H
  H1116    1.0000 0.97761  0.87251  0.65550  Biso   1.000  H
  C1093    1.0000 0.79855  0.92578  0.53738  Biso   1.000  C
  C1094    1.0000 0.88265  0.86611  0.55486  Biso   1.000  C
  C1095    1.0000 0.88265  0.86607  0.55486  Biso   1.000  C
  C1096    1.0000 0.88261  0.86611  0.55486  Biso   1.000  C
  C1097    1.0000 0.88261  0.86607  0.55486  Biso   1.000  C
  C1098    1.0000 0.97150  0.98533  0.78528  Biso   1.000  C
  C1099    1.0000 0.97150  0.98528  0.78528  Biso   1.000  C
  C1100    1.0000 0.97154  0.98533  0.78528  Biso   1.000  C
  C1101    1.0000 0.97154  0.98528  0.78528  Biso   1.000  C
  C1102    1.0000 0.96268  0.79855  0.57424  Biso   1.000  C
  C1103    1.0000 0.96264  0.79855  0.57424  Biso   1.000  C
  N223     1.0000 0.76462  0.96535  0.55066  Biso   1.000  N
  H1117    1.0000 0.79024  0.90356  0.50490  Biso   1.000  H
  N224     1.0000 0.76462  0.96531  0.55066  Biso   1.000  N
  H1118    1.0000 0.79024  0.90352  0.50490  Biso   1.000  H
  H1119    1.0000 0.87256  0.84452  0.52241  Biso   1.000  H
  H1120    1.0000 0.87251  0.84452  0.52241  Biso   1.000  H
  H1121    1.0000 0.96794  0.96192  0.81992  Biso   1.000  H
  H1122    1.0000 0.94092  0.01400  0.78570  Biso   1.000  H
  H1123    1.0000 0.94092  0.01404  0.78570  Biso   1.000  H
  C1104    1.0000 0.02850  0.01472  0.78528  Biso   1.000  C
  C1105    1.0000 0.02846  0.01472  0.78528  Biso   1.000  C
  H1124    1.0000 0.99512  0.79024  0.59651  Biso   1.000  H
  N225     1.0000 0.94932  0.76462  0.53471  Biso   1.000  N
  N226     1.0000 0.94936  0.76462  0.53471  Biso   1.000  N
  C1106    1.0000 0.71479  0.97150  0.51474  Biso   1.000  C
  C1107    1.0000 0.71479  0.97154  0.51474  Biso   1.000  C
  C1108    1.0000 0.71475  0.97150  0.51474  Biso   1.000  C
  C1109    1.0000 0.71475  0.97154  0.51474  Biso   1.000  C
  H1125    1.0000 0.05912  0.98605  0.78570  Biso   1.000  H
  H1126    1.0000 0.05912  0.98600  0.78570  Biso   1.000  H
  H1127    1.0000 0.05908  0.98605  0.78570  Biso   1.000  H
  H1128    1.0000 0.05908  0.98600  0.78570  Biso   1.000  H
  N227     1.0000 0.03469  0.05068  0.73544  Biso   1.000  N
  H1129    1.0000 0.03210  0.03808  0.81992  Biso   1.000  H
  H1130    1.0000 0.03210  0.03813  0.81992  Biso   1.000  H
  N228     1.0000 0.03473  0.05068  0.73544  Biso   1.000  N
  H1131    1.0000 0.03206  0.03808  0.81992  Biso   1.000  H
  H1132    1.0000 0.03206  0.03813  0.81992  Biso   1.000  H
  C1110    1.0000 0.98533  0.71479  0.52848  Biso   1.000  C
  C1111    1.0000 0.98533  0.71475  0.52848  Biso   1.000  C
  C1112    1.0000 0.98528  0.71479  0.52848  Biso   1.000  C
  C1113    1.0000 0.98528  0.71475  0.52848  Biso   1.000  C
  H1133    1.0000 0.71432  0.94092  0.48603  Biso   1.000  H
  H1134    1.0000 0.68014  0.96794  0.53811  Biso   1.000  H
  H1135    1.0000 0.68010  0.96794  0.53811  Biso   1.000  H
  C1114    1.0000 0.71479  0.02850  0.48530  Biso   1.000  C
  C1115    1.0000 0.71479  0.02846  0.48530  Biso   1.000  C
  C1116    1.0000 0.71475  0.02850  0.48530  Biso   1.000  C
  C1117    1.0000 0.71475  0.02846  0.48530  Biso   1.000  C
  C1118    1.0000 0.07422  0.03736  0.70147  Biso   1.000  C
  H1136    1.0000 0.96192  0.68014  0.53213  Biso   1.000  H
  H1137    1.0000 0.96192  0.68010  0.53213  Biso   1.000  H
  C1119    1.0000 0.01472  0.71479  0.47152  Biso   1.000  C
  H1138    1.0000 0.01400  0.71432  0.55910  Biso   1.000  H
  C1120    1.0000 0.01472  0.71475  0.47152  Biso   1.000  C
  H1139    1.0000 0.01404  0.71432  0.55910  Biso   1.000  H
  N229     1.0000 0.76462  0.03469  0.44934  Biso   1.000  N
  H1140    1.0000 0.68014  0.03210  0.46189  Biso   1.000  H
  H1141    1.0000 0.71432  0.05912  0.51402  Biso   1.000  H
  N230     1.0000 0.76462  0.03473  0.44934  Biso   1.000  N
  H1142    1.0000 0.68014  0.03206  0.46189  Biso   1.000  H
  H1143    1.0000 0.71432  0.05908  0.51402  Biso   1.000  H
  H1144    1.0000 0.68010  0.03210  0.46189  Biso   1.000  H
  H1145    1.0000 0.68010  0.03206  0.46189  Biso   1.000  H
  H1146    1.0000 0.09648  0.00492  0.70983  Biso   1.000  H
  C1121    1.0000 0.08724  0.06989  0.64973  Biso   1.000  C
  H1147    1.0000 0.09653  0.00492  0.70983  Biso   1.000  H
  H1148    1.0000 0.98605  0.71432  0.44090  Biso   1.000  H
  H1149    1.0000 0.98600  0.71432  0.44090  Biso   1.000  H
  N231     1.0000 0.05068  0.76462  0.46529  Biso   1.000  N
  H1150    1.0000 0.03808  0.68014  0.46792  Biso   1.000  H
  H1151    1.0000 0.03808  0.68010  0.46792  Biso   1.000  H
  H1152    1.0000 0.03813  0.68014  0.46792  Biso   1.000  H
  H1153    1.0000 0.03813  0.68010  0.46792  Biso   1.000  H
  C1122    1.0000 0.79855  0.07422  0.46266  Biso   1.000  C
  C1123    1.0000 0.05484  0.11739  0.63395  Biso   1.000  C
  C1124    1.0000 0.13393  0.05484  0.61741  Biso   1.000  C
  C1125    1.0000 0.13398  0.05484  0.61741  Biso   1.000  C
  C1126    1.0000 0.03736  0.79855  0.42576  Biso   1.000  C
  H1154    1.0000 0.79024  0.09648  0.49510  Biso   1.000  H
  C1127    1.0000 0.85033  0.08724  0.43013  Biso   1.000  C
  H1155    1.0000 0.79024  0.09653  0.49510  Biso   1.000  H
  C1128    1.0000 0.85029  0.08724  0.43013  Biso   1.000  C
  C1129    1.0000 0.06989  0.14971  0.58726  Biso   1.000  C
  H1156    1.0000 0.02239  0.12749  0.65550  Biso   1.000  H
  C1130    1.0000 0.06989  0.14975  0.58726  Biso   1.000  C
  H1157    1.0000 0.02244  0.12749  0.65550  Biso   1.000  H
  C1131    1.0000 0.14971  0.08724  0.56987  Biso   1.000  C
  H1158    1.0000 0.15552  0.02239  0.62751  Biso   1.000  H
  H1159    1.0000 0.15552  0.02244  0.62751  Biso   1.000  H
  C1132    1.0000 0.14975  0.08724  0.56987  Biso   1.000  C
  H1160    1.0000 0.15548  0.02239  0.62751  Biso   1.000  H
  H1161    1.0000 0.15548  0.02244  0.62751  Biso   1.000  H
  H1162    1.0000 0.00492  0.79024  0.40349  Biso   1.000  H
  C1133    1.0000 0.06989  0.85033  0.41278  Biso   1.000  C
  C1134    1.0000 0.06989  0.85029  0.41278  Biso   1.000  C
  C1135    1.0000 0.86611  0.05484  0.38259  Biso   1.000  C
  C1136    1.0000 0.88265  0.13393  0.44514  Biso   1.000  C
  C1137    1.0000 0.88265  0.13398  0.44514  Biso   1.000  C
  C1138    1.0000 0.86607  0.05484  0.38259  Biso   1.000  C
  C1139    1.0000 0.88261  0.13393  0.44514  Biso   1.000  C
  C1140    1.0000 0.88261  0.13398  0.44514  Biso   1.000  C
  C1141    1.0000 0.03736  0.20145  0.57424  Biso   1.000  C
  C1142    1.0000 0.11739  0.13393  0.55486  Biso   1.000  C
  C1143    1.0000 0.11739  0.13398  0.55486  Biso   1.000  C
  C1144    1.0000 0.20145  0.07422  0.53738  Biso   1.000  C
  C1145    1.0000 0.05484  0.88265  0.36605  Biso   1.000  C
  C1146    1.0000 0.11739  0.86611  0.44514  Biso   1.000  C
  C1147    1.0000 0.05484  0.88261  0.36605  Biso   1.000  C
  C1148    1.0000 0.11739  0.86607  0.44514  Biso   1.000  C
  C1149    1.0000 0.91280  0.06989  0.35027  Biso   1.000  C
  H1163    1.0000 0.84452  0.02239  0.37249  Biso   1.000  H
  H1164    1.0000 0.84452  0.02244  0.37249  Biso   1.000  H
  C1150    1.0000 0.91276  0.06989  0.35027  Biso   1.000  C
  C1151    1.0000 0.93011  0.14971  0.41278  Biso   1.000  C
  H1165    1.0000 0.87256  0.15552  0.47763  Biso   1.000  H
  C1152    1.0000 0.93011  0.14975  0.41278  Biso   1.000  C
  H1166    1.0000 0.87256  0.15548  0.47763  Biso   1.000  H
  C1153    1.0000 0.93015  0.14971  0.41278  Biso   1.000  C
  H1167    1.0000 0.87251  0.15552  0.47763  Biso   1.000  H
  C1154    1.0000 0.93015  0.14975  0.41278  Biso   1.000  C
  H1168    1.0000 0.87251  0.15548  0.47763  Biso   1.000  H
  N232     1.0000 0.05068  0.23542  0.53471  Biso   1.000  N
  H1169    1.0000 0.00492  0.20981  0.59651  Biso   1.000  H
  H1170    1.0000 0.00492  0.20976  0.59651  Biso   1.000  H
  H1171    1.0000 0.12749  0.15552  0.52241  Biso   1.000  H
  H1172    1.0000 0.12749  0.15548  0.52241  Biso   1.000  H
  N233     1.0000 0.23542  0.03469  0.55066  Biso   1.000  N
  H1173    1.0000 0.20981  0.09648  0.50490  Biso   1.000  H
  N234     1.0000 0.23542  0.03473  0.55066  Biso   1.000  N
  H1174    1.0000 0.20981  0.09653  0.50490  Biso   1.000  H
  H1175    1.0000 0.20976  0.09648  0.50490  Biso   1.000  H
  H1176    1.0000 0.20976  0.09653  0.50490  Biso   1.000  H
  C1155    1.0000 0.08724  0.93011  0.35027  Biso   1.000  C
  H1177    1.0000 0.02239  0.87256  0.34450  Biso   1.000  H
  C1156    1.0000 0.08724  0.93015  0.35027  Biso   1.000  C
  H1178    1.0000 0.02239  0.87251  0.34450  Biso   1.000  H
  H1179    1.0000 0.02244  0.87256  0.34450  Biso   1.000  H
  H1180    1.0000 0.02244  0.87251  0.34450  Biso   1.000  H
  C1157    1.0000 0.14971  0.91280  0.43013  Biso   1.000  C
  H1181    1.0000 0.12749  0.84452  0.47763  Biso   1.000  H
  C1158    1.0000 0.14971  0.91276  0.43013  Biso   1.000  C
  C1159    1.0000 0.14975  0.91280  0.43013  Biso   1.000  C
  C1160    1.0000 0.14975  0.91276  0.43013  Biso   1.000  C
  C1161    1.0000 0.92578  0.03736  0.29853  Biso   1.000  C
  C1162    1.0000 0.94521  0.11739  0.36605  Biso   1.000  C
  C1163    1.0000 0.94516  0.11739  0.36605  Biso   1.000  C
  C1164    1.0000 0.96268  0.20145  0.42576  Biso   1.000  C
  C1165    1.0000 0.96264  0.20145  0.42576  Biso   1.000  C
  C1166    1.0000 0.01472  0.28525  0.52848  Biso   1.000  C
  C1167    1.0000 0.01472  0.28530  0.52848  Biso   1.000  C
  C1168    1.0000 0.28525  0.02850  0.51474  Biso   1.000  C
  C1169    1.0000 0.28525  0.02846  0.51474  Biso   1.000  C
  C1170    1.0000 0.28530  0.02850  0.51474  Biso   1.000  C
  C1171    1.0000 0.28530  0.02846  0.51474  Biso   1.000  C
  C1172    1.0000 0.07422  0.96268  0.29853  Biso   1.000  C
  C1173    1.0000 0.13393  0.94521  0.38259  Biso   1.000  C
  C1174    1.0000 0.07422  0.96264  0.29853  Biso   1.000  C
  C1175    1.0000 0.13393  0.94516  0.38259  Biso   1.000  C
  C1176    1.0000 0.13398  0.94521  0.38259  Biso   1.000  C
  C1177    1.0000 0.13398  0.94516  0.38259  Biso   1.000  C
  C1178    1.0000 0.20145  0.92578  0.46266  Biso   1.000  C
  N235     1.0000 0.96535  0.05068  0.26460  Biso   1.000  N
  H1182    1.0000 0.90356  0.00492  0.29022  Biso   1.000  H
  N236     1.0000 0.96531  0.05068  0.26460  Biso   1.000  N
  H1183    1.0000 0.90352  0.00492  0.29022  Biso   1.000  H
  H1184    1.0000 0.97765  0.12749  0.34450  Biso   1.000  H
  H1185    1.0000 0.97761  0.12749  0.34450  Biso   1.000  H
  N237     1.0000 0.94932  0.23542  0.46529  Biso   1.000  N
  H1186    1.0000 0.99512  0.20981  0.40349  Biso   1.000  H
  H1187    1.0000 0.99512  0.20976  0.40349  Biso   1.000  H
  N238     1.0000 0.94936  0.23542  0.46529  Biso   1.000  N
  C1179    1.0000 0.98533  0.28525  0.47152  Biso   1.000  C
  C1180    1.0000 0.98533  0.28530  0.47152  Biso   1.000  C
  C1181    1.0000 0.98528  0.28525  0.47152  Biso   1.000  C
  C1182    1.0000 0.98528  0.28530  0.47152  Biso   1.000  C
  H1188    1.0000 0.98605  0.28572  0.55910  Biso   1.000  H
  H1189    1.0000 0.98600  0.28572  0.55910  Biso   1.000  H
  H1190    1.0000 0.03808  0.31990  0.53213  Biso   1.000  H
  H1191    1.0000 0.03813  0.31990  0.53213  Biso   1.000  H
  C1183    1.0000 0.28525  0.97150  0.48530  Biso   1.000  C
  C1184    1.0000 0.28525  0.97154  0.48530  Biso   1.000  C
  C1185    1.0000 0.28530  0.97150  0.48530  Biso   1.000  C
  C1186    1.0000 0.28530  0.97154  0.48530  Biso   1.000  C
  H1192    1.0000 0.31990  0.03210  0.53811  Biso   1.000  H
  H1193    1.0000 0.28572  0.05912  0.48603  Biso   1.000  H
  H1194    1.0000 0.31990  0.03206  0.53811  Biso   1.000  H
  H1195    1.0000 0.28572  0.05908  0.48603  Biso   1.000  H
  N239     1.0000 0.03469  0.94932  0.26460  Biso   1.000  N
  N240     1.0000 0.03469  0.94936  0.26460  Biso   1.000  N
  N241     1.0000 0.03473  0.94932  0.26460  Biso   1.000  N
  N242     1.0000 0.03473  0.94936  0.26460  Biso   1.000  N
  H1196    1.0000 0.09648  0.99512  0.29022  Biso   1.000  H
  H1197    1.0000 0.09653  0.99512  0.29022  Biso   1.000  H
  H1198    1.0000 0.15552  0.97765  0.37249  Biso   1.000  H
  H1199    1.0000 0.15552  0.97761  0.37249  Biso   1.000  H
  H1200    1.0000 0.15548  0.97765  0.37249  Biso   1.000  H
  H1201    1.0000 0.15548  0.97761  0.37249  Biso   1.000  H
  N243     1.0000 0.23542  0.96535  0.44934  Biso   1.000  N
  H1202    1.0000 0.20981  0.90356  0.49510  Biso   1.000  H
  N244     1.0000 0.23542  0.96531  0.44934  Biso   1.000  N
  H1203    1.0000 0.20981  0.90352  0.49510  Biso   1.000  H
  H1204    1.0000 0.20976  0.90356  0.49510  Biso   1.000  H
  H1205    1.0000 0.20976  0.90352  0.49510  Biso   1.000  H
  C1187    1.0000 0.97150  0.01472  0.21477  Biso   1.000  C
  C1188    1.0000 0.97154  0.01472  0.21477  Biso   1.000  C
  H1206    1.0000 0.96192  0.31990  0.46792  Biso   1.000  H
  H1207    1.0000 0.01400  0.28572  0.44090  Biso   1.000  H
  H1208    1.0000 0.01404  0.28572  0.44090  Biso   1.000  H
  H1209    1.0000 0.31990  0.96794  0.46189  Biso   1.000  H
  H1210    1.0000 0.28572  0.94092  0.51402  Biso   1.000  H
  C1189    1.0000 0.02850  0.98533  0.21477  Biso   1.000  C
  C1190    1.0000 0.02850  0.98528  0.21477  Biso   1.000  C
  C1191    1.0000 0.02846  0.98533  0.21477  Biso   1.000  C
  C1192    1.0000 0.02846  0.98528  0.21477  Biso   1.000  C
  H1211    1.0000 0.94092  0.98605  0.21430  Biso   1.000  H
  H1212    1.0000 0.94092  0.98600  0.21430  Biso   1.000  H
  H1213    1.0000 0.96794  0.03808  0.18012  Biso   1.000  H
  H1214    1.0000 0.96794  0.03813  0.18012  Biso   1.000  H
  H1215    1.0000 0.03210  0.96192  0.18012  Biso   1.000  H
  H1216    1.0000 0.03206  0.96192  0.18012  Biso   1.000  H
  H1217    1.0000 0.05912  0.01400  0.21430  Biso   1.000  H
  H1218    1.0000 0.05912  0.01404  0.21430  Biso   1.000  H
  H1219    1.0000 0.05908  0.01400  0.21430  Biso   1.000  H
  H1220    1.0000 0.05908  0.01404  0.21430  Biso   1.000  H
  C1193    1.0000 0.64973  0.91276  0.93011  Biso   1.000  C
  C1194    1.0000 0.61741  0.86611  0.94521  Biso   1.000  C
  C1195    1.0000 0.61741  0.86611  0.94516  Biso   1.000  C
  C1196    1.0000 0.61741  0.86607  0.94521  Biso   1.000  C
  C1197    1.0000 0.61741  0.86607  0.94516  Biso   1.000  C
  C1198    1.0000 0.70147  0.92578  0.96268  Biso   1.000  C
  C1199    1.0000 0.63395  0.94521  0.88265  Biso   1.000  C
  C1200    1.0000 0.70147  0.92578  0.96264  Biso   1.000  C
  C1201    1.0000 0.63395  0.94521  0.88261  Biso   1.000  C
  C1202    1.0000 0.63395  0.94516  0.88265  Biso   1.000  C
  C1203    1.0000 0.63395  0.94516  0.88261  Biso   1.000  C
  C1204    1.0000 0.56987  0.85033  0.91280  Biso   1.000  C
  C1205    1.0000 0.56987  0.85033  0.91276  Biso   1.000  C
  C1206    1.0000 0.56987  0.85029  0.91280  Biso   1.000  C
  C1207    1.0000 0.56987  0.85029  0.91276  Biso   1.000  C
  H1221    1.0000 0.62751  0.84452  0.97765  Biso   1.000  H
  C1208    1.0000 0.64973  0.91280  0.93011  Biso   1.000  C
  H1222    1.0000 0.62751  0.84452  0.97761  Biso   1.000  H
  C1209    1.0000 0.64973  0.91280  0.93015  Biso   1.000  C
  C1210    1.0000 0.64973  0.91276  0.93015  Biso   1.000  C
  N245     1.0000 0.73544  0.96535  0.94932  Biso   1.000  N
  H1223    1.0000 0.70983  0.90356  0.99512  Biso   1.000  H
  N246     1.0000 0.73544  0.96535  0.94936  Biso   1.000  N
  N247     1.0000 0.73544  0.96531  0.94932  Biso   1.000  N
  H1224    1.0000 0.70983  0.90352  0.99512  Biso   1.000  H
  N248     1.0000 0.73544  0.96531  0.94936  Biso   1.000  N
  C1211    1.0000 0.58726  0.93011  0.85033  Biso   1.000  C
  C1212    1.0000 0.58726  0.93011  0.85029  Biso   1.000  C
  C1213    1.0000 0.58726  0.93015  0.85033  Biso   1.000  C
  C1214    1.0000 0.58726  0.93015  0.85029  Biso   1.000  C
  H1225    1.0000 0.65550  0.97765  0.87256  Biso   1.000  H
  H1226    1.0000 0.65550  0.97765  0.87251  Biso   1.000  H
  H1227    1.0000 0.65550  0.97761  0.87256  Biso   1.000  H
  H1228    1.0000 0.65550  0.97761  0.87251  Biso   1.000  H
  C1215    1.0000 0.53738  0.79855  0.92578  Biso   1.000  C
  C1216    1.0000 0.55486  0.88265  0.86611  Biso   1.000  C
  C1217    1.0000 0.55486  0.88265  0.86607  Biso   1.000  C
  C1218    1.0000 0.55486  0.88261  0.86611  Biso   1.000  C
  C1219    1.0000 0.55486  0.88261  0.86607  Biso   1.000  C
  C1220    1.0000 0.78528  0.97150  0.98533  Biso   1.000  C
  C1221    1.0000 0.78528  0.97150  0.98528  Biso   1.000  C
  C1222    1.0000 0.78528  0.97154  0.98533  Biso   1.000  C
  C1223    1.0000 0.78528  0.97154  0.98528  Biso   1.000  C
  C1224    1.0000 0.57424  0.96268  0.79855  Biso   1.000  C
  C1225    1.0000 0.57424  0.96264  0.79855  Biso   1.000  C
  N249     1.0000 0.55066  0.76462  0.96535  Biso   1.000  N
  N250     1.0000 0.55066  0.76462  0.96531  Biso   1.000  N
  H1229    1.0000 0.50490  0.79024  0.90356  Biso   1.000  H
  H1230    1.0000 0.50490  0.79024  0.90352  Biso   1.000  H
  H1231    1.0000 0.52241  0.87256  0.84452  Biso   1.000  H
  H1232    1.0000 0.52241  0.87251  0.84452  Biso   1.000  H
  H1233    1.0000 0.81992  0.96794  0.96192  Biso   1.000  H
  H1234    1.0000 0.78570  0.94092  0.01400  Biso   1.000  H
  H1235    1.0000 0.78570  0.94092  0.01404  Biso   1.000  H
  C1226    1.0000 0.78528  0.02850  0.01472  Biso   1.000  C
  C1227    1.0000 0.78528  0.02846  0.01472  Biso   1.000  C
  N251     1.0000 0.53471  0.94932  0.76462  Biso   1.000  N
  H1236    1.0000 0.59651  0.99512  0.79024  Biso   1.000  H
  N252     1.0000 0.53471  0.94936  0.76462  Biso   1.000  N
  C1228    1.0000 0.51474  0.71475  0.97150  Biso   1.000  C
  C1229    1.0000 0.51474  0.71479  0.97150  Biso   1.000  C
  C1230    1.0000 0.51474  0.71479  0.97154  Biso   1.000  C
  C1231    1.0000 0.51474  0.71475  0.97154  Biso   1.000  C
  H1237    1.0000 0.78570  0.05912  0.98605  Biso   1.000  H
  H1238    1.0000 0.78570  0.05912  0.98600  Biso   1.000  H
  H1239    1.0000 0.78570  0.05908  0.98605  Biso   1.000  H
  H1240    1.0000 0.78570  0.05908  0.98600  Biso   1.000  H
  N253     1.0000 0.73544  0.03469  0.05068  Biso   1.000  N
  H1241    1.0000 0.81992  0.03210  0.03808  Biso   1.000  H
  H1242    1.0000 0.81992  0.03210  0.03813  Biso   1.000  H
  N254     1.0000 0.73544  0.03473  0.05068  Biso   1.000  N
  H1243    1.0000 0.81992  0.03206  0.03808  Biso   1.000  H
  H1244    1.0000 0.81992  0.03206  0.03813  Biso   1.000  H
  C1232    1.0000 0.52848  0.98533  0.71479  Biso   1.000  C
  C1233    1.0000 0.52848  0.98533  0.71475  Biso   1.000  C
  C1234    1.0000 0.52848  0.98528  0.71479  Biso   1.000  C
  C1235    1.0000 0.52848  0.98528  0.71475  Biso   1.000  C
  H1245    1.0000 0.53811  0.68014  0.96794  Biso   1.000  H
  H1246    1.0000 0.48603  0.71432  0.94092  Biso   1.000  H
  H1247    1.0000 0.53811  0.68010  0.96794  Biso   1.000  H
  C1236    1.0000 0.48530  0.71479  0.02850  Biso   1.000  C
  C1237    1.0000 0.48530  0.71479  0.02846  Biso   1.000  C
  C1238    1.0000 0.48530  0.71475  0.02850  Biso   1.000  C
  C1239    1.0000 0.48530  0.71475  0.02846  Biso   1.000  C
  C1240    1.0000 0.70147  0.07422  0.03736  Biso   1.000  C
  H1248    1.0000 0.53213  0.96192  0.68014  Biso   1.000  H
  H1249    1.0000 0.53213  0.96192  0.68010  Biso   1.000  H
  C1241    1.0000 0.47152  0.01472  0.71479  Biso   1.000  C
  H1250    1.0000 0.55910  0.01400  0.71432  Biso   1.000  H
  C1242    1.0000 0.47152  0.01472  0.71475  Biso   1.000  C
  H1251    1.0000 0.55910  0.01404  0.71432  Biso   1.000  H
  N255     1.0000 0.44934  0.76462  0.03469  Biso   1.000  N
  H1252    1.0000 0.46189  0.68014  0.03210  Biso   1.000  H
  H1253    1.0000 0.51402  0.71432  0.05912  Biso   1.000  H
  N256     1.0000 0.44934  0.76462  0.03473  Biso   1.000  N
  H1254    1.0000 0.46189  0.68014  0.03206  Biso   1.000  H
  H1255    1.0000 0.51402  0.71432  0.05908  Biso   1.000  H
  H1256    1.0000 0.46189  0.68010  0.03210  Biso   1.000  H
  H1257    1.0000 0.46189  0.68010  0.03206  Biso   1.000  H
  H1258    1.0000 0.70983  0.09648  0.00492  Biso   1.000  H
  C1243    1.0000 0.64973  0.08724  0.06989  Biso   1.000  C
  H1259    1.0000 0.70983  0.09653  0.00492  Biso   1.000  H
  H1260    1.0000 0.44090  0.98605  0.71432  Biso   1.000  H
  H1261    1.0000 0.44090  0.98600  0.71432  Biso   1.000  H
  N257     1.0000 0.46529  0.05068  0.76462  Biso   1.000  N
  H1262    1.0000 0.46792  0.03808  0.68014  Biso   1.000  H
  H1263    1.0000 0.46792  0.03808  0.68010  Biso   1.000  H
  H1264    1.0000 0.46792  0.03813  0.68014  Biso   1.000  H
  H1265    1.0000 0.46792  0.03813  0.68010  Biso   1.000  H
  C1244    1.0000 0.46266  0.79855  0.07422  Biso   1.000  C
  C1245    1.0000 0.63395  0.05484  0.11739  Biso   1.000  C
  C1246    1.0000 0.61741  0.13393  0.05484  Biso   1.000  C
  C1247    1.0000 0.61741  0.13398  0.05484  Biso   1.000  C
  C1248    1.0000 0.42576  0.03736  0.79855  Biso   1.000  C
  H1266    1.0000 0.49510  0.79024  0.09648  Biso   1.000  H
  C1249    1.0000 0.43013  0.85033  0.08724  Biso   1.000  C
  H1267    1.0000 0.49510  0.79024  0.09653  Biso   1.000  H
  C1250    1.0000 0.43013  0.85029  0.08724  Biso   1.000  C
  C1251    1.0000 0.58726  0.06989  0.14971  Biso   1.000  C
  C1252    1.0000 0.58726  0.06989  0.14975  Biso   1.000  C
  H1268    1.0000 0.65550  0.02239  0.12749  Biso   1.000  H
  H1269    1.0000 0.65550  0.02244  0.12749  Biso   1.000  H
  C1253    1.0000 0.56987  0.14971  0.08724  Biso   1.000  C
  H1270    1.0000 0.62751  0.15552  0.02239  Biso   1.000  H
  H1271    1.0000 0.62751  0.15552  0.02244  Biso   1.000  H
  C1254    1.0000 0.56987  0.14975  0.08724  Biso   1.000  C
  H1272    1.0000 0.62751  0.15548  0.02239  Biso   1.000  H
  H1273    1.0000 0.62751  0.15548  0.02244  Biso   1.000  H
  H1274    1.0000 0.40349  0.00492  0.79024  Biso   1.000  H
  C1255    1.0000 0.41278  0.06989  0.85033  Biso   1.000  C
  C1256    1.0000 0.41278  0.06989  0.85029  Biso   1.000  C
  C1257    1.0000 0.38259  0.86611  0.05484  Biso   1.000  C
  C1258    1.0000 0.44514  0.88265  0.13393  Biso   1.000  C
  C1259    1.0000 0.44514  0.88265  0.13398  Biso   1.000  C
  C1260    1.0000 0.38259  0.86607  0.05484  Biso   1.000  C
  C1261    1.0000 0.44514  0.88261  0.13393  Biso   1.000  C
  C1262    1.0000 0.44514  0.88261  0.13398  Biso   1.000  C
  C1263    1.0000 0.57424  0.03736  0.20145  Biso   1.000  C
  C1264    1.0000 0.55486  0.11739  0.13393  Biso   1.000  C
  C1265    1.0000 0.55486  0.11739  0.13398  Biso   1.000  C
  C1266    1.0000 0.53738  0.20145  0.07422  Biso   1.000  C
  C1267    1.0000 0.36605  0.05484  0.88265  Biso   1.000  C
  C1268    1.0000 0.44514  0.11739  0.86611  Biso   1.000  C
  C1269    1.0000 0.36605  0.05484  0.88261  Biso   1.000  C
  C1270    1.0000 0.44514  0.11739  0.86607  Biso   1.000  C
  C1271    1.0000 0.35027  0.91280  0.06989  Biso   1.000  C
  H1275    1.0000 0.37249  0.84452  0.02239  Biso   1.000  H
  H1276    1.0000 0.37249  0.84452  0.02244  Biso   1.000  H
  C1272    1.0000 0.35027  0.91276  0.06989  Biso   1.000  C
  C1273    1.0000 0.41278  0.93011  0.14971  Biso   1.000  C
  H1277    1.0000 0.47763  0.87256  0.15552  Biso   1.000  H
  C1274    1.0000 0.41278  0.93011  0.14975  Biso   1.000  C
  H1278    1.0000 0.47763  0.87256  0.15548  Biso   1.000  H
  C1275    1.0000 0.41278  0.93015  0.14971  Biso   1.000  C
  H1279    1.0000 0.47763  0.87251  0.15552  Biso   1.000  H
  C1276    1.0000 0.41278  0.93015  0.14975  Biso   1.000  C
  H1280    1.0000 0.47763  0.87251  0.15548  Biso   1.000  H
  N258     1.0000 0.53471  0.05068  0.23542  Biso   1.000  N
  H1281    1.0000 0.59651  0.00492  0.20981  Biso   1.000  H
  H1282    1.0000 0.59651  0.00492  0.20976  Biso   1.000  H
  H1283    1.0000 0.52241  0.12749  0.15552  Biso   1.000  H
  H1284    1.0000 0.52241  0.12749  0.15548  Biso   1.000  H
  N259     1.0000 0.55066  0.23542  0.03469  Biso   1.000  N
  H1285    1.0000 0.50490  0.20981  0.09648  Biso   1.000  H
  N260     1.0000 0.55066  0.23542  0.03473  Biso   1.000  N
  H1286    1.0000 0.50490  0.20981  0.09653  Biso   1.000  H
  H1287    1.0000 0.50490  0.20976  0.09648  Biso   1.000  H
  H1288    1.0000 0.50490  0.20976  0.09653  Biso   1.000  H
  C1277    1.0000 0.35027  0.08724  0.93011  Biso   1.000  C
  C1278    1.0000 0.35027  0.08724  0.93015  Biso   1.000  C
  H1289    1.0000 0.34450  0.02239  0.87256  Biso   1.000  H
  H1290    1.0000 0.34450  0.02239  0.87251  Biso   1.000  H
  H1291    1.0000 0.34450  0.02244  0.87256  Biso   1.000  H
  H1292    1.0000 0.34450  0.02244  0.87251  Biso   1.000  H
  C1279    1.0000 0.43013  0.14971  0.91280  Biso   1.000  C
  H1293    1.0000 0.47763  0.12749  0.84452  Biso   1.000  H
  C1280    1.0000 0.43013  0.14971  0.91276  Biso   1.000  C
  C1281    1.0000 0.43013  0.14975  0.91280  Biso   1.000  C
  C1282    1.0000 0.43013  0.14975  0.91276  Biso   1.000  C
  C1283    1.0000 0.29853  0.92578  0.03736  Biso   1.000  C
  C1284    1.0000 0.36605  0.94521  0.11739  Biso   1.000  C
  C1285    1.0000 0.36605  0.94516  0.11739  Biso   1.000  C
  C1286    1.0000 0.42576  0.96268  0.20145  Biso   1.000  C
  C1287    1.0000 0.42576  0.96264  0.20145  Biso   1.000  C
  C1288    1.0000 0.52848  0.01472  0.28525  Biso   1.000  C
  C1289    1.0000 0.52848  0.01472  0.28530  Biso   1.000  C
  C1290    1.0000 0.51474  0.28525  0.02850  Biso   1.000  C
  C1291    1.0000 0.51474  0.28525  0.02846  Biso   1.000  C
  C1292    1.0000 0.51474  0.28530  0.02850  Biso   1.000  C
  C1293    1.0000 0.51474  0.28530  0.02846  Biso   1.000  C
  C1294    1.0000 0.29853  0.07422  0.96268  Biso   1.000  C
  C1295    1.0000 0.29853  0.07422  0.96264  Biso   1.000  C
  C1296    1.0000 0.38259  0.13393  0.94521  Biso   1.000  C
  C1297    1.0000 0.38259  0.13393  0.94516  Biso   1.000  C
  C1298    1.0000 0.38259  0.13398  0.94521  Biso   1.000  C
  C1299    1.0000 0.38259  0.13398  0.94516  Biso   1.000  C
  C1300    1.0000 0.46266  0.20145  0.92578  Biso   1.000  C
  N261     1.0000 0.26460  0.96535  0.05068  Biso   1.000  N
  H1294    1.0000 0.29022  0.90356  0.00492  Biso   1.000  H
  N262     1.0000 0.26460  0.96531  0.05068  Biso   1.000  N
  H1295    1.0000 0.29022  0.90352  0.00492  Biso   1.000  H
  H1296    1.0000 0.34450  0.97765  0.12749  Biso   1.000  H
  H1297    1.0000 0.34450  0.97761  0.12749  Biso   1.000  H
  N263     1.0000 0.46529  0.94932  0.23542  Biso   1.000  N
  H1298    1.0000 0.40349  0.99512  0.20981  Biso   1.000  H
  H1299    1.0000 0.40349  0.99512  0.20976  Biso   1.000  H
  N264     1.0000 0.46529  0.94936  0.23542  Biso   1.000  N
  C1301    1.0000 0.47152  0.98533  0.28525  Biso   1.000  C
  C1302    1.0000 0.47152  0.98533  0.28530  Biso   1.000  C
  C1303    1.0000 0.47152  0.98528  0.28525  Biso   1.000  C
  C1304    1.0000 0.47152  0.98528  0.28530  Biso   1.000  C
  H1300    1.0000 0.55910  0.98605  0.28572  Biso   1.000  H
  H1301    1.0000 0.55910  0.98600  0.28572  Biso   1.000  H
  H1302    1.0000 0.53213  0.03808  0.31990  Biso   1.000  H
  H1303    1.0000 0.53213  0.03813  0.31990  Biso   1.000  H
  C1305    1.0000 0.48530  0.28525  0.97150  Biso   1.000  C
  C1306    1.0000 0.48530  0.28525  0.97154  Biso   1.000  C
  C1307    1.0000 0.48530  0.28530  0.97150  Biso   1.000  C
  C1308    1.0000 0.48530  0.28530  0.97154  Biso   1.000  C
  H1304    1.0000 0.53811  0.31990  0.03210  Biso   1.000  H
  H1305    1.0000 0.48603  0.28572  0.05912  Biso   1.000  H
  H1306    1.0000 0.53811  0.31990  0.03206  Biso   1.000  H
  H1307    1.0000 0.48603  0.28572  0.05908  Biso   1.000  H
  N265     1.0000 0.26460  0.03469  0.94932  Biso   1.000  N
  N266     1.0000 0.26460  0.03469  0.94936  Biso   1.000  N
  N267     1.0000 0.26460  0.03473  0.94932  Biso   1.000  N
  N268     1.0000 0.26460  0.03473  0.94936  Biso   1.000  N
  H1308    1.0000 0.29022  0.09648  0.99512  Biso   1.000  H
  H1309    1.0000 0.29022  0.09653  0.99512  Biso   1.000  H
  H1310    1.0000 0.37249  0.15552  0.97765  Biso   1.000  H
  H1311    1.0000 0.37249  0.15552  0.97761  Biso   1.000  H
  H1312    1.0000 0.37249  0.15548  0.97765  Biso   1.000  H
  H1313    1.0000 0.37249  0.15548  0.97761  Biso   1.000  H
  N269     1.0000 0.44934  0.23542  0.96535  Biso   1.000  N
  H1314    1.0000 0.49510  0.20981  0.90356  Biso   1.000  H
  N270     1.0000 0.44934  0.23542  0.96531  Biso   1.000  N
  H1315    1.0000 0.49510  0.20981  0.90352  Biso   1.000  H
  H1316    1.0000 0.49510  0.20976  0.90356  Biso   1.000  H
  H1317    1.0000 0.49510  0.20976  0.90352  Biso   1.000  H
  C1309    1.0000 0.21477  0.97150  0.01472  Biso   1.000  C
  C1310    1.0000 0.21477  0.97154  0.01472  Biso   1.000  C
  H1318    1.0000 0.46792  0.96192  0.31990  Biso   1.000  H
  H1319    1.0000 0.44090  0.01400  0.28572  Biso   1.000  H
  H1320    1.0000 0.44090  0.01404  0.28572  Biso   1.000  H
  H1321    1.0000 0.46189  0.31990  0.96794  Biso   1.000  H
  H1322    1.0000 0.51402  0.28572  0.94092  Biso   1.000  H
  C1311    1.0000 0.21477  0.02850  0.98533  Biso   1.000  C
  C1312    1.0000 0.21477  0.02850  0.98528  Biso   1.000  C
  C1313    1.0000 0.21477  0.02846  0.98533  Biso   1.000  C
  C1314    1.0000 0.21477  0.02846  0.98528  Biso   1.000  C
  H1323    1.0000 0.21430  0.94092  0.98605  Biso   1.000  H
  H1324    1.0000 0.21430  0.94092  0.98600  Biso   1.000  H
  H1325    1.0000 0.18012  0.96794  0.03808  Biso   1.000  H
  H1326    1.0000 0.18012  0.96794  0.03813  Biso   1.000  H
  H1327    1.0000 0.18012  0.03210  0.96192  Biso   1.000  H
  H1328    1.0000 0.18012  0.03206  0.96192  Biso   1.000  H
  H1329    1.0000 0.21430  0.05912  0.01400  Biso   1.000  H
  H1330    1.0000 0.21430  0.05912  0.01404  Biso   1.000  H
  H1331    1.0000 0.21430  0.05908  0.01400  Biso   1.000  H
  H1332    1.0000 0.21430  0.05908  0.01404  Biso   1.000  H
  C1315    1.0000 0.64973  0.91276  0.93011  Biso   1.000  C
  C1316    1.0000 0.63395  0.94521  0.88265  Biso   1.000  C
  C1317    1.0000 0.63395  0.94521  0.88261  Biso   1.000  C
  C1318    1.0000 0.63395  0.94516  0.88265  Biso   1.000  C
  C1319    1.0000 0.63395  0.94516  0.88261  Biso   1.000  C
  C1320    1.0000 0.61741  0.86611  0.94521  Biso   1.000  C
  C1321    1.0000 0.61741  0.86611  0.94516  Biso   1.000  C
  C1322    1.0000 0.61741  0.86607  0.94521  Biso   1.000  C
  C1323    1.0000 0.61741  0.86607  0.94516  Biso   1.000  C
  C1324    1.0000 0.70147  0.92578  0.96268  Biso   1.000  C
  C1325    1.0000 0.70147  0.92578  0.96264  Biso   1.000  C
  C1326    1.0000 0.58726  0.93011  0.85033  Biso   1.000  C
  C1327    1.0000 0.58726  0.93011  0.85029  Biso   1.000  C
  C1328    1.0000 0.58726  0.93015  0.85033  Biso   1.000  C
  C1329    1.0000 0.58726  0.93015  0.85029  Biso   1.000  C
  C1330    1.0000 0.64973  0.91280  0.93011  Biso   1.000  C
  H1333    1.0000 0.65550  0.97765  0.87256  Biso   1.000  H
  C1331    1.0000 0.64973  0.91280  0.93015  Biso   1.000  C
  H1334    1.0000 0.65550  0.97765  0.87251  Biso   1.000  H
  H1335    1.0000 0.65550  0.97761  0.87256  Biso   1.000  H
  C1332    1.0000 0.64973  0.91276  0.93015  Biso   1.000  C
  H1336    1.0000 0.65550  0.97761  0.87251  Biso   1.000  H
  C1333    1.0000 0.56987  0.85033  0.91280  Biso   1.000  C
  C1334    1.0000 0.56987  0.85033  0.91276  Biso   1.000  C
  C1335    1.0000 0.56987  0.85029  0.91280  Biso   1.000  C
  C1336    1.0000 0.56987  0.85029  0.91276  Biso   1.000  C
  H1337    1.0000 0.62751  0.84452  0.97765  Biso   1.000  H
  H1338    1.0000 0.62751  0.84452  0.97761  Biso   1.000  H
  H1339    1.0000 0.70983  0.90356  0.99512  Biso   1.000  H
  H1340    1.0000 0.70983  0.90352  0.99512  Biso   1.000  H
  N271     1.0000 0.73544  0.96535  0.94932  Biso   1.000  N
  N272     1.0000 0.73544  0.96535  0.94936  Biso   1.000  N
  N273     1.0000 0.73544  0.96531  0.94932  Biso   1.000  N
  N274     1.0000 0.73544  0.96531  0.94936  Biso   1.000  N
  C1337    1.0000 0.57424  0.96268  0.79855  Biso   1.000  C
  C1338    1.0000 0.57424  0.96264  0.79855  Biso   1.000  C
  C1339    1.0000 0.55486  0.88265  0.86611  Biso   1.000  C
  C1340    1.0000 0.55486  0.88265  0.86607  Biso   1.000  C
  C1341    1.0000 0.55486  0.88261  0.86611  Biso   1.000  C
  C1342    1.0000 0.55486  0.88261  0.86607  Biso   1.000  C
  C1343    1.0000 0.53738  0.79855  0.92578  Biso   1.000  C
  C1344    1.0000 0.78528  0.97150  0.98533  Biso   1.000  C
  C1345    1.0000 0.78528  0.97150  0.98528  Biso   1.000  C
  C1346    1.0000 0.78528  0.97154  0.98533  Biso   1.000  C
  C1347    1.0000 0.78528  0.97154  0.98528  Biso   1.000  C
  N275     1.0000 0.53471  0.94932  0.76462  Biso   1.000  N
  H1341    1.0000 0.59651  0.99512  0.79024  Biso   1.000  H
  N276     1.0000 0.53471  0.94936  0.76462  Biso   1.000  N
  H1342    1.0000 0.52241  0.87256  0.84452  Biso   1.000  H
  H1343    1.0000 0.52241  0.87251  0.84452  Biso   1.000  H
  N277     1.0000 0.55066  0.76462  0.96535  Biso   1.000  N
  H1344    1.0000 0.50490  0.79024  0.90356  Biso   1.000  H
  N278     1.0000 0.55066  0.76462  0.96531  Biso   1.000  N
  H1345    1.0000 0.50490  0.79024  0.90352  Biso   1.000  H
  H1346    1.0000 0.81992  0.96794  0.96192  Biso   1.000  H
  H1347    1.0000 0.78570  0.94092  0.01400  Biso   1.000  H
  H1348    1.0000 0.78570  0.94092  0.01404  Biso   1.000  H
  C1348    1.0000 0.78528  0.02850  0.01472  Biso   1.000  C
  C1349    1.0000 0.78528  0.02846  0.01472  Biso   1.000  C
  C1350    1.0000 0.52848  0.98533  0.71479  Biso   1.000  C
  C1351    1.0000 0.52848  0.98533  0.71475  Biso   1.000  C
  C1352    1.0000 0.52848  0.98528  0.71479  Biso   1.000  C
  C1353    1.0000 0.52848  0.98528  0.71475  Biso   1.000  C
  C1354    1.0000 0.51474  0.71479  0.97150  Biso   1.000  C
  C1355    1.0000 0.51474  0.71479  0.97154  Biso   1.000  C
  C1356    1.0000 0.51474  0.71475  0.97150  Biso   1.000  C
  C1357    1.0000 0.51474  0.71475  0.97154  Biso   1.000  C
  H1349    1.0000 0.78570  0.05912  0.98605  Biso   1.000  H
  H1350    1.0000 0.78570  0.05912  0.98600  Biso   1.000  H
  H1351    1.0000 0.78570  0.05908  0.98605  Biso   1.000  H
  H1352    1.0000 0.78570  0.05908  0.98600  Biso   1.000  H
  N279     1.0000 0.73544  0.03469  0.05068  Biso   1.000  N
  H1353    1.0000 0.81992  0.03210  0.03808  Biso   1.000  H
  H1354    1.0000 0.81992  0.03210  0.03813  Biso   1.000  H
  N280     1.0000 0.73544  0.03473  0.05068  Biso   1.000  N
  H1355    1.0000 0.81992  0.03206  0.03808  Biso   1.000  H
  H1356    1.0000 0.81992  0.03206  0.03813  Biso   1.000  H
  H1357    1.0000 0.53213  0.96192  0.68014  Biso   1.000  H
  H1358    1.0000 0.53213  0.96192  0.68010  Biso   1.000  H
  C1358    1.0000 0.47152  0.01472  0.71479  Biso   1.000  C
  H1359    1.0000 0.55910  0.01400  0.71432  Biso   1.000  H
  C1359    1.0000 0.47152  0.01472  0.71475  Biso   1.000  C
  H1360    1.0000 0.55910  0.01404  0.71432  Biso   1.000  H
  H1361    1.0000 0.53811  0.68014  0.96794  Biso   1.000  H
  H1362    1.0000 0.48603  0.71432  0.94092  Biso   1.000  H
  H1363    1.0000 0.53811  0.68010  0.96794  Biso   1.000  H
  C1360    1.0000 0.48530  0.71479  0.02850  Biso   1.000  C
  C1361    1.0000 0.48530  0.71479  0.02846  Biso   1.000  C
  C1362    1.0000 0.48530  0.71475  0.02850  Biso   1.000  C
  C1363    1.0000 0.48530  0.71475  0.02846  Biso   1.000  C
  C1364    1.0000 0.70147  0.07422  0.03736  Biso   1.000  C
  H1364    1.0000 0.44090  0.98605  0.71432  Biso   1.000  H
  H1365    1.0000 0.44090  0.98600  0.71432  Biso   1.000  H
  N281     1.0000 0.46529  0.05068  0.76462  Biso   1.000  N
  H1366    1.0000 0.46792  0.03808  0.68014  Biso   1.000  H
  H1367    1.0000 0.46792  0.03808  0.68010  Biso   1.000  H
  H1368    1.0000 0.46792  0.03813  0.68014  Biso   1.000  H
  H1369    1.0000 0.46792  0.03813  0.68010  Biso   1.000  H
  N282     1.0000 0.44934  0.76462  0.03469  Biso   1.000  N
  H1370    1.0000 0.46189  0.68014  0.03210  Biso   1.000  H
  H1371    1.0000 0.51402  0.71432  0.05912  Biso   1.000  H
  N283     1.0000 0.44934  0.76462  0.03473  Biso   1.000  N
  H1372    1.0000 0.46189  0.68014  0.03206  Biso   1.000  H
  H1373    1.0000 0.51402  0.71432  0.05908  Biso   1.000  H
  H1374    1.0000 0.46189  0.68010  0.03210  Biso   1.000  H
  H1375    1.0000 0.46189  0.68010  0.03206  Biso   1.000  H
  H1376    1.0000 0.70983  0.09648  0.00492  Biso   1.000  H
  C1365    1.0000 0.64973  0.08724  0.06989  Biso   1.000  C
  H1377    1.0000 0.70983  0.09653  0.00492  Biso   1.000  H
  C1366    1.0000 0.42576  0.03736  0.79855  Biso   1.000  C
  C1367    1.0000 0.46266  0.79855  0.07422  Biso   1.000  C
  C1368    1.0000 0.63395  0.05484  0.11739  Biso   1.000  C
  C1369    1.0000 0.61741  0.13393  0.05484  Biso   1.000  C
  C1370    1.0000 0.61741  0.13398  0.05484  Biso   1.000  C
  H1378    1.0000 0.40349  0.00492  0.79024  Biso   1.000  H
  C1371    1.0000 0.41278  0.06989  0.85033  Biso   1.000  C
  C1372    1.0000 0.41278  0.06989  0.85029  Biso   1.000  C
  H1379    1.0000 0.49510  0.79024  0.09648  Biso   1.000  H
  C1373    1.0000 0.43013  0.85033  0.08724  Biso   1.000  C
  H1380    1.0000 0.49510  0.79024  0.09653  Biso   1.000  H
  C1374    1.0000 0.43013  0.85029  0.08724  Biso   1.000  C
  C1375    1.0000 0.58726  0.06989  0.14971  Biso   1.000  C
  H1381    1.0000 0.65550  0.02239  0.12749  Biso   1.000  H
  C1376    1.0000 0.58726  0.06989  0.14975  Biso   1.000  C
  H1382    1.0000 0.65550  0.02244  0.12749  Biso   1.000  H
  C1377    1.0000 0.56987  0.14971  0.08724  Biso   1.000  C
  H1383    1.0000 0.62751  0.15552  0.02239  Biso   1.000  H
  H1384    1.0000 0.62751  0.15552  0.02244  Biso   1.000  H
  C1378    1.0000 0.56987  0.14975  0.08724  Biso   1.000  C
  H1385    1.0000 0.62751  0.15548  0.02239  Biso   1.000  H
  H1386    1.0000 0.62751  0.15548  0.02244  Biso   1.000  H
  C1379    1.0000 0.36605  0.05484  0.88265  Biso   1.000  C
  C1380    1.0000 0.44514  0.11739  0.86611  Biso   1.000  C
  C1381    1.0000 0.36605  0.05484  0.88261  Biso   1.000  C
  C1382    1.0000 0.44514  0.11739  0.86607  Biso   1.000  C
  C1383    1.0000 0.38259  0.86611  0.05484  Biso   1.000  C
  C1384    1.0000 0.44514  0.88265  0.13393  Biso   1.000  C
  C1385    1.0000 0.44514  0.88265  0.13398  Biso   1.000  C
  C1386    1.0000 0.38259  0.86607  0.05484  Biso   1.000  C
  C1387    1.0000 0.44514  0.88261  0.13393  Biso   1.000  C
  C1388    1.0000 0.44514  0.88261  0.13398  Biso   1.000  C
  C1389    1.0000 0.57424  0.03736  0.20145  Biso   1.000  C
  C1390    1.0000 0.55486  0.11739  0.13393  Biso   1.000  C
  C1391    1.0000 0.55486  0.11739  0.13398  Biso   1.000  C
  C1392    1.0000 0.53738  0.20145  0.07422  Biso   1.000  C
  C1393    1.0000 0.35027  0.08724  0.93011  Biso   1.000  C
  H1387    1.0000 0.34450  0.02239  0.87256  Biso   1.000  H
  C1394    1.0000 0.35027  0.08724  0.93015  Biso   1.000  C
  H1388    1.0000 0.34450  0.02239  0.87251  Biso   1.000  H
  H1389    1.0000 0.34450  0.02244  0.87256  Biso   1.000  H
  H1390    1.0000 0.34450  0.02244  0.87251  Biso   1.000  H
  C1395    1.0000 0.43013  0.14971  0.91280  Biso   1.000  C
  H1391    1.0000 0.47763  0.12749  0.84452  Biso   1.000  H
  C1396    1.0000 0.43013  0.14971  0.91276  Biso   1.000  C
  C1397    1.0000 0.43013  0.14975  0.91280  Biso   1.000  C
  C1398    1.0000 0.43013  0.14975  0.91276  Biso   1.000  C
  C1399    1.0000 0.35027  0.91280  0.06989  Biso   1.000  C
  H1392    1.0000 0.37249  0.84452  0.02239  Biso   1.000  H
  H1393    1.0000 0.37249  0.84452  0.02244  Biso   1.000  H
  C1400    1.0000 0.35027  0.91276  0.06989  Biso   1.000  C
  C1401    1.0000 0.41278  0.93011  0.14971  Biso   1.000  C
  H1394    1.0000 0.47763  0.87256  0.15552  Biso   1.000  H
  C1402    1.0000 0.41278  0.93011  0.14975  Biso   1.000  C
  H1395    1.0000 0.47763  0.87256  0.15548  Biso   1.000  H
  C1403    1.0000 0.41278  0.93015  0.14971  Biso   1.000  C
  H1396    1.0000 0.47763  0.87251  0.15552  Biso   1.000  H
  C1404    1.0000 0.41278  0.93015  0.14975  Biso   1.000  C
  H1397    1.0000 0.47763  0.87251  0.15548  Biso   1.000  H
  N284     1.0000 0.53471  0.05068  0.23542  Biso   1.000  N
  H1398    1.0000 0.59651  0.00492  0.20981  Biso   1.000  H
  H1399    1.0000 0.59651  0.00492  0.20976  Biso   1.000  H
  H1400    1.0000 0.52241  0.12749  0.15552  Biso   1.000  H
  H1401    1.0000 0.52241  0.12749  0.15548  Biso   1.000  H
  N285     1.0000 0.55066  0.23542  0.03469  Biso   1.000  N
  N286     1.0000 0.55066  0.23542  0.03473  Biso   1.000  N
  H1402    1.0000 0.50490  0.20981  0.09648  Biso   1.000  H
  H1403    1.0000 0.50490  0.20981  0.09653  Biso   1.000  H
  H1404    1.0000 0.50490  0.20976  0.09648  Biso   1.000  H
  H1405    1.0000 0.50490  0.20976  0.09653  Biso   1.000  H
  C1405    1.0000 0.29853  0.07422  0.96268  Biso   1.000  C
  C1406    1.0000 0.38259  0.13393  0.94521  Biso   1.000  C
  C1407    1.0000 0.29853  0.07422  0.96264  Biso   1.000  C
  C1408    1.0000 0.38259  0.13393  0.94516  Biso   1.000  C
  C1409    1.0000 0.38259  0.13398  0.94521  Biso   1.000  C
  C1410    1.0000 0.38259  0.13398  0.94516  Biso   1.000  C
  C1411    1.0000 0.46266  0.20145  0.92578  Biso   1.000  C
  C1412    1.0000 0.29853  0.92578  0.03736  Biso   1.000  C
  C1413    1.0000 0.36605  0.94521  0.11739  Biso   1.000  C
  C1414    1.0000 0.36605  0.94516  0.11739  Biso   1.000  C
  C1415    1.0000 0.42576  0.96268  0.20145  Biso   1.000  C
  C1416    1.0000 0.42576  0.96264  0.20145  Biso   1.000  C
  C1417    1.0000 0.52848  0.01472  0.28525  Biso   1.000  C
  C1418    1.0000 0.52848  0.01472  0.28530  Biso   1.000  C
  C1419    1.0000 0.51474  0.28525  0.02850  Biso   1.000  C
  C1420    1.0000 0.51474  0.28525  0.02846  Biso   1.000  C
  C1421    1.0000 0.51474  0.28530  0.02850  Biso   1.000  C
  C1422    1.0000 0.51474  0.28530  0.02846  Biso   1.000  C
  N287     1.0000 0.26460  0.03469  0.94932  Biso   1.000  N
  H1406    1.0000 0.29022  0.09648  0.99512  Biso   1.000  H
  N288     1.0000 0.26460  0.03469  0.94936  Biso   1.000  N
  N289     1.0000 0.26460  0.03473  0.94932  Biso   1.000  N
  H1407    1.0000 0.29022  0.09653  0.99512  Biso   1.000  H
  N290     1.0000 0.26460  0.03473  0.94936  Biso   1.000  N
  H1408    1.0000 0.37249  0.15552  0.97765  Biso   1.000  H
  H1409    1.0000 0.37249  0.15552  0.97761  Biso   1.000  H
  H1410    1.0000 0.37249  0.15548  0.97765  Biso   1.000  H
  H1411    1.0000 0.37249  0.15548  0.97761  Biso   1.000  H
  N291     1.0000 0.44934  0.23542  0.96535  Biso   1.000  N
  H1412    1.0000 0.49510  0.20981  0.90356  Biso   1.000  H
  N292     1.0000 0.44934  0.23542  0.96531  Biso   1.000  N
  H1413    1.0000 0.49510  0.20981  0.90352  Biso   1.000  H
  H1414    1.0000 0.49510  0.20976  0.90356  Biso   1.000  H
  H1415    1.0000 0.49510  0.20976  0.90352  Biso   1.000  H
  N293     1.0000 0.26460  0.96535  0.05068  Biso   1.000  N
  N294     1.0000 0.26460  0.96531  0.05068  Biso   1.000  N
  H1416    1.0000 0.29022  0.90356  0.00492  Biso   1.000  H
  H1417    1.0000 0.29022  0.90352  0.00492  Biso   1.000  H
  H1418    1.0000 0.34450  0.97765  0.12749  Biso   1.000  H
  H1419    1.0000 0.34450  0.97761  0.12749  Biso   1.000  H
  N295     1.0000 0.46529  0.94932  0.23542  Biso   1.000  N
  H1420    1.0000 0.40349  0.99512  0.20981  Biso   1.000  H
  H1421    1.0000 0.40349  0.99512  0.20976  Biso   1.000  H
  N296     1.0000 0.46529  0.94936  0.23542  Biso   1.000  N
  C1423    1.0000 0.47152  0.98533  0.28525  Biso   1.000  C
  C1424    1.0000 0.47152  0.98533  0.28530  Biso   1.000  C
  C1425    1.0000 0.47152  0.98528  0.28525  Biso   1.000  C
  C1426    1.0000 0.47152  0.98528  0.28530  Biso   1.000  C
  H1422    1.0000 0.55910  0.98605  0.28572  Biso   1.000  H
  H1423    1.0000 0.55910  0.98600  0.28572  Biso   1.000  H
  H1424    1.0000 0.53213  0.03808  0.31990  Biso   1.000  H
  H1425    1.0000 0.53213  0.03813  0.31990  Biso   1.000  H
  C1427    1.0000 0.48530  0.28525  0.97150  Biso   1.000  C
  C1428    1.0000 0.48530  0.28525  0.97154  Biso   1.000  C
  C1429    1.0000 0.48530  0.28530  0.97150  Biso   1.000  C
  C1430    1.0000 0.48530  0.28530  0.97154  Biso   1.000  C
  H1426    1.0000 0.53811  0.31990  0.03210  Biso   1.000  H
  H1427    1.0000 0.48603  0.28572  0.05912  Biso   1.000  H
  H1428    1.0000 0.53811  0.31990  0.03206  Biso   1.000  H
  H1429    1.0000 0.48603  0.28572  0.05908  Biso   1.000  H
  C1431    1.0000 0.21477  0.02850  0.98533  Biso   1.000  C
  C1432    1.0000 0.21477  0.02850  0.98528  Biso   1.000  C
  C1433    1.0000 0.21477  0.02846  0.98533  Biso   1.000  C
  C1434    1.0000 0.21477  0.02846  0.98528  Biso   1.000  C
  C1435    1.0000 0.21477  0.97150  0.01472  Biso   1.000  C
  C1436    1.0000 0.21477  0.97154  0.01472  Biso   1.000  C
  H1430    1.0000 0.46792  0.96192  0.31990  Biso   1.000  H
  H1431    1.0000 0.44090  0.01400  0.28572  Biso   1.000  H
  H1432    1.0000 0.44090  0.01404  0.28572  Biso   1.000  H
  H1433    1.0000 0.46189  0.31990  0.96794  Biso   1.000  H
  H1434    1.0000 0.51402  0.28572  0.94092  Biso   1.000  H
  H1435    1.0000 0.18012  0.03210  0.96192  Biso   1.000  H
  H1436    1.0000 0.18012  0.03206  0.96192  Biso   1.000  H
  H1437    1.0000 0.21430  0.05912  0.01400  Biso   1.000  H
  H1438    1.0000 0.21430  0.05912  0.01404  Biso   1.000  H
  H1439    1.0000 0.21430  0.05908  0.01400  Biso   1.000  H
  H1440    1.0000 0.21430  0.05908  0.01404  Biso   1.000  H
  H1441    1.0000 0.21430  0.94092  0.98605  Biso   1.000  H
  H1442    1.0000 0.21430  0.94092  0.98600  Biso   1.000  H
  H1443    1.0000 0.18012  0.96794  0.03808  Biso   1.000  H
  H1444    1.0000 0.18012  0.96794  0.03813  Biso   1.000  H
  C1437    1.0000 0.64973  0.91276  0.93011  Biso   1.000  C
  C1438    1.0000 0.61741  0.86611  0.94521  Biso   1.000  C
  C1439    1.0000 0.61741  0.86611  0.94516  Biso   1.000  C
  C1440    1.0000 0.61741  0.86607  0.94521  Biso   1.000  C
  C1441    1.0000 0.61741  0.86607  0.94516  Biso   1.000  C
  C1442    1.0000 0.70147  0.92578  0.96268  Biso   1.000  C
  C1443    1.0000 0.63395  0.94521  0.88265  Biso   1.000  C
  C1444    1.0000 0.70147  0.92578  0.96264  Biso   1.000  C
  C1445    1.0000 0.63395  0.94521  0.88261  Biso   1.000  C
  C1446    1.0000 0.63395  0.94516  0.88265  Biso   1.000  C
  C1447    1.0000 0.63395  0.94516  0.88261  Biso   1.000  C
  C1448    1.0000 0.56987  0.85033  0.91280  Biso   1.000  C
  C1449    1.0000 0.56987  0.85033  0.91276  Biso   1.000  C
  C1450    1.0000 0.56987  0.85029  0.91280  Biso   1.000  C
  C1451    1.0000 0.56987  0.85029  0.91276  Biso   1.000  C
  H1445    1.0000 0.62751  0.84452  0.97765  Biso   1.000  H
  C1452    1.0000 0.64973  0.91280  0.93011  Biso   1.000  C
  H1446    1.0000 0.62751  0.84452  0.97761  Biso   1.000  H
  C1453    1.0000 0.64973  0.91280  0.93015  Biso   1.000  C
  C1454    1.0000 0.64973  0.91276  0.93015  Biso   1.000  C
  N297     1.0000 0.73544  0.96535  0.94932  Biso   1.000  N
  H1447    1.0000 0.70983  0.90356  0.99512  Biso   1.000  H
  N298     1.0000 0.73544  0.96535  0.94936  Biso   1.000  N
  N299     1.0000 0.73544  0.96531  0.94932  Biso   1.000  N
  H1448    1.0000 0.70983  0.90352  0.99512  Biso   1.000  H
  N300     1.0000 0.73544  0.96531  0.94936  Biso   1.000  N
  C1455    1.0000 0.58726  0.93011  0.85033  Biso   1.000  C
  C1456    1.0000 0.58726  0.93011  0.85029  Biso   1.000  C
  C1457    1.0000 0.58726  0.93015  0.85033  Biso   1.000  C
  C1458    1.0000 0.58726  0.93015  0.85029  Biso   1.000  C
  H1449    1.0000 0.65550  0.97765  0.87256  Biso   1.000  H
  H1450    1.0000 0.65550  0.97765  0.87251  Biso   1.000  H
  H1451    1.0000 0.65550  0.97761  0.87256  Biso   1.000  H
  H1452    1.0000 0.65550  0.97761  0.87251  Biso   1.000  H
  C1459    1.0000 0.53738  0.79855  0.92578  Biso   1.000  C
  C1460    1.0000 0.55486  0.88265  0.86611  Biso   1.000  C
  C1461    1.0000 0.55486  0.88265  0.86607  Biso   1.000  C
  C1462    1.0000 0.55486  0.88261  0.86611  Biso   1.000  C
  C1463    1.0000 0.55486  0.88261  0.86607  Biso   1.000  C
  C1464    1.0000 0.78528  0.97150  0.98533  Biso   1.000  C
  C1465    1.0000 0.78528  0.97150  0.98528  Biso   1.000  C
  C1466    1.0000 0.78528  0.97154  0.98533  Biso   1.000  C
  C1467    1.0000 0.78528  0.97154  0.98528  Biso   1.000  C
  C1468    1.0000 0.57424  0.96268  0.79855  Biso   1.000  C
  C1469    1.0000 0.57424  0.96264  0.79855  Biso   1.000  C
  N301     1.0000 0.55066  0.76462  0.96535  Biso   1.000  N
  H1453    1.0000 0.50490  0.79024  0.90356  Biso   1.000  H
  N302     1.0000 0.55066  0.76462  0.96531  Biso   1.000  N
  H1454    1.0000 0.50490  0.79024  0.90352  Biso   1.000  H
  H1455    1.0000 0.52241  0.87256  0.84452  Biso   1.000  H
  H1456    1.0000 0.52241  0.87251  0.84452  Biso   1.000  H
  H1457    1.0000 0.81992  0.96794  0.96192  Biso   1.000  H
  H1458    1.0000 0.78570  0.94092  0.01400  Biso   1.000  H
  H1459    1.0000 0.78570  0.94092  0.01404  Biso   1.000  H
  C1470    1.0000 0.78528  0.02850  0.01472  Biso   1.000  C
  C1471    1.0000 0.78528  0.02846  0.01472  Biso   1.000  C
  H1460    1.0000 0.59651  0.99512  0.79024  Biso   1.000  H
  N303     1.0000 0.53471  0.94932  0.76462  Biso   1.000  N
  N304     1.0000 0.53471  0.94936  0.76462  Biso   1.000  N
  C1472    1.0000 0.51474  0.71479  0.97150  Biso   1.000  C
  C1473    1.0000 0.51474  0.71479  0.97154  Biso   1.000  C
  C1474    1.0000 0.51474  0.71475  0.97150  Biso   1.000  C
  C1475    1.0000 0.51474  0.71475  0.97154  Biso   1.000  C
  H1461    1.0000 0.78570  0.05912  0.98605  Biso   1.000  H
  H1462    1.0000 0.78570  0.05912  0.98600  Biso   1.000  H
  H1463    1.0000 0.78570  0.05908  0.98605  Biso   1.000  H
  H1464    1.0000 0.78570  0.05908  0.98600  Biso   1.000  H
  N305     1.0000 0.73544  0.03469  0.05068  Biso   1.000  N
  H1465    1.0000 0.81992  0.03210  0.03808  Biso   1.000  H
  H1466    1.0000 0.81992  0.03210  0.03813  Biso   1.000  H
  N306     1.0000 0.73544  0.03473  0.05068  Biso   1.000  N
  H1467    1.0000 0.81992  0.03206  0.03808  Biso   1.000  H
  H1468    1.0000 0.81992  0.03206  0.03813  Biso   1.000  H
  C1476    1.0000 0.52848  0.98533  0.71479  Biso   1.000  C
  C1477    1.0000 0.52848  0.98533  0.71475  Biso   1.000  C
  C1478    1.0000 0.52848  0.98528  0.71479  Biso   1.000  C
  C1479    1.0000 0.52848  0.98528  0.71475  Biso   1.000  C
  H1469    1.0000 0.48603  0.71432  0.94092  Biso   1.000  H
  H1470    1.0000 0.53811  0.68014  0.96794  Biso   1.000  H
  H1471    1.0000 0.53811  0.68010  0.96794  Biso   1.000  H
  C1480    1.0000 0.48530  0.71479  0.02850  Biso   1.000  C
  C1481    1.0000 0.48530  0.71479  0.02846  Biso   1.000  C
  C1482    1.0000 0.48530  0.71475  0.02850  Biso   1.000  C
  C1483    1.0000 0.48530  0.71475  0.02846  Biso   1.000  C
  C1484    1.0000 0.70147  0.07422  0.03736  Biso   1.000  C
  H1472    1.0000 0.53213  0.96192  0.68014  Biso   1.000  H
  H1473    1.0000 0.53213  0.96192  0.68010  Biso   1.000  H
  C1485    1.0000 0.47152  0.01472  0.71479  Biso   1.000  C
  H1474    1.0000 0.55910  0.01400  0.71432  Biso   1.000  H
  C1486    1.0000 0.47152  0.01472  0.71475  Biso   1.000  C
  H1475    1.0000 0.55910  0.01404  0.71432  Biso   1.000  H
  N307     1.0000 0.44934  0.76462  0.03469  Biso   1.000  N
  H1476    1.0000 0.46189  0.68014  0.03210  Biso   1.000  H
  H1477    1.0000 0.51402  0.71432  0.05912  Biso   1.000  H
  N308     1.0000 0.44934  0.76462  0.03473  Biso   1.000  N
  H1478    1.0000 0.46189  0.68014  0.03206  Biso   1.000  H
  H1479    1.0000 0.51402  0.71432  0.05908  Biso   1.000  H
  H1480    1.0000 0.46189  0.68010  0.03210  Biso   1.000  H
  H1481    1.0000 0.46189  0.68010  0.03206  Biso   1.000  H
  H1482    1.0000 0.70983  0.09648  0.00492  Biso   1.000  H
  C1487    1.0000 0.64973  0.08724  0.06989  Biso   1.000  C
  H1483    1.0000 0.70983  0.09653  0.00492  Biso   1.000  H
  H1484    1.0000 0.44090  0.98605  0.71432  Biso   1.000  H
  H1485    1.0000 0.44090  0.98600  0.71432  Biso   1.000  H
  N309     1.0000 0.46529  0.05068  0.76462  Biso   1.000  N
  H1486    1.0000 0.46792  0.03808  0.68014  Biso   1.000  H
  H1487    1.0000 0.46792  0.03808  0.68010  Biso   1.000  H
  H1488    1.0000 0.46792  0.03813  0.68014  Biso   1.000  H
  H1489    1.0000 0.46792  0.03813  0.68010  Biso   1.000  H
  C1488    1.0000 0.46266  0.79855  0.07422  Biso   1.000  C
  C1489    1.0000 0.63395  0.05484  0.11739  Biso   1.000  C
  C1490    1.0000 0.61741  0.13393  0.05484  Biso   1.000  C
  C1491    1.0000 0.61741  0.13398  0.05484  Biso   1.000  C
  C1492    1.0000 0.42576  0.03736  0.79855  Biso   1.000  C
  H1490    1.0000 0.49510  0.79024  0.09648  Biso   1.000  H
  C1493    1.0000 0.43013  0.85033  0.08724  Biso   1.000  C
  H1491    1.0000 0.49510  0.79024  0.09653  Biso   1.000  H
  C1494    1.0000 0.43013  0.85029  0.08724  Biso   1.000  C
  C1495    1.0000 0.58726  0.06989  0.14971  Biso   1.000  C
  H1492    1.0000 0.65550  0.02239  0.12749  Biso   1.000  H
  C1496    1.0000 0.58726  0.06989  0.14975  Biso   1.000  C
  H1493    1.0000 0.65550  0.02244  0.12749  Biso   1.000  H
  C1497    1.0000 0.56987  0.14971  0.08724  Biso   1.000  C
  H1494    1.0000 0.62751  0.15552  0.02239  Biso   1.000  H
  H1495    1.0000 0.62751  0.15552  0.02244  Biso   1.000  H
  C1498    1.0000 0.56987  0.14975  0.08724  Biso   1.000  C
  H1496    1.0000 0.62751  0.15548  0.02239  Biso   1.000  H
  H1497    1.0000 0.62751  0.15548  0.02244  Biso   1.000  H
  H1498    1.0000 0.40349  0.00492  0.79024  Biso   1.000  H
  C1499    1.0000 0.41278  0.06989  0.85033  Biso   1.000  C
  C1500    1.0000 0.41278  0.06989  0.85029  Biso   1.000  C
  C1501    1.0000 0.38259  0.86611  0.05484  Biso   1.000  C
  C1502    1.0000 0.44514  0.88265  0.13393  Biso   1.000  C
  C1503    1.0000 0.44514  0.88265  0.13398  Biso   1.000  C
  C1504    1.0000 0.38259  0.86607  0.05484  Biso   1.000  C
  C1505    1.0000 0.44514  0.88261  0.13393  Biso   1.000  C
  C1506    1.0000 0.44514  0.88261  0.13398  Biso   1.000  C
  C1507    1.0000 0.57424  0.03736  0.20145  Biso   1.000  C
  C1508    1.0000 0.55486  0.11739  0.13393  Biso   1.000  C
  C1509    1.0000 0.55486  0.11739  0.13398  Biso   1.000  C
  C1510    1.0000 0.53738  0.20145  0.07422  Biso   1.000  C
  C1511    1.0000 0.36605  0.05484  0.88265  Biso   1.000  C
  C1512    1.0000 0.44514  0.11739  0.86611  Biso   1.000  C
  C1513    1.0000 0.36605  0.05484  0.88261  Biso   1.000  C
  C1514    1.0000 0.44514  0.11739  0.86607  Biso   1.000  C
  C1515    1.0000 0.35027  0.91280  0.06989  Biso   1.000  C
  H1499    1.0000 0.37249  0.84452  0.02239  Biso   1.000  H
  H1500    1.0000 0.37249  0.84452  0.02244  Biso   1.000  H
  C1516    1.0000 0.35027  0.91276  0.06989  Biso   1.000  C
  C1517    1.0000 0.41278  0.93011  0.14971  Biso   1.000  C
  H1501    1.0000 0.47763  0.87256  0.15552  Biso   1.000  H
  C1518    1.0000 0.41278  0.93011  0.14975  Biso   1.000  C
  H1502    1.0000 0.47763  0.87256  0.15548  Biso   1.000  H
  C1519    1.0000 0.41278  0.93015  0.14971  Biso   1.000  C
  H1503    1.0000 0.47763  0.87251  0.15552  Biso   1.000  H
  C1520    1.0000 0.41278  0.93015  0.14975  Biso   1.000  C
  H1504    1.0000 0.47763  0.87251  0.15548  Biso   1.000  H
  N310     1.0000 0.53471  0.05068  0.23542  Biso   1.000  N
  H1505    1.0000 0.59651  0.00492  0.20981  Biso   1.000  H
  H1506    1.0000 0.59651  0.00492  0.20976  Biso   1.000  H
  H1507    1.0000 0.52241  0.12749  0.15552  Biso   1.000  H
  H1508    1.0000 0.52241  0.12749  0.15548  Biso   1.000  H
  N311     1.0000 0.55066  0.23542  0.03469  Biso   1.000  N
  H1509    1.0000 0.50490  0.20981  0.09648  Biso   1.000  H
  N312     1.0000 0.55066  0.23542  0.03473  Biso   1.000  N
  H1510    1.0000 0.50490  0.20981  0.09653  Biso   1.000  H
  H1511    1.0000 0.50490  0.20976  0.09648  Biso   1.000  H
  H1512    1.0000 0.50490  0.20976  0.09653  Biso   1.000  H
  C1521    1.0000 0.35027  0.08724  0.93011  Biso   1.000  C
  H1513    1.0000 0.34450  0.02239  0.87256  Biso   1.000  H
  C1522    1.0000 0.35027  0.08724  0.93015  Biso   1.000  C
  H1514    1.0000 0.34450  0.02239  0.87251  Biso   1.000  H
  H1515    1.0000 0.34450  0.02244  0.87256  Biso   1.000  H
  H1516    1.0000 0.34450  0.02244  0.87251  Biso   1.000  H
  C1523    1.0000 0.43013  0.14971  0.91280  Biso   1.000  C
  H1517    1.0000 0.47763  0.12749  0.84452  Biso   1.000  H
  C1524    1.0000 0.43013  0.14971  0.91276  Biso   1.000  C
  C1525    1.0000 0.43013  0.14975  0.91280  Biso   1.000  C
  C1526    1.0000 0.43013  0.14975  0.91276  Biso   1.000  C
  C1527    1.0000 0.29853  0.92578  0.03736  Biso   1.000  C
  C1528    1.0000 0.36605  0.94521  0.11739  Biso   1.000  C
  C1529    1.0000 0.36605  0.94516  0.11739  Biso   1.000  C
  C1530    1.0000 0.42576  0.96268  0.20145  Biso   1.000  C
  C1531    1.0000 0.42576  0.96264  0.20145  Biso   1.000  C
  C1532    1.0000 0.52848  0.01472  0.28525  Biso   1.000  C
  C1533    1.0000 0.52848  0.01472  0.28530  Biso   1.000  C
  C1534    1.0000 0.51474  0.28525  0.02850  Biso   1.000  C
  C1535    1.0000 0.51474  0.28525  0.02846  Biso   1.000  C
  C1536    1.0000 0.51474  0.28530  0.02850  Biso   1.000  C
  C1537    1.0000 0.51474  0.28530  0.02846  Biso   1.000  C
  C1538    1.0000 0.29853  0.07422  0.96268  Biso   1.000  C
  C1539    1.0000 0.38259  0.13393  0.94521  Biso   1.000  C
  C1540    1.0000 0.29853  0.07422  0.96264  Biso   1.000  C
  C1541    1.0000 0.38259  0.13393  0.94516  Biso   1.000  C
  C1542    1.0000 0.38259  0.13398  0.94521  Biso   1.000  C
  C1543    1.0000 0.38259  0.13398  0.94516  Biso   1.000  C
  C1544    1.0000 0.46266  0.20145  0.92578  Biso   1.000  C
  N313     1.0000 0.26460  0.96535  0.05068  Biso   1.000  N
  H1518    1.0000 0.29022  0.90356  0.00492  Biso   1.000  H
  N314     1.0000 0.26460  0.96531  0.05068  Biso   1.000  N
  H1519    1.0000 0.29022  0.90352  0.00492  Biso   1.000  H
  H1520    1.0000 0.34450  0.97765  0.12749  Biso   1.000  H
  H1521    1.0000 0.34450  0.97761  0.12749  Biso   1.000  H
  N315     1.0000 0.46529  0.94932  0.23542  Biso   1.000  N
  H1522    1.0000 0.40349  0.99512  0.20981  Biso   1.000  H
  H1523    1.0000 0.40349  0.99512  0.20976  Biso   1.000  H
  N316     1.0000 0.46529  0.94936  0.23542  Biso   1.000  N
  C1545    1.0000 0.47152  0.98533  0.28525  Biso   1.000  C
  C1546    1.0000 0.47152  0.98533  0.28530  Biso   1.000  C
  C1547    1.0000 0.47152  0.98528  0.28525  Biso   1.000  C
  C1548    1.0000 0.47152  0.98528  0.28530  Biso   1.000  C
  H1524    1.0000 0.55910  0.98605  0.28572  Biso   1.000  H
  H1525    1.0000 0.55910  0.98600  0.28572  Biso   1.000  H
  H1526    1.0000 0.53213  0.03808  0.31990  Biso   1.000  H
  H1527    1.0000 0.53213  0.03813  0.31990  Biso   1.000  H
  C1549    1.0000 0.48530  0.28525  0.97150  Biso   1.000  C
  C1550    1.0000 0.48530  0.28525  0.97154  Biso   1.000  C
  C1551    1.0000 0.48530  0.28530  0.97150  Biso   1.000  C
  C1552    1.0000 0.48530  0.28530  0.97154  Biso   1.000  C
  H1528    1.0000 0.53811  0.31990  0.03210  Biso   1.000  H
  H1529    1.0000 0.48603  0.28572  0.05912  Biso   1.000  H
  H1530    1.0000 0.53811  0.31990  0.03206  Biso   1.000  H
  H1531    1.0000 0.48603  0.28572  0.05908  Biso   1.000  H
  N317     1.0000 0.26460  0.03469  0.94932  Biso   1.000  N
  N318     1.0000 0.26460  0.03469  0.94936  Biso   1.000  N
  N319     1.0000 0.26460  0.03473  0.94932  Biso   1.000  N
  N320     1.0000 0.26460  0.03473  0.94936  Biso   1.000  N
  H1532    1.0000 0.29022  0.09648  0.99512  Biso   1.000  H
  H1533    1.0000 0.29022  0.09653  0.99512  Biso   1.000  H
  H1534    1.0000 0.37249  0.15552  0.97765  Biso   1.000  H
  H1535    1.0000 0.37249  0.15552  0.97761  Biso   1.000  H
  H1536    1.0000 0.37249  0.15548  0.97765  Biso   1.000  H
  H1537    1.0000 0.37249  0.15548  0.97761  Biso   1.000  H
  N321     1.0000 0.44934  0.23542  0.96535  Biso   1.000  N
  H1538    1.0000 0.49510  0.20981  0.90356  Biso   1.000  H
  N322     1.0000 0.44934  0.23542  0.96531  Biso   1.000  N
  H1539    1.0000 0.49510  0.20981  0.90352  Biso   1.000  H
  H1540    1.0000 0.49510  0.20976  0.90356  Biso   1.000  H
  H1541    1.0000 0.49510  0.20976  0.90352  Biso   1.000  H
  C1553    1.0000 0.21477  0.97150  0.01472  Biso   1.000  C
  C1554    1.0000 0.21477  0.97154  0.01472  Biso   1.000  C
  H1542    1.0000 0.46792  0.96192  0.31990  Biso   1.000  H
  H1543    1.0000 0.44090  0.01400  0.28572  Biso   1.000  H
  H1544    1.0000 0.44090  0.01404  0.28572  Biso   1.000  H
  H1545    1.0000 0.46189  0.31990  0.96794  Biso   1.000  H
  H1546    1.0000 0.51402  0.28572  0.94092  Biso   1.000  H
  C1555    1.0000 0.21477  0.02850  0.98533  Biso   1.000  C
  C1556    1.0000 0.21477  0.02850  0.98528  Biso   1.000  C
  C1557    1.0000 0.21477  0.02846  0.98533  Biso   1.000  C
  C1558    1.0000 0.21477  0.02846  0.98528  Biso   1.000  C
  H1547    1.0000 0.21430  0.94092  0.98605  Biso   1.000  H
  H1548    1.0000 0.21430  0.94092  0.98600  Biso   1.000  H
  H1549    1.0000 0.18012  0.96794  0.03808  Biso   1.000  H
  H1550    1.0000 0.18012  0.96794  0.03813  Biso   1.000  H
  H1551    1.0000 0.18012  0.03210  0.96192  Biso   1.000  H
  H1552    1.0000 0.18012  0.03206  0.96192  Biso   1.000  H
  H1553    1.0000 0.21430  0.05912  0.01400  Biso   1.000  H
  H1554    1.0000 0.21430  0.05912  0.01404  Biso   1.000  H
  H1555    1.0000 0.21430  0.05908  0.01400  Biso   1.000  H
  H1556    1.0000 0.21430  0.05908  0.01404  Biso   1.000  H
  C1559    1.0000 0.64973  0.91276  0.93011  Biso   1.000  C
  C1560    1.0000 0.61741  0.86611  0.94521  Biso   1.000  C
  C1561    1.0000 0.61741  0.86611  0.94516  Biso   1.000  C
  C1562    1.0000 0.61741  0.86607  0.94521  Biso   1.000  C
  C1563    1.0000 0.61741  0.86607  0.94516  Biso   1.000  C
  C1564    1.0000 0.70147  0.92578  0.96268  Biso   1.000  C
  C1565    1.0000 0.63395  0.94521  0.88265  Biso   1.000  C
  C1566    1.0000 0.70147  0.92578  0.96264  Biso   1.000  C
  C1567    1.0000 0.63395  0.94521  0.88261  Biso   1.000  C
  C1568    1.0000 0.63395  0.94516  0.88265  Biso   1.000  C
  C1569    1.0000 0.63395  0.94516  0.88261  Biso   1.000  C
  C1570    1.0000 0.56987  0.85033  0.91280  Biso   1.000  C
  C1571    1.0000 0.56987  0.85033  0.91276  Biso   1.000  C
  C1572    1.0000 0.56987  0.85029  0.91280  Biso   1.000  C
  C1573    1.0000 0.56987  0.85029  0.91276  Biso   1.000  C
  H1557    1.0000 0.62751  0.84452  0.97765  Biso   1.000  H
  C1574    1.0000 0.64973  0.91280  0.93011  Biso   1.000  C
  H1558    1.0000 0.62751  0.84452  0.97761  Biso   1.000  H
  C1575    1.0000 0.64973  0.91280  0.93015  Biso   1.000  C
  C1576    1.0000 0.64973  0.91276  0.93015  Biso   1.000  C
  N323     1.0000 0.73544  0.96535  0.94932  Biso   1.000  N
  H1559    1.0000 0.70983  0.90356  0.99512  Biso   1.000  H
  N324     1.0000 0.73544  0.96535  0.94936  Biso   1.000  N
  N325     1.0000 0.73544  0.96531  0.94932  Biso   1.000  N
  H1560    1.0000 0.70983  0.90352  0.99512  Biso   1.000  H
  N326     1.0000 0.73544  0.96531  0.94936  Biso   1.000  N
  C1577    1.0000 0.58726  0.93011  0.85033  Biso   1.000  C
  C1578    1.0000 0.58726  0.93011  0.85029  Biso   1.000  C
  C1579    1.0000 0.58726  0.93015  0.85033  Biso   1.000  C
  C1580    1.0000 0.58726  0.93015  0.85029  Biso   1.000  C
  H1561    1.0000 0.65550  0.97765  0.87256  Biso   1.000  H
  H1562    1.0000 0.65550  0.97765  0.87251  Biso   1.000  H
  H1563    1.0000 0.65550  0.97761  0.87256  Biso   1.000  H
  H1564    1.0000 0.65550  0.97761  0.87251  Biso   1.000  H
  C1581    1.0000 0.53738  0.79855  0.92578  Biso   1.000  C
  C1582    1.0000 0.55486  0.88265  0.86611  Biso   1.000  C
  C1583    1.0000 0.55486  0.88265  0.86607  Biso   1.000  C
  C1584    1.0000 0.55486  0.88261  0.86611  Biso   1.000  C
  C1585    1.0000 0.55486  0.88261  0.86607  Biso   1.000  C
  C1586    1.0000 0.78528  0.97150  0.98533  Biso   1.000  C
  C1587    1.0000 0.78528  0.97150  0.98528  Biso   1.000  C
  C1588    1.0000 0.78528  0.97154  0.98533  Biso   1.000  C
  C1589    1.0000 0.78528  0.97154  0.98528  Biso   1.000  C
  C1590    1.0000 0.57424  0.96268  0.79855  Biso   1.000  C
  C1591    1.0000 0.57424  0.96264  0.79855  Biso   1.000  C
  N327     1.0000 0.55066  0.76462  0.96535  Biso   1.000  N
  H1565    1.0000 0.50490  0.79024  0.90356  Biso   1.000  H
  N328     1.0000 0.55066  0.76462  0.96531  Biso   1.000  N
  H1566    1.0000 0.50490  0.79024  0.90352  Biso   1.000  H
  H1567    1.0000 0.52241  0.87256  0.84452  Biso   1.000  H
  H1568    1.0000 0.52241  0.87251  0.84452  Biso   1.000  H
  H1569    1.0000 0.81992  0.96794  0.96192  Biso   1.000  H
  H1570    1.0000 0.78570  0.94092  0.01400  Biso   1.000  H
  H1571    1.0000 0.78570  0.94092  0.01404  Biso   1.000  H
  C1592    1.0000 0.78528  0.02850  0.01472  Biso   1.000  C
  C1593    1.0000 0.78528  0.02846  0.01472  Biso   1.000  C
  H1572    1.0000 0.59651  0.99512  0.79024  Biso   1.000  H
  N329     1.0000 0.53471  0.94932  0.76462  Biso   1.000  N
  N330     1.0000 0.53471  0.94936  0.76462  Biso   1.000  N
  C1594    1.0000 0.51474  0.71479  0.97150  Biso   1.000  C
  C1595    1.0000 0.51474  0.71479  0.97154  Biso   1.000  C
  C1596    1.0000 0.51474  0.71475  0.97150  Biso   1.000  C
  C1597    1.0000 0.51474  0.71475  0.97154  Biso   1.000  C
  H1573    1.0000 0.78570  0.05912  0.98605  Biso   1.000  H
  H1574    1.0000 0.78570  0.05912  0.98600  Biso   1.000  H
  H1575    1.0000 0.78570  0.05908  0.98605  Biso   1.000  H
  H1576    1.0000 0.78570  0.05908  0.98600  Biso   1.000  H
  N331     1.0000 0.73544  0.03469  0.05068  Biso   1.000  N
  H1577    1.0000 0.81992  0.03210  0.03808  Biso   1.000  H
  H1578    1.0000 0.81992  0.03210  0.03813  Biso   1.000  H
  N332     1.0000 0.73544  0.03473  0.05068  Biso   1.000  N
  H1579    1.0000 0.81992  0.03206  0.03808  Biso   1.000  H
  H1580    1.0000 0.81992  0.03206  0.03813  Biso   1.000  H
  C1598    1.0000 0.52848  0.98533  0.71479  Biso   1.000  C
  C1599    1.0000 0.52848  0.98533  0.71475  Biso   1.000  C
  C1600    1.0000 0.52848  0.98528  0.71479  Biso   1.000  C
  C1601    1.0000 0.52848  0.98528  0.71475  Biso   1.000  C
  H1581    1.0000 0.48603  0.71432  0.94092  Biso   1.000  H
  H1582    1.0000 0.53811  0.68014  0.96794  Biso   1.000  H
  H1583    1.0000 0.53811  0.68010  0.96794  Biso   1.000  H
  C1602    1.0000 0.48530  0.71479  0.02850  Biso   1.000  C
  C1603    1.0000 0.48530  0.71479  0.02846  Biso   1.000  C
  C1604    1.0000 0.48530  0.71475  0.02850  Biso   1.000  C
  C1605    1.0000 0.48530  0.71475  0.02846  Biso   1.000  C
  C1606    1.0000 0.70147  0.07422  0.03736  Biso   1.000  C
  H1584    1.0000 0.53213  0.96192  0.68014  Biso   1.000  H
  H1585    1.0000 0.53213  0.96192  0.68010  Biso   1.000  H
  C1607    1.0000 0.47152  0.01472  0.71479  Biso   1.000  C
  H1586    1.0000 0.55910  0.01400  0.71432  Biso   1.000  H
  C1608    1.0000 0.47152  0.01472  0.71475  Biso   1.000  C
  H1587    1.0000 0.55910  0.01404  0.71432  Biso   1.000  H
  N333     1.0000 0.44934  0.76462  0.03469  Biso   1.000  N
  H1588    1.0000 0.46189  0.68014  0.03210  Biso   1.000  H
  H1589    1.0000 0.51402  0.71432  0.05912  Biso   1.000  H
  N334     1.0000 0.44934  0.76462  0.03473  Biso   1.000  N
  H1590    1.0000 0.46189  0.68014  0.03206  Biso   1.000  H
  H1591    1.0000 0.51402  0.71432  0.05908  Biso   1.000  H
  H1592    1.0000 0.46189  0.68010  0.03210  Biso   1.000  H
  H1593    1.0000 0.46189  0.68010  0.03206  Biso   1.000  H
  H1594    1.0000 0.70983  0.09648  0.00492  Biso   1.000  H
  C1609    1.0000 0.64973  0.08724  0.06989  Biso   1.000  C
  H1595    1.0000 0.70983  0.09653  0.00492  Biso   1.000  H
  H1596    1.0000 0.44090  0.98605  0.71432  Biso   1.000  H
  H1597    1.0000 0.44090  0.98600  0.71432  Biso   1.000  H
  N335     1.0000 0.46529  0.05068  0.76462  Biso   1.000  N
  H1598    1.0000 0.46792  0.03808  0.68014  Biso   1.000  H
  H1599    1.0000 0.46792  0.03808  0.68010  Biso   1.000  H
  H1600    1.0000 0.46792  0.03813  0.68014  Biso   1.000  H
  H1601    1.0000 0.46792  0.03813  0.68010  Biso   1.000  H
  C1610    1.0000 0.46266  0.79855  0.07422  Biso   1.000  C
  C1611    1.0000 0.63395  0.05484  0.11739  Biso   1.000  C
  C1612    1.0000 0.61741  0.13393  0.05484  Biso   1.000  C
  C1613    1.0000 0.61741  0.13398  0.05484  Biso   1.000  C
  C1614    1.0000 0.42576  0.03736  0.79855  Biso   1.000  C
  H1602    1.0000 0.49510  0.79024  0.09648  Biso   1.000  H
  C1615    1.0000 0.43013  0.85033  0.08724  Biso   1.000  C
  H1603    1.0000 0.49510  0.79024  0.09653  Biso   1.000  H
  C1616    1.0000 0.43013  0.85029  0.08724  Biso   1.000  C
  C1617    1.0000 0.58726  0.06989  0.14971  Biso   1.000  C
  H1604    1.0000 0.65550  0.02239  0.12749  Biso   1.000  H
  C1618    1.0000 0.58726  0.06989  0.14975  Biso   1.000  C
  H1605    1.0000 0.65550  0.02244  0.12749  Biso   1.000  H
  C1619    1.0000 0.56987  0.14971  0.08724  Biso   1.000  C
  H1606    1.0000 0.62751  0.15552  0.02239  Biso   1.000  H
  H1607    1.0000 0.62751  0.15552  0.02244  Biso   1.000  H
  C1620    1.0000 0.56987  0.14975  0.08724  Biso   1.000  C
  H1608    1.0000 0.62751  0.15548  0.02239  Biso   1.000  H
  H1609    1.0000 0.62751  0.15548  0.02244  Biso   1.000  H
  H1610    1.0000 0.40349  0.00492  0.79024  Biso   1.000  H
  C1621    1.0000 0.41278  0.06989  0.85033  Biso   1.000  C
  C1622    1.0000 0.41278  0.06989  0.85029  Biso   1.000  C
  C1623    1.0000 0.38259  0.86611  0.05484  Biso   1.000  C
  C1624    1.0000 0.44514  0.88265  0.13393  Biso   1.000  C
  C1625    1.0000 0.44514  0.88265  0.13398  Biso   1.000  C
  C1626    1.0000 0.38259  0.86607  0.05484  Biso   1.000  C
  C1627    1.0000 0.44514  0.88261  0.13393  Biso   1.000  C
  C1628    1.0000 0.44514  0.88261  0.13398  Biso   1.000  C
  C1629    1.0000 0.57424  0.03736  0.20145  Biso   1.000  C
  C1630    1.0000 0.55486  0.11739  0.13393  Biso   1.000  C
  C1631    1.0000 0.55486  0.11739  0.13398  Biso   1.000  C
  C1632    1.0000 0.53738  0.20145  0.07422  Biso   1.000  C
  C1633    1.0000 0.36605  0.05484  0.88265  Biso   1.000  C
  C1634    1.0000 0.44514  0.11739  0.86611  Biso   1.000  C
  C1635    1.0000 0.36605  0.05484  0.88261  Biso   1.000  C
  C1636    1.0000 0.44514  0.11739  0.86607  Biso   1.000  C
  C1637    1.0000 0.35027  0.91280  0.06989  Biso   1.000  C
  H1611    1.0000 0.37249  0.84452  0.02239  Biso   1.000  H
  H1612    1.0000 0.37249  0.84452  0.02244  Biso   1.000  H
  C1638    1.0000 0.35027  0.91276  0.06989  Biso   1.000  C
  C1639    1.0000 0.41278  0.93011  0.14971  Biso   1.000  C
  H1613    1.0000 0.47763  0.87256  0.15552  Biso   1.000  H
  C1640    1.0000 0.41278  0.93011  0.14975  Biso   1.000  C
  H1614    1.0000 0.47763  0.87256  0.15548  Biso   1.000  H
  C1641    1.0000 0.41278  0.93015  0.14971  Biso   1.000  C
  H1615    1.0000 0.47763  0.87251  0.15552  Biso   1.000  H
  C1642    1.0000 0.41278  0.93015  0.14975  Biso   1.000  C
  H1616    1.0000 0.47763  0.87251  0.15548  Biso   1.000  H
  N336     1.0000 0.53471  0.05068  0.23542  Biso   1.000  N
  H1617    1.0000 0.59651  0.00492  0.20981  Biso   1.000  H
  H1618    1.0000 0.59651  0.00492  0.20976  Biso   1.000  H
  H1619    1.0000 0.52241  0.12749  0.15552  Biso   1.000  H
  H1620    1.0000 0.52241  0.12749  0.15548  Biso   1.000  H
  N337     1.0000 0.55066  0.23542  0.03469  Biso   1.000  N
  H1621    1.0000 0.50490  0.20981  0.09648  Biso   1.000  H
  N338     1.0000 0.55066  0.23542  0.03473  Biso   1.000  N
  H1622    1.0000 0.50490  0.20981  0.09653  Biso   1.000  H
  H1623    1.0000 0.50490  0.20976  0.09648  Biso   1.000  H
  H1624    1.0000 0.50490  0.20976  0.09653  Biso   1.000  H
  C1643    1.0000 0.35027  0.08724  0.93011  Biso   1.000  C
  H1625    1.0000 0.34450  0.02239  0.87256  Biso   1.000  H
  C1644    1.0000 0.35027  0.08724  0.93015  Biso   1.000  C
  H1626    1.0000 0.34450  0.02239  0.87251  Biso   1.000  H
  H1627    1.0000 0.34450  0.02244  0.87256  Biso   1.000  H
  H1628    1.0000 0.34450  0.02244  0.87251  Biso   1.000  H
  C1645    1.0000 0.43013  0.14971  0.91280  Biso   1.000  C
  H1629    1.0000 0.47763  0.12749  0.84452  Biso   1.000  H
  C1646    1.0000 0.43013  0.14971  0.91276  Biso   1.000  C
  C1647    1.0000 0.43013  0.14975  0.91280  Biso   1.000  C
  C1648    1.0000 0.43013  0.14975  0.91276  Biso   1.000  C
  C1649    1.0000 0.29853  0.92578  0.03736  Biso   1.000  C
  C1650    1.0000 0.36605  0.94521  0.11739  Biso   1.000  C
  C1651    1.0000 0.36605  0.94516  0.11739  Biso   1.000  C
  C1652    1.0000 0.42576  0.96268  0.20145  Biso   1.000  C
  C1653    1.0000 0.42576  0.96264  0.20145  Biso   1.000  C
  C1654    1.0000 0.52848  0.01472  0.28525  Biso   1.000  C
  C1655    1.0000 0.52848  0.01472  0.28530  Biso   1.000  C
  C1656    1.0000 0.51474  0.28525  0.02850  Biso   1.000  C
  C1657    1.0000 0.51474  0.28525  0.02846  Biso   1.000  C
  C1658    1.0000 0.51474  0.28530  0.02850  Biso   1.000  C
  C1659    1.0000 0.51474  0.28530  0.02846  Biso   1.000  C
  C1660    1.0000 0.29853  0.07422  0.96268  Biso   1.000  C
  C1661    1.0000 0.38259  0.13393  0.94521  Biso   1.000  C
  C1662    1.0000 0.29853  0.07422  0.96264  Biso   1.000  C
  C1663    1.0000 0.38259  0.13393  0.94516  Biso   1.000  C
  C1664    1.0000 0.38259  0.13398  0.94521  Biso   1.000  C
  C1665    1.0000 0.38259  0.13398  0.94516  Biso   1.000  C
  C1666    1.0000 0.46266  0.20145  0.92578  Biso   1.000  C
  N339     1.0000 0.26460  0.96535  0.05068  Biso   1.000  N
  H1630    1.0000 0.29022  0.90356  0.00492  Biso   1.000  H
  N340     1.0000 0.26460  0.96531  0.05068  Biso   1.000  N
  H1631    1.0000 0.29022  0.90352  0.00492  Biso   1.000  H
  H1632    1.0000 0.34450  0.97765  0.12749  Biso   1.000  H
  H1633    1.0000 0.34450  0.97761  0.12749  Biso   1.000  H
  N341     1.0000 0.46529  0.94932  0.23542  Biso   1.000  N
  H1634    1.0000 0.40349  0.99512  0.20981  Biso   1.000  H
  H1635    1.0000 0.40349  0.99512  0.20976  Biso   1.000  H
  N342     1.0000 0.46529  0.94936  0.23542  Biso   1.000  N
  C1667    1.0000 0.47152  0.98533  0.28525  Biso   1.000  C
  C1668    1.0000 0.47152  0.98533  0.28530  Biso   1.000  C
  C1669    1.0000 0.47152  0.98528  0.28525  Biso   1.000  C
  C1670    1.0000 0.47152  0.98528  0.28530  Biso   1.000  C
  H1636    1.0000 0.55910  0.98605  0.28572  Biso   1.000  H
  H1637    1.0000 0.55910  0.98600  0.28572  Biso   1.000  H
  H1638    1.0000 0.53213  0.03808  0.31990  Biso   1.000  H
  H1639    1.0000 0.53213  0.03813  0.31990  Biso   1.000  H
  C1671    1.0000 0.48530  0.28525  0.97150  Biso   1.000  C
  C1672    1.0000 0.48530  0.28525  0.97154  Biso   1.000  C
  C1673    1.0000 0.48530  0.28530  0.97150  Biso   1.000  C
  C1674    1.0000 0.48530  0.28530  0.97154  Biso   1.000  C
  H1640    1.0000 0.53811  0.31990  0.03210  Biso   1.000  H
  H1641    1.0000 0.48603  0.28572  0.05912  Biso   1.000  H
  H1642    1.0000 0.53811  0.31990  0.03206  Biso   1.000  H
  H1643    1.0000 0.48603  0.28572  0.05908  Biso   1.000  H
  N343     1.0000 0.26460  0.03469  0.94932  Biso   1.000  N
  N344     1.0000 0.26460  0.03469  0.94936  Biso   1.000  N
  N345     1.0000 0.26460  0.03473  0.94932  Biso   1.000  N
  N346     1.0000 0.26460  0.03473  0.94936  Biso   1.000  N
  H1644    1.0000 0.29022  0.09648  0.99512  Biso   1.000  H
  H1645    1.0000 0.29022  0.09653  0.99512  Biso   1.000  H
  H1646    1.0000 0.37249  0.15552  0.97765  Biso   1.000  H
  H1647    1.0000 0.37249  0.15552  0.97761  Biso   1.000  H
  H1648    1.0000 0.37249  0.15548  0.97765  Biso   1.000  H
  H1649    1.0000 0.37249  0.15548  0.97761  Biso   1.000  H
  N347     1.0000 0.44934  0.23542  0.96535  Biso   1.000  N
  H1650    1.0000 0.49510  0.20981  0.90356  Biso   1.000  H
  N348     1.0000 0.44934  0.23542  0.96531  Biso   1.000  N
  H1651    1.0000 0.49510  0.20981  0.90352  Biso   1.000  H
  H1652    1.0000 0.49510  0.20976  0.90356  Biso   1.000  H
  H1653    1.0000 0.49510  0.20976  0.90352  Biso   1.000  H
  C1675    1.0000 0.21477  0.97150  0.01472  Biso   1.000  C
  C1676    1.0000 0.21477  0.97154  0.01472  Biso   1.000  C
  H1654    1.0000 0.46792  0.96192  0.31990  Biso   1.000  H
  H1655    1.0000 0.44090  0.01400  0.28572  Biso   1.000  H
  H1656    1.0000 0.44090  0.01404  0.28572  Biso   1.000  H
  H1657    1.0000 0.46189  0.31990  0.96794  Biso   1.000  H
  H1658    1.0000 0.51402  0.28572  0.94092  Biso   1.000  H
  C1677    1.0000 0.21477  0.02850  0.98533  Biso   1.000  C
  C1678    1.0000 0.21477  0.02850  0.98528  Biso   1.000  C
  C1679    1.0000 0.21477  0.02846  0.98533  Biso   1.000  C
  C1680    1.0000 0.21477  0.02846  0.98528  Biso   1.000  C
  H1659    1.0000 0.21430  0.94092  0.98605  Biso   1.000  H
  H1660    1.0000 0.21430  0.94092  0.98600  Biso   1.000  H
  H1661    1.0000 0.18012  0.96794  0.03808  Biso   1.000  H
  H1662    1.0000 0.18012  0.96794  0.03813  Biso   1.000  H
  H1663    1.0000 0.18012  0.03210  0.96192  Biso   1.000  H
  H1664    1.0000 0.18012  0.03206  0.96192  Biso   1.000  H
  H1665    1.0000 0.21430  0.05912  0.01400  Biso   1.000  H
  H1666    1.0000 0.21430  0.05912  0.01404  Biso   1.000  H
  H1667    1.0000 0.21430  0.05908  0.01400  Biso   1.000  H
  H1668    1.0000 0.21430  0.05908  0.01404  Biso   1.000  H
  C1681    1.0000 0.64973  0.58726  0.56987  Biso   1.000  C
  C1682    1.0000 0.70147  0.57424  0.53738  Biso   1.000  C
  C1683    1.0000 0.63395  0.55486  0.61741  Biso   1.000  C
  C1684    1.0000 0.61741  0.63395  0.55486  Biso   1.000  C
  N349     1.0000 0.73544  0.53471  0.55066  Biso   1.000  N
  H1669    1.0000 0.70983  0.59651  0.50490  Biso   1.000  H
  C1685    1.0000 0.58726  0.56987  0.64973  Biso   1.000  C
  H1670    1.0000 0.65550  0.52241  0.62751  Biso   1.000  H
  C1686    1.0000 0.56987  0.64973  0.58726  Biso   1.000  C
  H1671    1.0000 0.62751  0.65550  0.52241  Biso   1.000  H
  C1687    1.0000 0.78528  0.52848  0.51474  Biso   1.000  C
  C1688    1.0000 0.57424  0.53738  0.70147  Biso   1.000  C
  C1689    1.0000 0.55486  0.61741  0.63395  Biso   1.000  C
  C1690    1.0000 0.53738  0.70147  0.57424  Biso   1.000  C
  C1691    1.0000 0.78528  0.47152  0.48530  Biso   1.000  C
  H1672    1.0000 0.81992  0.53213  0.53811  Biso   1.000  H
  H1673    1.0000 0.78570  0.55910  0.48603  Biso   1.000  H
  N350     1.0000 0.53471  0.55066  0.73544  Biso   1.000  N
  H1674    1.0000 0.59651  0.50490  0.70983  Biso   1.000  H
  H1675    1.0000 0.52241  0.62751  0.65550  Biso   1.000  H
  N351     1.0000 0.55066  0.73544  0.53471  Biso   1.000  N
  H1676    1.0000 0.50490  0.70983  0.59651  Biso   1.000  H
  N352     1.0000 0.73544  0.46529  0.44934  Biso   1.000  N
  H1677    1.0000 0.81992  0.46792  0.46189  Biso   1.000  H
  H1678    1.0000 0.78570  0.44090  0.51402  Biso   1.000  H
  C1692    1.0000 0.52848  0.51474  0.78528  Biso   1.000  C
  C1693    1.0000 0.51474  0.78528  0.52848  Biso   1.000  C
  C1694    1.0000 0.70147  0.42576  0.46266  Biso   1.000  C
  C1695    1.0000 0.47152  0.48530  0.78528  Biso   1.000  C
  H1679    1.0000 0.53213  0.53811  0.81992  Biso   1.000  H
  H1680    1.0000 0.55910  0.48603  0.78570  Biso   1.000  H
  C1696    1.0000 0.48530  0.78528  0.47152  Biso   1.000  C
  H1681    1.0000 0.53811  0.81992  0.53213  Biso   1.000  H
  H1682    1.0000 0.48603  0.78570  0.55910  Biso   1.000  H
  C1697    1.0000 0.64973  0.41278  0.43013  Biso   1.000  C
  H1683    1.0000 0.70983  0.40349  0.49510  Biso   1.000  H
  N353     1.0000 0.46529  0.44934  0.73544  Biso   1.000  N
  H1684    1.0000 0.46792  0.46189  0.81992  Biso   1.000  H
  H1685    1.0000 0.44090  0.51402  0.78570  Biso   1.000  H
  N354     1.0000 0.44934  0.73544  0.46529  Biso   1.000  N
  H1686    1.0000 0.46189  0.81992  0.46792  Biso   1.000  H
  H1687    1.0000 0.51402  0.78570  0.44090  Biso   1.000  H
  C1698    1.0000 0.61741  0.36605  0.44514  Biso   1.000  C
  C1699    1.0000 0.63395  0.44514  0.38259  Biso   1.000  C
  C1700    1.0000 0.42576  0.46266  0.70147  Biso   1.000  C
  C1701    1.0000 0.46266  0.70147  0.42576  Biso   1.000  C
  C1702    1.0000 0.56987  0.35027  0.41278  Biso   1.000  C
  H1688    1.0000 0.62751  0.34450  0.47763  Biso   1.000  H
  C1703    1.0000 0.58726  0.43013  0.35027  Biso   1.000  C
  H1689    1.0000 0.65550  0.47763  0.37249  Biso   1.000  H
  C1704    1.0000 0.41278  0.43013  0.64973  Biso   1.000  C
  H1690    1.0000 0.40349  0.49510  0.70983  Biso   1.000  H
  C1705    1.0000 0.43013  0.64973  0.41278  Biso   1.000  C
  H1691    1.0000 0.49510  0.70983  0.40349  Biso   1.000  H
  C1706    1.0000 0.53738  0.29853  0.42576  Biso   1.000  C
  C1707    1.0000 0.55486  0.38259  0.36605  Biso   1.000  C
  C1708    1.0000 0.57424  0.46266  0.29853  Biso   1.000  C
  C1709    1.0000 0.44514  0.38259  0.63395  Biso   1.000  C
  C1710    1.0000 0.36605  0.44514  0.61741  Biso   1.000  C
  C1711    1.0000 0.44514  0.61741  0.36605  Biso   1.000  C
  C1712    1.0000 0.38259  0.63395  0.44514  Biso   1.000  C
  N355     1.0000 0.55066  0.26460  0.46529  Biso   1.000  N
  H1692    1.0000 0.50490  0.29022  0.40349  Biso   1.000  H
  H1693    1.0000 0.52241  0.37249  0.34450  Biso   1.000  H
  N356     1.0000 0.53471  0.44934  0.26460  Biso   1.000  N
  H1694    1.0000 0.59651  0.49510  0.29022  Biso   1.000  H
  C1713    1.0000 0.43013  0.35027  0.58726  Biso   1.000  C
  H1695    1.0000 0.47763  0.37249  0.65550  Biso   1.000  H
  C1714    1.0000 0.35027  0.41278  0.56987  Biso   1.000  C
  H1696    1.0000 0.34450  0.47763  0.62751  Biso   1.000  H
  C1715    1.0000 0.41278  0.56987  0.35027  Biso   1.000  C
  H1697    1.0000 0.47763  0.62751  0.34450  Biso   1.000  H
  C1716    1.0000 0.35027  0.58726  0.43013  Biso   1.000  C
  H1698    1.0000 0.37249  0.65550  0.47763  Biso   1.000  H
  C1717    1.0000 0.51474  0.21477  0.47152  Biso   1.000  C
  C1718    1.0000 0.52848  0.48530  0.21477  Biso   1.000  C
  C1719    1.0000 0.46266  0.29853  0.57424  Biso   1.000  C
  C1720    1.0000 0.38259  0.36605  0.55486  Biso   1.000  C
  C1721    1.0000 0.29853  0.42576  0.53738  Biso   1.000  C
  C1722    1.0000 0.42576  0.53738  0.29853  Biso   1.000  C
  C1723    1.0000 0.36605  0.55486  0.38259  Biso   1.000  C
  C1724    1.0000 0.29853  0.57424  0.46266  Biso   1.000  C
  H1699    1.0000 0.53811  0.18012  0.46792  Biso   1.000  H
  H1700    1.0000 0.48603  0.21430  0.44090  Biso   1.000  H
  C1725    1.0000 0.48530  0.21477  0.52848  Biso   1.000  C
  C1726    1.0000 0.47152  0.51474  0.21477  Biso   1.000  C
  H1701    1.0000 0.53213  0.46189  0.18012  Biso   1.000  H
  H1702    1.0000 0.55910  0.51402  0.21430  Biso   1.000  H
  N357     1.0000 0.44934  0.26460  0.53471  Biso   1.000  N
  H1703    1.0000 0.49510  0.29022  0.59651  Biso   1.000  H
  H1704    1.0000 0.37249  0.34450  0.52241  Biso   1.000  H
  N358     1.0000 0.26460  0.46529  0.55066  Biso   1.000  N
  H1705    1.0000 0.29022  0.40349  0.50490  Biso   1.000  H
  N359     1.0000 0.46529  0.55066  0.26460  Biso   1.000  N
  H1706    1.0000 0.40349  0.50490  0.29022  Biso   1.000  H
  H1707    1.0000 0.34450  0.52241  0.37249  Biso   1.000  H
  N360     1.0000 0.26460  0.53471  0.44934  Biso   1.000  N
  H1708    1.0000 0.29022  0.59651  0.49510  Biso   1.000  H
  H1709    1.0000 0.46189  0.18012  0.53213  Biso   1.000  H
  H1710    1.0000 0.51402  0.21430  0.55910  Biso   1.000  H
  H1711    1.0000 0.46792  0.53811  0.18012  Biso   1.000  H
  H1712    1.0000 0.44090  0.48603  0.21430  Biso   1.000  H
  C1727    1.0000 0.21477  0.47152  0.51474  Biso   1.000  C
  C1728    1.0000 0.21477  0.52848  0.48530  Biso   1.000  C
  H1713    1.0000 0.18012  0.46792  0.53811  Biso   1.000  H
  H1714    1.0000 0.21430  0.44090  0.48603  Biso   1.000  H
  H1715    1.0000 0.18012  0.53213  0.46189  Biso   1.000  H
  H1716    1.0000 0.21430  0.55910  0.51402  Biso   1.000  H
  C1729    1.0000 0.63141  0.26256  0.25981  Biso   1.000  C
  C1730    1.0000 0.59311  0.21519  0.28899  Biso   1.000  C
  C1731    1.0000 0.59311  0.28483  0.21104  Biso   1.000  C
  H1717    1.0000 0.64082  0.29323  0.28691  Biso   1.000  H
  H1718    1.0000 0.66703  0.24611  0.24479  Biso   1.000  H
  H1719    1.0000 0.66703  0.25391  0.25518  Biso   1.000  H
  C1732    1.0000 0.53450  0.21994  0.26176  Biso   1.000  C
  H1720    1.0000 0.60333  0.17609  0.30052  Biso   1.000  H
  H1721    1.0000 0.59540  0.23801  0.32410  Biso   1.000  H
  C1733    1.0000 0.63141  0.23746  0.24021  Biso   1.000  C
  H1722    1.0000 0.60931  0.17702  0.28229  Biso   1.000  H
  H1723    1.0000 0.59070  0.22172  0.33042  Biso   1.000  H
  C1734    1.0000 0.53450  0.28008  0.23826  Biso   1.000  C
  H1724    1.0000 0.60333  0.32389  0.19950  Biso   1.000  H
  H1725    1.0000 0.59540  0.26201  0.17592  Biso   1.000  H
  H1726    1.0000 0.60931  0.32300  0.21769  Biso   1.000  H
  H1727    1.0000 0.59070  0.27830  0.16960  Biso   1.000  H
  N361     1.0000 0.48802  0.21074  0.30086  Biso   1.000  N
  H1728    1.0000 0.53162  0.19229  0.22970  Biso   1.000  H
  H1729    1.0000 0.64082  0.20679  0.21311  Biso   1.000  H
  N362     1.0000 0.48802  0.28928  0.19912  Biso   1.000  N
  H1730    1.0000 0.53162  0.30769  0.27033  Biso   1.000  H
  C1735    1.0000 0.45256  0.17248  0.28763  Biso   1.000  C
  C1736    1.0000 0.45256  0.32754  0.21235  Biso   1.000  C
  C1737    1.0000 0.40248  0.15917  0.32215  Biso   1.000  C
  H1731    1.0000 0.45871  0.15141  0.25379  Biso   1.000  H
  H1732    1.0000 0.45871  0.34862  0.24619  Biso   1.000  H
  C1738    1.0000 0.40248  0.34085  0.17783  Biso   1.000  C
  C1739    1.0000 0.36940  0.11239  0.30816  Biso   1.000  C
  C1740    1.0000 0.38763  0.19182  0.36940  Biso   1.000  C
  C1741    1.0000 0.36940  0.38763  0.19182  Biso   1.000  C
  C1742    1.0000 0.38763  0.30816  0.13062  Biso   1.000  C
  C1743    1.0000 0.32215  0.09754  0.34085  Biso   1.000  C
  H1733    1.0000 0.37902  0.09021  0.27592  Biso   1.000  H
  C1744    1.0000 0.34085  0.17783  0.40248  Biso   1.000  C
  H1734    1.0000 0.40981  0.22410  0.37902  Biso   1.000  H
  H1735    1.0000 0.37902  0.40981  0.22410  Biso   1.000  H
  C1745    1.0000 0.32215  0.40248  0.15917  Biso   1.000  C
  C1746    1.0000 0.34085  0.32215  0.09754  Biso   1.000  C
  H1736    1.0000 0.40981  0.27592  0.12100  Biso   1.000  H
  C1747    1.0000 0.28763  0.04742  0.32754  Biso   1.000  C
  C1748    1.0000 0.30816  0.13062  0.38763  Biso   1.000  C
  C1749    1.0000 0.32754  0.21235  0.45256  Biso   1.000  C
  C1750    1.0000 0.28763  0.45256  0.17248  Biso   1.000  C
  C1751    1.0000 0.30816  0.36940  0.11239  Biso   1.000  C
  C1752    1.0000 0.32754  0.28763  0.04742  Biso   1.000  C
  N363     1.0000 0.30086  0.01200  0.28928  Biso   1.000  N
  H1737    1.0000 0.25379  0.04131  0.34862  Biso   1.000  H
  H1738    1.0000 0.27592  0.12100  0.40981  Biso   1.000  H
  N364     1.0000 0.28928  0.19912  0.48802  Biso   1.000  N
  H1739    1.0000 0.34862  0.24619  0.45871  Biso   1.000  H
  N365     1.0000 0.30086  0.48802  0.21074  Biso   1.000  N
  H1740    1.0000 0.25379  0.45871  0.15141  Biso   1.000  H
  H1741    1.0000 0.27592  0.37902  0.09021  Biso   1.000  H
  N366     1.0000 0.28928  0.30086  0.01200  Biso   1.000  N
  H1742    1.0000 0.34862  0.25379  0.04131  Biso   1.000  H
  C1753    1.0000 0.26176  0.96556  0.28008  Biso   1.000  C
  C1754    1.0000 0.28008  0.23826  0.53450  Biso   1.000  C
  C1755    1.0000 0.26176  0.53450  0.21994  Biso   1.000  C
  C1756    1.0000 0.28008  0.26176  0.96556  Biso   1.000  C
  C1757    1.0000 0.23826  0.96556  0.21994  Biso   1.000  C
  H1743    1.0000 0.22970  0.96840  0.30769  Biso   1.000  H
  C1758    1.0000 0.28899  0.90691  0.28483  Biso   1.000  C
  C1759    1.0000 0.21994  0.26176  0.53450  Biso   1.000  C
  H1744    1.0000 0.30769  0.27033  0.53162  Biso   1.000  H
  C1760    1.0000 0.28483  0.21104  0.59311  Biso   1.000  C
  C1761    1.0000 0.23826  0.53450  0.28008  Biso   1.000  C
  H1745    1.0000 0.22970  0.53162  0.19229  Biso   1.000  H
  C1762    1.0000 0.28899  0.59311  0.21519  Biso   1.000  C
  C1763    1.0000 0.21994  0.23826  0.96556  Biso   1.000  C
  H1746    1.0000 0.30769  0.22970  0.96840  Biso   1.000  H
  C1764    1.0000 0.28483  0.28899  0.90691  Biso   1.000  C
  N367     1.0000 0.19912  0.01200  0.21074  Biso   1.000  N
  H1747    1.0000 0.27033  0.96840  0.19229  Biso   1.000  H
  C1765    1.0000 0.21104  0.90691  0.21519  Biso   1.000  C
  H1748    1.0000 0.30052  0.89673  0.32389  Biso   1.000  H
  H1749    1.0000 0.32410  0.90466  0.26201  Biso   1.000  H
  C1766    1.0000 0.25981  0.86865  0.23746  Biso   1.000  C
  C1767    1.0000 0.24021  0.86865  0.26256  Biso   1.000  C
  H1750    1.0000 0.28229  0.89071  0.32300  Biso   1.000  H
  H1751    1.0000 0.33042  0.90933  0.27830  Biso   1.000  H
  N368     1.0000 0.21074  0.30086  0.48802  Biso   1.000  N
  H1752    1.0000 0.19229  0.22970  0.53162  Biso   1.000  H
  C1768    1.0000 0.21519  0.28899  0.59311  Biso   1.000  C
  H1753    1.0000 0.32389  0.19950  0.60333  Biso   1.000  H
  H1754    1.0000 0.26201  0.17592  0.59540  Biso   1.000  H
  C1769    1.0000 0.26256  0.25981  0.63141  Biso   1.000  C
  C1770    1.0000 0.23746  0.24021  0.63141  Biso   1.000  C
  H1755    1.0000 0.32300  0.21769  0.60931  Biso   1.000  H
  H1756    1.0000 0.27830  0.16960  0.59070  Biso   1.000  H
  N369     1.0000 0.19912  0.48802  0.28928  Biso   1.000  N
  H1757    1.0000 0.27033  0.53162  0.30769  Biso   1.000  H
  C1771    1.0000 0.21104  0.59311  0.28483  Biso   1.000  C
  H1758    1.0000 0.30052  0.60333  0.17609  Biso   1.000  H
  H1759    1.0000 0.32410  0.59540  0.23801  Biso   1.000  H
  C1772    1.0000 0.25981  0.63141  0.26256  Biso   1.000  C
  C1773    1.0000 0.24021  0.63141  0.23746  Biso   1.000  C
  H1760    1.0000 0.28229  0.60931  0.17702  Biso   1.000  H
  H1761    1.0000 0.33042  0.59070  0.22172  Biso   1.000  H
  N370     1.0000 0.21074  0.19912  0.01200  Biso   1.000  N
  H1762    1.0000 0.19229  0.27033  0.96840  Biso   1.000  H
  C1774    1.0000 0.21519  0.21104  0.90691  Biso   1.000  C
  H1763    1.0000 0.32389  0.30052  0.89673  Biso   1.000  H
  H1764    1.0000 0.26201  0.32410  0.90466  Biso   1.000  H
  C1775    1.0000 0.26256  0.24021  0.86865  Biso   1.000  C
  C1776    1.0000 0.23746  0.25981  0.86865  Biso   1.000  C
  H1765    1.0000 0.32300  0.28229  0.89071  Biso   1.000  H
  H1766    1.0000 0.27830  0.33042  0.90933  Biso   1.000  H
  C1777    1.0000 0.21235  0.04742  0.17248  Biso   1.000  C
  H1767    1.0000 0.19950  0.89673  0.17609  Biso   1.000  H
  H1768    1.0000 0.17592  0.90466  0.23801  Biso   1.000  H
  H1769    1.0000 0.21769  0.89071  0.17702  Biso   1.000  H
  H1770    1.0000 0.16960  0.90933  0.22172  Biso   1.000  H
  H1771    1.0000 0.28691  0.85924  0.20679  Biso   1.000  H
  H1772    1.0000 0.24479  0.83303  0.25391  Biso   1.000  H
  H1773    1.0000 0.25518  0.83303  0.24611  Biso   1.000  H
  H1774    1.0000 0.21311  0.85924  0.29323  Biso   1.000  H
  C1778    1.0000 0.17248  0.28763  0.45256  Biso   1.000  C
  H1775    1.0000 0.17609  0.30052  0.60333  Biso   1.000  H
  H1776    1.0000 0.23801  0.32410  0.59540  Biso   1.000  H
  H1777    1.0000 0.17702  0.28229  0.60931  Biso   1.000  H
  H1778    1.0000 0.22172  0.33042  0.59070  Biso   1.000  H
  H1779    1.0000 0.29323  0.28691  0.64082  Biso   1.000  H
  H1780    1.0000 0.24611  0.24479  0.66703  Biso   1.000  H
  H1781    1.0000 0.25391  0.25518  0.66703  Biso   1.000  H
  H1782    1.0000 0.20679  0.21311  0.64082  Biso   1.000  H
  C1779    1.0000 0.21235  0.45256  0.32754  Biso   1.000  C
  H1783    1.0000 0.19950  0.60333  0.32389  Biso   1.000  H
  H1784    1.0000 0.17592  0.59540  0.26201  Biso   1.000  H
  H1785    1.0000 0.21769  0.60931  0.32300  Biso   1.000  H
  H1786    1.0000 0.16960  0.59070  0.27830  Biso   1.000  H
  H1787    1.0000 0.28691  0.64082  0.29323  Biso   1.000  H
  H1788    1.0000 0.24479  0.66703  0.24611  Biso   1.000  H
  H1789    1.0000 0.25518  0.66703  0.25391  Biso   1.000  H
  H1790    1.0000 0.21311  0.64082  0.20679  Biso   1.000  H
  C1780    1.0000 0.17248  0.21235  0.04742  Biso   1.000  C
  H1791    1.0000 0.17609  0.19950  0.89673  Biso   1.000  H
  H1792    1.0000 0.23801  0.17592  0.90466  Biso   1.000  H
  H1793    1.0000 0.17702  0.21769  0.89071  Biso   1.000  H
  H1794    1.0000 0.22172  0.16960  0.90933  Biso   1.000  H
  H1795    1.0000 0.29323  0.21311  0.85924  Biso   1.000  H
  H1796    1.0000 0.24611  0.25518  0.83303  Biso   1.000  H
  H1797    1.0000 0.25391  0.24479  0.83303  Biso   1.000  H
  H1798    1.0000 0.20679  0.28691  0.85924  Biso   1.000  H
  H1799    1.0000 0.24619  0.04131  0.15141  Biso   1.000  H
  C1781    1.0000 0.17783  0.09754  0.15917  Biso   1.000  C
  H1800    1.0000 0.15141  0.25379  0.45871  Biso   1.000  H
  C1782    1.0000 0.15917  0.32215  0.40248  Biso   1.000  C
  C1783    1.0000 0.17783  0.40248  0.34085  Biso   1.000  C
  H1801    1.0000 0.24619  0.45871  0.34862  Biso   1.000  H
  C1784    1.0000 0.15917  0.17783  0.09754  Biso   1.000  C
  H1802    1.0000 0.15141  0.24619  0.04131  Biso   1.000  H
  C1785    1.0000 0.19182  0.13062  0.11239  Biso   1.000  C
  C1786    1.0000 0.13062  0.11239  0.19182  Biso   1.000  C
  C1787    1.0000 0.19182  0.36940  0.38763  Biso   1.000  C
  C1788    1.0000 0.11239  0.30816  0.36940  Biso   1.000  C
  C1789    1.0000 0.13062  0.38763  0.30816  Biso   1.000  C
  C1790    1.0000 0.11239  0.19182  0.13062  Biso   1.000  C
  H1803    1.0000 0.22410  0.12100  0.09021  Biso   1.000  H
  C1791    1.0000 0.09754  0.15917  0.17783  Biso   1.000  C
  H1804    1.0000 0.12100  0.09021  0.22410  Biso   1.000  H
  H1805    1.0000 0.22410  0.37902  0.40981  Biso   1.000  H
  C1792    1.0000 0.09754  0.34085  0.32215  Biso   1.000  C
  H1806    1.0000 0.09021  0.27592  0.37902  Biso   1.000  H
  H1807    1.0000 0.12100  0.40981  0.27592  Biso   1.000  H
  H1808    1.0000 0.09021  0.22410  0.12100  Biso   1.000  H
  C1793    1.0000 0.04742  0.17248  0.21235  Biso   1.000  C
  C1794    1.0000 0.04742  0.32754  0.28763  Biso   1.000  C
  N371     1.0000 0.01200  0.21074  0.19912  Biso   1.000  N
  H1809    1.0000 0.04131  0.15141  0.24619  Biso   1.000  H
  N372     1.0000 0.01200  0.28928  0.30086  Biso   1.000  N
  H1810    1.0000 0.04131  0.34862  0.25379  Biso   1.000  H
  C1795    1.0000 0.96556  0.21994  0.23826  Biso   1.000  C
  C1796    1.0000 0.96556  0.28008  0.26176  Biso   1.000  C
  H1811    1.0000 0.96840  0.19229  0.27033  Biso   1.000  H
  C1797    1.0000 0.90691  0.21519  0.21104  Biso   1.000  C
  H1812    1.0000 0.96840  0.30769  0.22970  Biso   1.000  H
  C1798    1.0000 0.90691  0.28483  0.28899  Biso   1.000  C
  H1813    1.0000 0.89673  0.17609  0.19950  Biso   1.000  H
  H1814    1.0000 0.90466  0.23801  0.17592  Biso   1.000  H
  C1799    1.0000 0.86865  0.23746  0.25981  Biso   1.000  C
  C1800    1.0000 0.86865  0.26256  0.24021  Biso   1.000  C
  H1815    1.0000 0.89071  0.17702  0.21769  Biso   1.000  H
  H1816    1.0000 0.90933  0.22172  0.16960  Biso   1.000  H
  H1817    1.0000 0.89673  0.32389  0.30052  Biso   1.000  H
  H1818    1.0000 0.90466  0.26201  0.32410  Biso   1.000  H
  H1819    1.0000 0.89071  0.32300  0.28229  Biso   1.000  H
  H1820    1.0000 0.90933  0.27830  0.33042  Biso   1.000  H
  H1821    1.0000 0.83303  0.24611  0.25518  Biso   1.000  H
  H1822    1.0000 0.85924  0.20679  0.28691  Biso   1.000  H
  H1823    1.0000 0.83303  0.25391  0.24479  Biso   1.000  H
  H1824    1.0000 0.85924  0.29323  0.21311  Biso   1.000  H
