data_image0
_cell_length_a       23.878
_cell_length_b       23.878
_cell_length_c       23.878
_cell_angle_alpha    90
_cell_angle_beta     90
_cell_angle_gamma    90

_symmetry_space_group_name_H-M    "P 1"
_symmetry_int_tables_number       1

loop_
  _symmetry_equiv_pos_as_xyz
  'x, y, z'

loop_
  _atom_site_label
  _atom_site_occupancy
  _atom_site_fract_x
  _atom_site_fract_y
  _atom_site_fract_z
  _atom_site_thermal_displace_type
  _atom_site_B_iso_or_equiv
  _atom_site_type_symbol
  C1       1.0000 0.74998  0.63033  0.74998  Biso   1.000  C
  C2       1.0000 0.78767  0.58874  0.71522  Biso   1.000  C
  C3       1.0000 0.71229  0.58874  0.78474  Biso   1.000  C
  C4       1.0000 0.77201  0.63360  0.70848  Biso   1.000  C
  C5       1.0000 0.72799  0.63360  0.79148  Biso   1.000  C
  H1       1.0000 0.77289  0.65428  0.77490  Biso   1.000  H
  H2       1.0000 0.72707  0.65428  0.72510  Biso   1.000  H
  C6       1.0000 0.76124  0.53057  0.72029  Biso   1.000  C
  H3       1.0000 0.78918  0.60047  0.67548  Biso   1.000  H
  H4       1.0000 0.82628  0.58828  0.73030  Biso   1.000  H
  H5       1.0000 0.83960  0.57811  0.71840  Biso   1.000  H
  C7       1.0000 0.73876  0.53057  0.77971  Biso   1.000  C
  H6       1.0000 0.71078  0.60047  0.82448  Biso   1.000  H
  H7       1.0000 0.67367  0.58828  0.76970  Biso   1.000  H
  H8       1.0000 0.66040  0.57811  0.78160  Biso   1.000  H
  C8       1.0000 0.80367  0.57890  0.69759  Biso   1.000  C
  H9       1.0000 0.79848  0.66551  0.70910  Biso   1.000  H
  H10      1.0000 0.74428  0.64017  0.67841  Biso   1.000  H
  C9       1.0000 0.69629  0.57890  0.80237  Biso   1.000  C
  H11      1.0000 0.70148  0.66551  0.79090  Biso   1.000  H
  H12      1.0000 0.75567  0.64017  0.82159  Biso   1.000  H
  N1       1.0000 0.79923  0.48404  0.71091  Biso   1.000  N
  H13      1.0000 0.72921  0.52768  0.69348  Biso   1.000  H
  N2       1.0000 0.70077  0.48404  0.78905  Biso   1.000  N
  H14      1.0000 0.77079  0.52768  0.80647  Biso   1.000  H
  H15      1.0000 0.81150  0.57400  0.65709  Biso   1.000  H
  H16      1.0000 0.68850  0.57400  0.84287  Biso   1.000  H
  C10      1.0000 0.78683  0.44991  0.67271  Biso   1.000  C
  C11      1.0000 0.71317  0.44991  0.82725  Biso   1.000  C
  C12      1.0000 0.82092  0.40045  0.65981  Biso   1.000  C
  H17      1.0000 0.75400  0.45640  0.65127  Biso   1.000  H
  H18      1.0000 0.74600  0.45640  0.84869  Biso   1.000  H
  C13      1.0000 0.67904  0.40045  0.84015  Biso   1.000  C
  C14      1.0000 0.80765  0.36753  0.61370  Biso   1.000  C
  C15      1.0000 0.86753  0.38630  0.69235  Biso   1.000  C
  C16      1.0000 0.63242  0.38630  0.80765  Biso   1.000  C
  C17      1.0000 0.69235  0.36753  0.88626  Biso   1.000  C
  C18      1.0000 0.84015  0.32096  0.59951  Biso   1.000  C
  H19      1.0000 0.77599  0.37687  0.59151  Biso   1.000  H
  C19      1.0000 0.90045  0.34015  0.67904  Biso   1.000  C
  H20      1.0000 0.87687  0.40849  0.72397  Biso   1.000  H
  C20      1.0000 0.59951  0.34015  0.82092  Biso   1.000  C
  H21      1.0000 0.62308  0.40849  0.77599  Biso   1.000  H
  C21      1.0000 0.65981  0.32096  0.90045  Biso   1.000  C
  H22      1.0000 0.72397  0.37687  0.90849  Biso   1.000  H
  C22      1.0000 0.82725  0.28683  0.55009  Biso   1.000  C
  C23      1.0000 0.88626  0.30765  0.63242  Biso   1.000  C
  C24      1.0000 0.94991  0.32725  0.71317  Biso   1.000  C
  C25      1.0000 0.55009  0.32725  0.78683  Biso   1.000  C
  C26      1.0000 0.61370  0.30765  0.86753  Biso   1.000  C
  C27      1.0000 0.67271  0.28683  0.94991  Biso   1.000  C
  N3       1.0000 0.78905  0.29923  0.51596  Biso   1.000  N
  H23      1.0000 0.84869  0.25400  0.54360  Biso   1.000  H
  H24      1.0000 0.90849  0.27599  0.62308  Biso   1.000  H
  N4       1.0000 0.98404  0.28905  0.70077  Biso   1.000  N
  H25      1.0000 0.95640  0.34869  0.74600  Biso   1.000  H
  N5       1.0000 0.51596  0.28905  0.79923  Biso   1.000  N
  H26      1.0000 0.54360  0.34869  0.75400  Biso   1.000  H
  H27      1.0000 0.59151  0.27599  0.87687  Biso   1.000  H
  N6       1.0000 0.71091  0.29923  0.98404  Biso   1.000  N
  H28      1.0000 0.65127  0.25400  0.95640  Biso   1.000  H
  C28      1.0000 0.77971  0.26124  0.46943  Biso   1.000  C
  C29      1.0000 0.03057  0.27971  0.73876  Biso   1.000  C
  C30      1.0000 0.46943  0.27971  0.76124  Biso   1.000  C
  C31      1.0000 0.72029  0.26124  0.03057  Biso   1.000  C
  C32      1.0000 0.72029  0.23876  0.46943  Biso   1.000  C
  C33      1.0000 0.78474  0.28771  0.41126  Biso   1.000  C
  C34      1.0000 0.80237  0.30371  0.42110  Biso   1.000  C
  H29      1.0000 0.80647  0.22921  0.47228  Biso   1.000  H
  C35      1.0000 0.03057  0.22029  0.76124  Biso   1.000  C
  H30      1.0000 0.02768  0.30647  0.77079  Biso   1.000  H
  C36      1.0000 0.08874  0.28474  0.71229  Biso   1.000  C
  C37      1.0000 0.07890  0.30241  0.69629  Biso   1.000  C
  C38      1.0000 0.46943  0.22029  0.73876  Biso   1.000  C
  H31      1.0000 0.47228  0.30647  0.72921  Biso   1.000  H
  C39      1.0000 0.41126  0.28474  0.78767  Biso   1.000  C
  C40      1.0000 0.42110  0.30241  0.80367  Biso   1.000  C
  C41      1.0000 0.77971  0.23876  0.03057  Biso   1.000  C
  H32      1.0000 0.69348  0.22921  0.02768  Biso   1.000  H
  C42      1.0000 0.71522  0.28771  0.08874  Biso   1.000  C
  C43      1.0000 0.69759  0.30371  0.07890  Biso   1.000  C
  C44      1.0000 0.71522  0.21229  0.41126  Biso   1.000  C
  C45      1.0000 0.69759  0.19629  0.42110  Biso   1.000  C
  N7       1.0000 0.71091  0.20077  0.51596  Biso   1.000  N
  H33      1.0000 0.69348  0.27079  0.47228  Biso   1.000  H
  C46      1.0000 0.74998  0.24998  0.36967  Biso   1.000  C
  C47      1.0000 0.79148  0.27201  0.36640  Biso   1.000  C
  H34      1.0000 0.82448  0.28918  0.39949  Biso   1.000  H
  H35      1.0000 0.76970  0.32628  0.41168  Biso   1.000  H
  H36      1.0000 0.78160  0.33960  0.42189  Biso   1.000  H
  H37      1.0000 0.84287  0.31150  0.42600  Biso   1.000  H
  N8       1.0000 0.98404  0.21095  0.79923  Biso   1.000  N
  H38      1.0000 0.02768  0.19348  0.72921  Biso   1.000  H
  C48      1.0000 0.08874  0.21522  0.78767  Biso   1.000  C
  C49      1.0000 0.07890  0.19759  0.80367  Biso   1.000  C
  C50      1.0000 0.13033  0.24998  0.74998  Biso   1.000  C
  H39      1.0000 0.10047  0.32448  0.71078  Biso   1.000  H
  H40      1.0000 0.08828  0.26970  0.67367  Biso   1.000  H
  H41      1.0000 0.07811  0.28160  0.66040  Biso   1.000  H
  C51      1.0000 0.13360  0.29148  0.72799  Biso   1.000  C
  H42      1.0000 0.07400  0.34291  0.68850  Biso   1.000  H
  N9       1.0000 0.51596  0.21095  0.70077  Biso   1.000  N
  H43      1.0000 0.47228  0.19348  0.77079  Biso   1.000  H
  C52      1.0000 0.41126  0.21522  0.71229  Biso   1.000  C
  C53      1.0000 0.42110  0.19759  0.69629  Biso   1.000  C
  C54      1.0000 0.36967  0.24998  0.74998  Biso   1.000  C
  H44      1.0000 0.39949  0.32448  0.78918  Biso   1.000  H
  H45      1.0000 0.41168  0.26970  0.82628  Biso   1.000  H
  H46      1.0000 0.42189  0.28160  0.83960  Biso   1.000  H
  C55      1.0000 0.36640  0.29148  0.77201  Biso   1.000  C
  H47      1.0000 0.42600  0.34291  0.81150  Biso   1.000  H
  N10      1.0000 0.78905  0.20077  0.98404  Biso   1.000  N
  H48      1.0000 0.80647  0.27079  0.02768  Biso   1.000  H
  C56      1.0000 0.78474  0.21229  0.08874  Biso   1.000  C
  C57      1.0000 0.80237  0.19629  0.07890  Biso   1.000  C
  C58      1.0000 0.74998  0.24998  0.13033  Biso   1.000  C
  H49      1.0000 0.67548  0.28918  0.10047  Biso   1.000  H
  H50      1.0000 0.73030  0.32628  0.08828  Biso   1.000  H
  H51      1.0000 0.71840  0.33960  0.07811  Biso   1.000  H
  C59      1.0000 0.70848  0.27201  0.13360  Biso   1.000  C
  H52      1.0000 0.65709  0.31150  0.07400  Biso   1.000  H
  C60      1.0000 0.70848  0.22799  0.36640  Biso   1.000  C
  H53      1.0000 0.67548  0.21078  0.39949  Biso   1.000  H
  H54      1.0000 0.73030  0.17372  0.41168  Biso   1.000  H
  H55      1.0000 0.71840  0.16040  0.42189  Biso   1.000  H
  H56      1.0000 0.65709  0.18850  0.42600  Biso   1.000  H
  C61      1.0000 0.67271  0.21317  0.55009  Biso   1.000  C
  H57      1.0000 0.72510  0.27289  0.34567  Biso   1.000  H
  H58      1.0000 0.77490  0.22711  0.34567  Biso   1.000  H
  H59      1.0000 0.79090  0.29848  0.33449  Biso   1.000  H
  H60      1.0000 0.82159  0.24428  0.35979  Biso   1.000  H
  C62      1.0000 0.94991  0.17271  0.78683  Biso   1.000  C
  H61      1.0000 0.10047  0.17552  0.78918  Biso   1.000  H
  H62      1.0000 0.08828  0.23030  0.82628  Biso   1.000  H
  H63      1.0000 0.07811  0.21840  0.83960  Biso   1.000  H
  C63      1.0000 0.13360  0.20848  0.77201  Biso   1.000  C
  H64      1.0000 0.07400  0.15709  0.81150  Biso   1.000  H
  H65      1.0000 0.15428  0.27490  0.77289  Biso   1.000  H
  H66      1.0000 0.15428  0.22510  0.72707  Biso   1.000  H
  H67      1.0000 0.16551  0.29090  0.70148  Biso   1.000  H
  H68      1.0000 0.14021  0.32159  0.75567  Biso   1.000  H
  C64      1.0000 0.55009  0.17271  0.71317  Biso   1.000  C
  H69      1.0000 0.39949  0.17552  0.71078  Biso   1.000  H
  H70      1.0000 0.41168  0.23030  0.67367  Biso   1.000  H
  H71      1.0000 0.42189  0.21840  0.66040  Biso   1.000  H
  C65      1.0000 0.36640  0.20848  0.72799  Biso   1.000  C
  H72      1.0000 0.42600  0.15709  0.68850  Biso   1.000  H
  H73      1.0000 0.34567  0.27490  0.72707  Biso   1.000  H
  H74      1.0000 0.34567  0.22510  0.77289  Biso   1.000  H
  H75      1.0000 0.33449  0.29090  0.79848  Biso   1.000  H
  H76      1.0000 0.35979  0.32159  0.74428  Biso   1.000  H
  C66      1.0000 0.82725  0.21317  0.94991  Biso   1.000  C
  H77      1.0000 0.82448  0.21078  0.10047  Biso   1.000  H
  H78      1.0000 0.76970  0.17372  0.08828  Biso   1.000  H
  H79      1.0000 0.78160  0.16040  0.07811  Biso   1.000  H
  C67      1.0000 0.79148  0.22799  0.13360  Biso   1.000  C
  H80      1.0000 0.84287  0.18850  0.07400  Biso   1.000  H
  H81      1.0000 0.72510  0.22711  0.15428  Biso   1.000  H
  H82      1.0000 0.77490  0.27289  0.15428  Biso   1.000  H
  H83      1.0000 0.70910  0.29848  0.16551  Biso   1.000  H
  H84      1.0000 0.67841  0.24428  0.14021  Biso   1.000  H
  H85      1.0000 0.70910  0.20148  0.33449  Biso   1.000  H
  H86      1.0000 0.67841  0.25572  0.35979  Biso   1.000  H
  H87      1.0000 0.65127  0.24600  0.54360  Biso   1.000  H
  C68      1.0000 0.65981  0.17904  0.59951  Biso   1.000  C
  H88      1.0000 0.95640  0.15131  0.75400  Biso   1.000  H
  C69      1.0000 0.90045  0.15985  0.82092  Biso   1.000  C
  H89      1.0000 0.16551  0.20910  0.79848  Biso   1.000  H
  H90      1.0000 0.14021  0.17841  0.74428  Biso   1.000  H
  C70      1.0000 0.59951  0.15985  0.67904  Biso   1.000  C
  H91      1.0000 0.54360  0.15131  0.74600  Biso   1.000  H
  H92      1.0000 0.33449  0.20910  0.70148  Biso   1.000  H
  H93      1.0000 0.35979  0.17841  0.75567  Biso   1.000  H
  C71      1.0000 0.84015  0.17904  0.90045  Biso   1.000  C
  H94      1.0000 0.84869  0.24600  0.95640  Biso   1.000  H
  H95      1.0000 0.79090  0.20148  0.16551  Biso   1.000  H
  H96      1.0000 0.82159  0.25572  0.14021  Biso   1.000  H
  C72      1.0000 0.69235  0.13242  0.61370  Biso   1.000  C
  C73      1.0000 0.61370  0.19235  0.63242  Biso   1.000  C
  C74      1.0000 0.86753  0.11370  0.80765  Biso   1.000  C
  C75      1.0000 0.88626  0.19235  0.86753  Biso   1.000  C
  C76      1.0000 0.63242  0.11370  0.69235  Biso   1.000  C
  C77      1.0000 0.80765  0.13242  0.88626  Biso   1.000  C
  C78      1.0000 0.67904  0.09955  0.65981  Biso   1.000  C
  H97      1.0000 0.72397  0.12308  0.59151  Biso   1.000  H
  H98      1.0000 0.59151  0.22401  0.62308  Biso   1.000  H
  C79      1.0000 0.82092  0.09955  0.84015  Biso   1.000  C
  H99      1.0000 0.87687  0.09151  0.77599  Biso   1.000  H
  H100     1.0000 0.90849  0.22401  0.87687  Biso   1.000  H
  H101     1.0000 0.62308  0.09151  0.72397  Biso   1.000  H
  H102     1.0000 0.77599  0.12308  0.90849  Biso   1.000  H
  C80      1.0000 0.71317  0.05009  0.67271  Biso   1.000  C
  C81      1.0000 0.78683  0.05009  0.82725  Biso   1.000  C
  N11      1.0000 0.70077  0.01596  0.71091  Biso   1.000  N
  H103     1.0000 0.74600  0.04360  0.65127  Biso   1.000  H
  N12      1.0000 0.79923  0.01596  0.78905  Biso   1.000  N
  H104     1.0000 0.75400  0.04360  0.84869  Biso   1.000  H
  C82      1.0000 0.73876  0.96943  0.72029  Biso   1.000  C
  C83      1.0000 0.76124  0.96943  0.77971  Biso   1.000  C
  H105     1.0000 0.77079  0.97232  0.69348  Biso   1.000  H
  C84      1.0000 0.71229  0.91126  0.71522  Biso   1.000  C
  C85      1.0000 0.69629  0.92110  0.69759  Biso   1.000  C
  H106     1.0000 0.72921  0.97232  0.80647  Biso   1.000  H
  C86      1.0000 0.78767  0.91126  0.78474  Biso   1.000  C
  C87      1.0000 0.80367  0.92110  0.80237  Biso   1.000  C
  H107     1.0000 0.71078  0.89949  0.67548  Biso   1.000  H
  H108     1.0000 0.67367  0.91172  0.73030  Biso   1.000  H
  C88      1.0000 0.74998  0.86967  0.74998  Biso   1.000  C
  H109     1.0000 0.66040  0.92189  0.71840  Biso   1.000  H
  C89      1.0000 0.72799  0.86640  0.70848  Biso   1.000  C
  H110     1.0000 0.68850  0.92600  0.65709  Biso   1.000  H
  H111     1.0000 0.78918  0.89949  0.82448  Biso   1.000  H
  H112     1.0000 0.82628  0.91172  0.76970  Biso   1.000  H
  H113     1.0000 0.83960  0.92189  0.78160  Biso   1.000  H
  C90      1.0000 0.77201  0.86640  0.79148  Biso   1.000  C
  H114     1.0000 0.81150  0.92600  0.84287  Biso   1.000  H
  H115     1.0000 0.77289  0.84572  0.72510  Biso   1.000  H
  H116     1.0000 0.72707  0.84572  0.77490  Biso   1.000  H
  H117     1.0000 0.70148  0.83449  0.70910  Biso   1.000  H
  H118     1.0000 0.75567  0.85979  0.67841  Biso   1.000  H
  H119     1.0000 0.79848  0.83449  0.79090  Biso   1.000  H
  H120     1.0000 0.74428  0.85979  0.82159  Biso   1.000  H
  C91      1.0000 0.74998  0.74998  0.63033  Biso   1.000  C
  C92      1.0000 0.71522  0.78767  0.58874  Biso   1.000  C
  C93      1.0000 0.78474  0.71229  0.58874  Biso   1.000  C
  C94      1.0000 0.70848  0.77201  0.63360  Biso   1.000  C
  C95      1.0000 0.79148  0.72799  0.63360  Biso   1.000  C
  H121     1.0000 0.72510  0.72707  0.65428  Biso   1.000  H
  H122     1.0000 0.77490  0.77289  0.65428  Biso   1.000  H
  C96      1.0000 0.72029  0.76124  0.53057  Biso   1.000  C
  H123     1.0000 0.67548  0.78918  0.60047  Biso   1.000  H
  H124     1.0000 0.73030  0.82628  0.58828  Biso   1.000  H
  H125     1.0000 0.71840  0.83960  0.57811  Biso   1.000  H
  C97      1.0000 0.77971  0.73876  0.53057  Biso   1.000  C
  H126     1.0000 0.82448  0.71078  0.60047  Biso   1.000  H
  H127     1.0000 0.76970  0.67367  0.58828  Biso   1.000  H
  H128     1.0000 0.78160  0.66040  0.57811  Biso   1.000  H
  C98      1.0000 0.69759  0.80367  0.57890  Biso   1.000  C
  H129     1.0000 0.70910  0.79848  0.66551  Biso   1.000  H
  H130     1.0000 0.67841  0.74428  0.64017  Biso   1.000  H
  C99      1.0000 0.80237  0.69629  0.57890  Biso   1.000  C
  H131     1.0000 0.79090  0.70148  0.66551  Biso   1.000  H
  H132     1.0000 0.82159  0.75567  0.64017  Biso   1.000  H
  N13      1.0000 0.71091  0.79923  0.48404  Biso   1.000  N
  H133     1.0000 0.69348  0.72921  0.52768  Biso   1.000  H
  N14      1.0000 0.78905  0.70077  0.48404  Biso   1.000  N
  H134     1.0000 0.80647  0.77079  0.52768  Biso   1.000  H
  H135     1.0000 0.65709  0.81150  0.57400  Biso   1.000  H
  H136     1.0000 0.84287  0.68850  0.57400  Biso   1.000  H
  C100     1.0000 0.67271  0.78683  0.44991  Biso   1.000  C
  C101     1.0000 0.82725  0.71317  0.44991  Biso   1.000  C
  C102     1.0000 0.65981  0.82092  0.40045  Biso   1.000  C
  H137     1.0000 0.65127  0.75400  0.45640  Biso   1.000  H
  H138     1.0000 0.84869  0.74600  0.45640  Biso   1.000  H
  C103     1.0000 0.84015  0.67904  0.40045  Biso   1.000  C
  C104     1.0000 0.61370  0.80765  0.36753  Biso   1.000  C
  C105     1.0000 0.69235  0.86753  0.38630  Biso   1.000  C
  C106     1.0000 0.80765  0.63242  0.38630  Biso   1.000  C
  C107     1.0000 0.88626  0.69235  0.36753  Biso   1.000  C
  C108     1.0000 0.59951  0.84015  0.32096  Biso   1.000  C
  H139     1.0000 0.59151  0.77599  0.37687  Biso   1.000  H
  C109     1.0000 0.67904  0.90045  0.34015  Biso   1.000  C
  H140     1.0000 0.72397  0.87687  0.40849  Biso   1.000  H
  C110     1.0000 0.82092  0.59951  0.34015  Biso   1.000  C
  H141     1.0000 0.77599  0.62308  0.40849  Biso   1.000  H
  C111     1.0000 0.90045  0.65981  0.32096  Biso   1.000  C
  H142     1.0000 0.90849  0.72397  0.37687  Biso   1.000  H
  C112     1.0000 0.55009  0.82725  0.28683  Biso   1.000  C
  C113     1.0000 0.63242  0.88626  0.30765  Biso   1.000  C
  C114     1.0000 0.71317  0.94991  0.32725  Biso   1.000  C
  C115     1.0000 0.78683  0.55009  0.32725  Biso   1.000  C
  C116     1.0000 0.86753  0.61370  0.30765  Biso   1.000  C
  C117     1.0000 0.94991  0.67271  0.28683  Biso   1.000  C
  N15      1.0000 0.51596  0.78905  0.29923  Biso   1.000  N
  H143     1.0000 0.54360  0.84869  0.25400  Biso   1.000  H
  H144     1.0000 0.62308  0.90849  0.27599  Biso   1.000  H
  N16      1.0000 0.70077  0.98404  0.28905  Biso   1.000  N
  H145     1.0000 0.74600  0.95640  0.34869  Biso   1.000  H
  N17      1.0000 0.79923  0.51596  0.28905  Biso   1.000  N
  H146     1.0000 0.75400  0.54360  0.34869  Biso   1.000  H
  H147     1.0000 0.87687  0.59151  0.27599  Biso   1.000  H
  N18      1.0000 0.98404  0.71091  0.29923  Biso   1.000  N
  H148     1.0000 0.95640  0.65127  0.25400  Biso   1.000  H
  C118     1.0000 0.46943  0.77971  0.26124  Biso   1.000  C
  C119     1.0000 0.73876  0.03057  0.27971  Biso   1.000  C
  C120     1.0000 0.76124  0.46943  0.27971  Biso   1.000  C
  C121     1.0000 0.03057  0.72029  0.26124  Biso   1.000  C
  C122     1.0000 0.46943  0.72029  0.23876  Biso   1.000  C
  C123     1.0000 0.41126  0.78474  0.28771  Biso   1.000  C
  C124     1.0000 0.42110  0.80237  0.30371  Biso   1.000  C
  H149     1.0000 0.47228  0.80647  0.22921  Biso   1.000  H
  C125     1.0000 0.76124  0.03057  0.22029  Biso   1.000  C
  H150     1.0000 0.77079  0.02768  0.30647  Biso   1.000  H
  C126     1.0000 0.71229  0.08874  0.28474  Biso   1.000  C
  C127     1.0000 0.69629  0.07890  0.30241  Biso   1.000  C
  C128     1.0000 0.73876  0.46943  0.22029  Biso   1.000  C
  H151     1.0000 0.72921  0.47228  0.30647  Biso   1.000  H
  C129     1.0000 0.78767  0.41126  0.28474  Biso   1.000  C
  C130     1.0000 0.80367  0.42110  0.30241  Biso   1.000  C
  C131     1.0000 0.03057  0.77971  0.23876  Biso   1.000  C
  H152     1.0000 0.02768  0.69348  0.22921  Biso   1.000  H
  C132     1.0000 0.08874  0.71522  0.28771  Biso   1.000  C
  C133     1.0000 0.07890  0.69759  0.30371  Biso   1.000  C
  C134     1.0000 0.41126  0.71522  0.21229  Biso   1.000  C
  C135     1.0000 0.42110  0.69759  0.19629  Biso   1.000  C
  N19      1.0000 0.51596  0.71091  0.20077  Biso   1.000  N
  H153     1.0000 0.47228  0.69348  0.27079  Biso   1.000  H
  C136     1.0000 0.36967  0.74998  0.24998  Biso   1.000  C
  C137     1.0000 0.36640  0.79148  0.27201  Biso   1.000  C
  H154     1.0000 0.39949  0.82448  0.28918  Biso   1.000  H
  H155     1.0000 0.41168  0.76970  0.32628  Biso   1.000  H
  H156     1.0000 0.42189  0.78160  0.33960  Biso   1.000  H
  H157     1.0000 0.42600  0.84287  0.31150  Biso   1.000  H
  N20      1.0000 0.79923  0.98404  0.21095  Biso   1.000  N
  H158     1.0000 0.72921  0.02768  0.19348  Biso   1.000  H
  C138     1.0000 0.78767  0.08874  0.21522  Biso   1.000  C
  C139     1.0000 0.80367  0.07890  0.19759  Biso   1.000  C
  H159     1.0000 0.71078  0.10047  0.32448  Biso   1.000  H
  H160     1.0000 0.67367  0.08828  0.26970  Biso   1.000  H
  C140     1.0000 0.74998  0.13033  0.24998  Biso   1.000  C
  H161     1.0000 0.66040  0.07811  0.28160  Biso   1.000  H
  C141     1.0000 0.72799  0.13360  0.29148  Biso   1.000  C
  H162     1.0000 0.68850  0.07400  0.34291  Biso   1.000  H
  N21      1.0000 0.70077  0.51596  0.21095  Biso   1.000  N
  H163     1.0000 0.77079  0.47228  0.19348  Biso   1.000  H
  C142     1.0000 0.71229  0.41126  0.21522  Biso   1.000  C
  C143     1.0000 0.69629  0.42110  0.19759  Biso   1.000  C
  C144     1.0000 0.74998  0.36967  0.24998  Biso   1.000  C
  H164     1.0000 0.78918  0.39949  0.32448  Biso   1.000  H
  H165     1.0000 0.82628  0.41168  0.26970  Biso   1.000  H
  H166     1.0000 0.83960  0.42189  0.28160  Biso   1.000  H
  C145     1.0000 0.77201  0.36640  0.29148  Biso   1.000  C
  H167     1.0000 0.81150  0.42600  0.34291  Biso   1.000  H
  N22      1.0000 0.98404  0.78905  0.20077  Biso   1.000  N
  H168     1.0000 0.02768  0.80647  0.27079  Biso   1.000  H
  C146     1.0000 0.08874  0.78474  0.21229  Biso   1.000  C
  C147     1.0000 0.07890  0.80237  0.19629  Biso   1.000  C
  C148     1.0000 0.13033  0.74998  0.24998  Biso   1.000  C
  H169     1.0000 0.10047  0.67548  0.28918  Biso   1.000  H
  H170     1.0000 0.08828  0.73030  0.32628  Biso   1.000  H
  H171     1.0000 0.07811  0.71840  0.33960  Biso   1.000  H
  C149     1.0000 0.13360  0.70848  0.27201  Biso   1.000  C
  H172     1.0000 0.07400  0.65709  0.31150  Biso   1.000  H
  C150     1.0000 0.36640  0.70848  0.22799  Biso   1.000  C
  H173     1.0000 0.39949  0.67548  0.21078  Biso   1.000  H
  H174     1.0000 0.41168  0.73030  0.17372  Biso   1.000  H
  H175     1.0000 0.42189  0.71840  0.16040  Biso   1.000  H
  H176     1.0000 0.42600  0.65709  0.18850  Biso   1.000  H
  C151     1.0000 0.55009  0.67271  0.21317  Biso   1.000  C
  H177     1.0000 0.34567  0.72510  0.27289  Biso   1.000  H
  H178     1.0000 0.34567  0.77490  0.22711  Biso   1.000  H
  H179     1.0000 0.33449  0.79090  0.29848  Biso   1.000  H
  H180     1.0000 0.35979  0.82159  0.24428  Biso   1.000  H
  C152     1.0000 0.78683  0.94991  0.17271  Biso   1.000  C
  H181     1.0000 0.78918  0.10047  0.17552  Biso   1.000  H
  H182     1.0000 0.82628  0.08828  0.23030  Biso   1.000  H
  H183     1.0000 0.83960  0.07811  0.21840  Biso   1.000  H
  C153     1.0000 0.77201  0.13360  0.20848  Biso   1.000  C
  H184     1.0000 0.81150  0.07400  0.15709  Biso   1.000  H
  H185     1.0000 0.77289  0.15428  0.27490  Biso   1.000  H
  H186     1.0000 0.72707  0.15428  0.22510  Biso   1.000  H
  H187     1.0000 0.70148  0.16551  0.29090  Biso   1.000  H
  H188     1.0000 0.75567  0.14021  0.32159  Biso   1.000  H
  C154     1.0000 0.71317  0.55009  0.17271  Biso   1.000  C
  H189     1.0000 0.71078  0.39949  0.17552  Biso   1.000  H
  H190     1.0000 0.67367  0.41168  0.23030  Biso   1.000  H
  H191     1.0000 0.66040  0.42189  0.21840  Biso   1.000  H
  C155     1.0000 0.72799  0.36640  0.20848  Biso   1.000  C
  H192     1.0000 0.68850  0.42600  0.15709  Biso   1.000  H
  H193     1.0000 0.77289  0.34567  0.22510  Biso   1.000  H
  H194     1.0000 0.72707  0.34567  0.27490  Biso   1.000  H
  H195     1.0000 0.79848  0.33449  0.29090  Biso   1.000  H
  H196     1.0000 0.74428  0.35979  0.32159  Biso   1.000  H
  C156     1.0000 0.94991  0.82725  0.21317  Biso   1.000  C
  H197     1.0000 0.10047  0.82448  0.21078  Biso   1.000  H
  H198     1.0000 0.08828  0.76970  0.17372  Biso   1.000  H
  H199     1.0000 0.07811  0.78160  0.16040  Biso   1.000  H
  C157     1.0000 0.13360  0.79148  0.22799  Biso   1.000  C
  H200     1.0000 0.07400  0.84287  0.18850  Biso   1.000  H
  H201     1.0000 0.15428  0.72510  0.22711  Biso   1.000  H
  H202     1.0000 0.15428  0.77490  0.27289  Biso   1.000  H
  H203     1.0000 0.16551  0.70910  0.29848  Biso   1.000  H
  H204     1.0000 0.14021  0.67841  0.24428  Biso   1.000  H
  H205     1.0000 0.33449  0.70910  0.20148  Biso   1.000  H
  H206     1.0000 0.35979  0.67841  0.25572  Biso   1.000  H
  H207     1.0000 0.54360  0.65127  0.24600  Biso   1.000  H
  C158     1.0000 0.59951  0.65981  0.17904  Biso   1.000  C
  H208     1.0000 0.75400  0.95640  0.15131  Biso   1.000  H
  C159     1.0000 0.82092  0.90045  0.15985  Biso   1.000  C
  H209     1.0000 0.79848  0.16551  0.20910  Biso   1.000  H
  H210     1.0000 0.74428  0.14021  0.17841  Biso   1.000  H
  C160     1.0000 0.67904  0.59951  0.15985  Biso   1.000  C
  H211     1.0000 0.74600  0.54360  0.15131  Biso   1.000  H
  H212     1.0000 0.70148  0.33449  0.20910  Biso   1.000  H
  H213     1.0000 0.75567  0.35979  0.17841  Biso   1.000  H
  C161     1.0000 0.90045  0.84015  0.17904  Biso   1.000  C
  H214     1.0000 0.95640  0.84869  0.24600  Biso   1.000  H
  H215     1.0000 0.16551  0.79090  0.20148  Biso   1.000  H
  H216     1.0000 0.14021  0.82159  0.25572  Biso   1.000  H
  C162     1.0000 0.61370  0.69235  0.13242  Biso   1.000  C
  C163     1.0000 0.63242  0.61370  0.19235  Biso   1.000  C
  C164     1.0000 0.80765  0.86753  0.11370  Biso   1.000  C
  C165     1.0000 0.86753  0.88626  0.19235  Biso   1.000  C
  C166     1.0000 0.69235  0.63242  0.11370  Biso   1.000  C
  C167     1.0000 0.88626  0.80765  0.13242  Biso   1.000  C
  C168     1.0000 0.65981  0.67904  0.09955  Biso   1.000  C
  H217     1.0000 0.59151  0.72397  0.12308  Biso   1.000  H
  H218     1.0000 0.62308  0.59151  0.22401  Biso   1.000  H
  C169     1.0000 0.84015  0.82092  0.09955  Biso   1.000  C
  H219     1.0000 0.77599  0.87687  0.09151  Biso   1.000  H
  H220     1.0000 0.87687  0.90849  0.22401  Biso   1.000  H
  H221     1.0000 0.72397  0.62308  0.09151  Biso   1.000  H
  H222     1.0000 0.90849  0.77599  0.12308  Biso   1.000  H
  C170     1.0000 0.67271  0.71317  0.05009  Biso   1.000  C
  C171     1.0000 0.82725  0.78683  0.05009  Biso   1.000  C
  N23      1.0000 0.71091  0.70077  0.01596  Biso   1.000  N
  H223     1.0000 0.65127  0.74600  0.04360  Biso   1.000  H
  N24      1.0000 0.78905  0.79923  0.01596  Biso   1.000  N
  H224     1.0000 0.84869  0.75400  0.04360  Biso   1.000  H
  C172     1.0000 0.72029  0.73876  0.96943  Biso   1.000  C
  C173     1.0000 0.77971  0.76124  0.96943  Biso   1.000  C
  H225     1.0000 0.69348  0.77079  0.97232  Biso   1.000  H
  C174     1.0000 0.71522  0.71229  0.91126  Biso   1.000  C
  C175     1.0000 0.69759  0.69629  0.92110  Biso   1.000  C
  H226     1.0000 0.80647  0.72921  0.97232  Biso   1.000  H
  C176     1.0000 0.78474  0.78767  0.91126  Biso   1.000  C
  C177     1.0000 0.80237  0.80367  0.92110  Biso   1.000  C
  H227     1.0000 0.67548  0.71078  0.89949  Biso   1.000  H
  H228     1.0000 0.73030  0.67367  0.91172  Biso   1.000  H
  C178     1.0000 0.74998  0.74998  0.86967  Biso   1.000  C
  H229     1.0000 0.71840  0.66040  0.92189  Biso   1.000  H
  C179     1.0000 0.70848  0.72799  0.86640  Biso   1.000  C
  H230     1.0000 0.65709  0.68850  0.92600  Biso   1.000  H
  H231     1.0000 0.82448  0.78918  0.89949  Biso   1.000  H
  H232     1.0000 0.76970  0.82628  0.91172  Biso   1.000  H
  H233     1.0000 0.78160  0.83960  0.92189  Biso   1.000  H
  C180     1.0000 0.79148  0.77201  0.86640  Biso   1.000  C
  H234     1.0000 0.84287  0.81150  0.92600  Biso   1.000  H
  H235     1.0000 0.72510  0.77289  0.84572  Biso   1.000  H
  H236     1.0000 0.77490  0.72707  0.84572  Biso   1.000  H
  H237     1.0000 0.70910  0.70148  0.83449  Biso   1.000  H
  H238     1.0000 0.67841  0.75567  0.85979  Biso   1.000  H
  H239     1.0000 0.79090  0.79848  0.83449  Biso   1.000  H
  H240     1.0000 0.82159  0.74428  0.85979  Biso   1.000  H
  C181     1.0000 0.63033  0.74998  0.74998  Biso   1.000  C
  C182     1.0000 0.58874  0.71522  0.78767  Biso   1.000  C
  C183     1.0000 0.58874  0.78474  0.71229  Biso   1.000  C
  C184     1.0000 0.63360  0.70848  0.77201  Biso   1.000  C
  C185     1.0000 0.63360  0.79148  0.72799  Biso   1.000  C
  H241     1.0000 0.65428  0.72510  0.72707  Biso   1.000  H
  H242     1.0000 0.65428  0.77490  0.77289  Biso   1.000  H
  C186     1.0000 0.53057  0.72029  0.76124  Biso   1.000  C
  H243     1.0000 0.60047  0.67548  0.78918  Biso   1.000  H
  H244     1.0000 0.58828  0.73030  0.82628  Biso   1.000  H
  H245     1.0000 0.57811  0.71840  0.83960  Biso   1.000  H
  C187     1.0000 0.53057  0.77971  0.73876  Biso   1.000  C
  H246     1.0000 0.60047  0.82448  0.71078  Biso   1.000  H
  H247     1.0000 0.58828  0.76970  0.67367  Biso   1.000  H
  H248     1.0000 0.57811  0.78160  0.66040  Biso   1.000  H
  C188     1.0000 0.57890  0.69759  0.80367  Biso   1.000  C
  H249     1.0000 0.66551  0.70910  0.79848  Biso   1.000  H
  H250     1.0000 0.64017  0.67841  0.74428  Biso   1.000  H
  C189     1.0000 0.57890  0.80237  0.69629  Biso   1.000  C
  H251     1.0000 0.66551  0.79090  0.70148  Biso   1.000  H
  H252     1.0000 0.64017  0.82159  0.75567  Biso   1.000  H
  N25      1.0000 0.48404  0.71091  0.79923  Biso   1.000  N
  H253     1.0000 0.52768  0.69348  0.72921  Biso   1.000  H
  N26      1.0000 0.48404  0.78905  0.70077  Biso   1.000  N
  H254     1.0000 0.52768  0.80647  0.77079  Biso   1.000  H
  H255     1.0000 0.57400  0.65709  0.81150  Biso   1.000  H
  H256     1.0000 0.57400  0.84287  0.68850  Biso   1.000  H
  C190     1.0000 0.44991  0.67271  0.78683  Biso   1.000  C
  C191     1.0000 0.44991  0.82725  0.71317  Biso   1.000  C
  C192     1.0000 0.40045  0.65981  0.82092  Biso   1.000  C
  H257     1.0000 0.45640  0.65127  0.75400  Biso   1.000  H
  H258     1.0000 0.45640  0.84869  0.74600  Biso   1.000  H
  C193     1.0000 0.40045  0.84015  0.67904  Biso   1.000  C
  C194     1.0000 0.36753  0.61370  0.80765  Biso   1.000  C
  C195     1.0000 0.38630  0.69235  0.86753  Biso   1.000  C
  C196     1.0000 0.38630  0.80765  0.63242  Biso   1.000  C
  C197     1.0000 0.36753  0.88626  0.69235  Biso   1.000  C
  C198     1.0000 0.32096  0.59951  0.84015  Biso   1.000  C
  H259     1.0000 0.37687  0.59151  0.77599  Biso   1.000  H
  C199     1.0000 0.34015  0.67904  0.90045  Biso   1.000  C
  H260     1.0000 0.40849  0.72397  0.87687  Biso   1.000  H
  C200     1.0000 0.34015  0.82092  0.59951  Biso   1.000  C
  H261     1.0000 0.40849  0.77599  0.62308  Biso   1.000  H
  C201     1.0000 0.32096  0.90045  0.65981  Biso   1.000  C
  H262     1.0000 0.37687  0.90849  0.72397  Biso   1.000  H
  C202     1.0000 0.28683  0.55009  0.82725  Biso   1.000  C
  C203     1.0000 0.30765  0.63242  0.88626  Biso   1.000  C
  C204     1.0000 0.32725  0.71317  0.94991  Biso   1.000  C
  C205     1.0000 0.32725  0.78683  0.55009  Biso   1.000  C
  C206     1.0000 0.30765  0.86753  0.61370  Biso   1.000  C
  C207     1.0000 0.28683  0.94991  0.67271  Biso   1.000  C
  N27      1.0000 0.29923  0.51596  0.78905  Biso   1.000  N
  H263     1.0000 0.25400  0.54360  0.84869  Biso   1.000  H
  H264     1.0000 0.27599  0.62308  0.90849  Biso   1.000  H
  N28      1.0000 0.28905  0.70077  0.98404  Biso   1.000  N
  H265     1.0000 0.34869  0.74600  0.95640  Biso   1.000  H
  N29      1.0000 0.28905  0.79923  0.51596  Biso   1.000  N
  H266     1.0000 0.34869  0.75400  0.54360  Biso   1.000  H
  H267     1.0000 0.27599  0.87687  0.59151  Biso   1.000  H
  N30      1.0000 0.29923  0.98404  0.71091  Biso   1.000  N
  H268     1.0000 0.25400  0.95640  0.65127  Biso   1.000  H
  C208     1.0000 0.26124  0.46943  0.77971  Biso   1.000  C
  C209     1.0000 0.27971  0.73876  0.03057  Biso   1.000  C
  C210     1.0000 0.27971  0.76124  0.46943  Biso   1.000  C
  C211     1.0000 0.26124  0.03057  0.72029  Biso   1.000  C
  C212     1.0000 0.23876  0.46943  0.72029  Biso   1.000  C
  C213     1.0000 0.28771  0.41126  0.78474  Biso   1.000  C
  C214     1.0000 0.30371  0.42110  0.80237  Biso   1.000  C
  H269     1.0000 0.22921  0.47228  0.80647  Biso   1.000  H
  C215     1.0000 0.22029  0.76124  0.03057  Biso   1.000  C
  H270     1.0000 0.30647  0.77079  0.02768  Biso   1.000  H
  C216     1.0000 0.28474  0.71229  0.08874  Biso   1.000  C
  C217     1.0000 0.30241  0.69629  0.07890  Biso   1.000  C
  C218     1.0000 0.22029  0.73876  0.46943  Biso   1.000  C
  H271     1.0000 0.30647  0.72921  0.47228  Biso   1.000  H
  C219     1.0000 0.28474  0.78767  0.41126  Biso   1.000  C
  C220     1.0000 0.30241  0.80367  0.42110  Biso   1.000  C
  C221     1.0000 0.23876  0.03057  0.77971  Biso   1.000  C
  H272     1.0000 0.22921  0.02768  0.69348  Biso   1.000  H
  C222     1.0000 0.28771  0.08874  0.71522  Biso   1.000  C
  C223     1.0000 0.30371  0.07890  0.69759  Biso   1.000  C
  C224     1.0000 0.21229  0.41126  0.71522  Biso   1.000  C
  C225     1.0000 0.19629  0.42110  0.69759  Biso   1.000  C
  N31      1.0000 0.20077  0.51596  0.71091  Biso   1.000  N
  H273     1.0000 0.27079  0.47228  0.69348  Biso   1.000  H
  C226     1.0000 0.24998  0.36967  0.74998  Biso   1.000  C
  C227     1.0000 0.27201  0.36640  0.79148  Biso   1.000  C
  H274     1.0000 0.28918  0.39949  0.82448  Biso   1.000  H
  H275     1.0000 0.32628  0.41168  0.76970  Biso   1.000  H
  H276     1.0000 0.33960  0.42189  0.78160  Biso   1.000  H
  H277     1.0000 0.31150  0.42600  0.84287  Biso   1.000  H
  N32      1.0000 0.21095  0.79923  0.98404  Biso   1.000  N
  H278     1.0000 0.19348  0.72921  0.02768  Biso   1.000  H
  C228     1.0000 0.21522  0.78767  0.08874  Biso   1.000  C
  C229     1.0000 0.19759  0.80367  0.07890  Biso   1.000  C
  H279     1.0000 0.32448  0.71078  0.10047  Biso   1.000  H
  H280     1.0000 0.26970  0.67367  0.08828  Biso   1.000  H
  C230     1.0000 0.24998  0.74998  0.13033  Biso   1.000  C
  H281     1.0000 0.28160  0.66040  0.07811  Biso   1.000  H
  C231     1.0000 0.29148  0.72799  0.13360  Biso   1.000  C
  H282     1.0000 0.34291  0.68850  0.07400  Biso   1.000  H
  N33      1.0000 0.21095  0.70077  0.51596  Biso   1.000  N
  H283     1.0000 0.19348  0.77079  0.47228  Biso   1.000  H
  C232     1.0000 0.21522  0.71229  0.41126  Biso   1.000  C
  C233     1.0000 0.19759  0.69629  0.42110  Biso   1.000  C
  C234     1.0000 0.24998  0.74998  0.36967  Biso   1.000  C
  H284     1.0000 0.32448  0.78918  0.39949  Biso   1.000  H
  H285     1.0000 0.26970  0.82628  0.41168  Biso   1.000  H
  H286     1.0000 0.28160  0.83960  0.42189  Biso   1.000  H
  C235     1.0000 0.29148  0.77201  0.36640  Biso   1.000  C
  H287     1.0000 0.34291  0.81150  0.42600  Biso   1.000  H
  N34      1.0000 0.20077  0.98404  0.78905  Biso   1.000  N
  H288     1.0000 0.27079  0.02768  0.80647  Biso   1.000  H
  C236     1.0000 0.21229  0.08874  0.78474  Biso   1.000  C
  C237     1.0000 0.19629  0.07890  0.80237  Biso   1.000  C
  C238     1.0000 0.24998  0.13033  0.74998  Biso   1.000  C
  H289     1.0000 0.28918  0.10047  0.67548  Biso   1.000  H
  H290     1.0000 0.32628  0.08828  0.73030  Biso   1.000  H
  H291     1.0000 0.33960  0.07811  0.71840  Biso   1.000  H
  C239     1.0000 0.27201  0.13360  0.70848  Biso   1.000  C
  H292     1.0000 0.31150  0.07400  0.65709  Biso   1.000  H
  C240     1.0000 0.22799  0.36640  0.70848  Biso   1.000  C
  H293     1.0000 0.21078  0.39949  0.67548  Biso   1.000  H
  H294     1.0000 0.17372  0.41168  0.73030  Biso   1.000  H
  H295     1.0000 0.16040  0.42189  0.71840  Biso   1.000  H
  H296     1.0000 0.18850  0.42600  0.65709  Biso   1.000  H
  C241     1.0000 0.21317  0.55009  0.67271  Biso   1.000  C
  H297     1.0000 0.27289  0.34567  0.72510  Biso   1.000  H
  H298     1.0000 0.22711  0.34567  0.77490  Biso   1.000  H
  H299     1.0000 0.29848  0.33449  0.79090  Biso   1.000  H
  H300     1.0000 0.24428  0.35979  0.82159  Biso   1.000  H
  C242     1.0000 0.17271  0.78683  0.94991  Biso   1.000  C
  H301     1.0000 0.17552  0.78918  0.10047  Biso   1.000  H
  H302     1.0000 0.23030  0.82628  0.08828  Biso   1.000  H
  H303     1.0000 0.21840  0.83960  0.07811  Biso   1.000  H
  C243     1.0000 0.20848  0.77201  0.13360  Biso   1.000  C
  H304     1.0000 0.15709  0.81150  0.07400  Biso   1.000  H
  H305     1.0000 0.27490  0.77289  0.15428  Biso   1.000  H
  H306     1.0000 0.22510  0.72707  0.15428  Biso   1.000  H
  H307     1.0000 0.29090  0.70148  0.16551  Biso   1.000  H
  H308     1.0000 0.32159  0.75567  0.14021  Biso   1.000  H
  C244     1.0000 0.17271  0.71317  0.55009  Biso   1.000  C
  H309     1.0000 0.17552  0.71078  0.39949  Biso   1.000  H
  H310     1.0000 0.23030  0.67367  0.41168  Biso   1.000  H
  H311     1.0000 0.21840  0.66040  0.42189  Biso   1.000  H
  C245     1.0000 0.20848  0.72799  0.36640  Biso   1.000  C
  H312     1.0000 0.15709  0.68850  0.42600  Biso   1.000  H
  H313     1.0000 0.27490  0.72707  0.34567  Biso   1.000  H
  H314     1.0000 0.22510  0.77289  0.34567  Biso   1.000  H
  H315     1.0000 0.29090  0.79848  0.33449  Biso   1.000  H
  H316     1.0000 0.32159  0.74428  0.35979  Biso   1.000  H
  C246     1.0000 0.21317  0.94991  0.82725  Biso   1.000  C
  H317     1.0000 0.21078  0.10047  0.82448  Biso   1.000  H
  H318     1.0000 0.17372  0.08828  0.76970  Biso   1.000  H
  H319     1.0000 0.16040  0.07811  0.78160  Biso   1.000  H
  C247     1.0000 0.22799  0.13360  0.79148  Biso   1.000  C
  H320     1.0000 0.18850  0.07400  0.84287  Biso   1.000  H
  H321     1.0000 0.22711  0.15428  0.72510  Biso   1.000  H
  H322     1.0000 0.27289  0.15428  0.77490  Biso   1.000  H
  H323     1.0000 0.29848  0.16551  0.70910  Biso   1.000  H
  H324     1.0000 0.24428  0.14021  0.67841  Biso   1.000  H
  H325     1.0000 0.20148  0.33449  0.70910  Biso   1.000  H
  H326     1.0000 0.25572  0.35979  0.67841  Biso   1.000  H
  H327     1.0000 0.24600  0.54360  0.65127  Biso   1.000  H
  C248     1.0000 0.17904  0.59951  0.65981  Biso   1.000  C
  H328     1.0000 0.15131  0.75400  0.95640  Biso   1.000  H
  C249     1.0000 0.15985  0.82092  0.90045  Biso   1.000  C
  H329     1.0000 0.20910  0.79848  0.16551  Biso   1.000  H
  H330     1.0000 0.17841  0.74428  0.14021  Biso   1.000  H
  C250     1.0000 0.15985  0.67904  0.59951  Biso   1.000  C
  H331     1.0000 0.15131  0.74600  0.54360  Biso   1.000  H
  H332     1.0000 0.20910  0.70148  0.33449  Biso   1.000  H
  H333     1.0000 0.17841  0.75567  0.35979  Biso   1.000  H
  C251     1.0000 0.17904  0.90045  0.84015  Biso   1.000  C
  H334     1.0000 0.24600  0.95640  0.84869  Biso   1.000  H
  H335     1.0000 0.20148  0.16551  0.79090  Biso   1.000  H
  H336     1.0000 0.25572  0.14021  0.82159  Biso   1.000  H
  C252     1.0000 0.13242  0.61370  0.69235  Biso   1.000  C
  C253     1.0000 0.19235  0.63242  0.61370  Biso   1.000  C
  C254     1.0000 0.11370  0.80765  0.86753  Biso   1.000  C
  C255     1.0000 0.19235  0.86753  0.88626  Biso   1.000  C
  C256     1.0000 0.11370  0.69235  0.63242  Biso   1.000  C
  C257     1.0000 0.13242  0.88626  0.80765  Biso   1.000  C
  C258     1.0000 0.09955  0.65981  0.67904  Biso   1.000  C
  H337     1.0000 0.12308  0.59151  0.72397  Biso   1.000  H
  H338     1.0000 0.22401  0.62308  0.59151  Biso   1.000  H
  C259     1.0000 0.09955  0.84015  0.82092  Biso   1.000  C
  H339     1.0000 0.09151  0.77599  0.87687  Biso   1.000  H
  H340     1.0000 0.22401  0.87687  0.90849  Biso   1.000  H
  H341     1.0000 0.09151  0.72397  0.62308  Biso   1.000  H
  H342     1.0000 0.12308  0.90849  0.77599  Biso   1.000  H
  C260     1.0000 0.05009  0.67271  0.71317  Biso   1.000  C
  C261     1.0000 0.05009  0.82725  0.78683  Biso   1.000  C
  N35      1.0000 0.01596  0.71091  0.70077  Biso   1.000  N
  H343     1.0000 0.04360  0.65127  0.74600  Biso   1.000  H
  N36      1.0000 0.01596  0.78905  0.79923  Biso   1.000  N
  H344     1.0000 0.04360  0.84869  0.75400  Biso   1.000  H
  C262     1.0000 0.96943  0.72029  0.73876  Biso   1.000  C
  C263     1.0000 0.96943  0.77971  0.76124  Biso   1.000  C
  H345     1.0000 0.97232  0.69348  0.77079  Biso   1.000  H
  C264     1.0000 0.91126  0.71522  0.71229  Biso   1.000  C
  C265     1.0000 0.92110  0.69759  0.69629  Biso   1.000  C
  H346     1.0000 0.97232  0.80647  0.72921  Biso   1.000  H
  C266     1.0000 0.91126  0.78474  0.78767  Biso   1.000  C
  C267     1.0000 0.92110  0.80237  0.80367  Biso   1.000  C
  C268     1.0000 0.86967  0.74998  0.74998  Biso   1.000  C
  H347     1.0000 0.89949  0.67548  0.71078  Biso   1.000  H
  H348     1.0000 0.91172  0.73030  0.67367  Biso   1.000  H
  H349     1.0000 0.92189  0.71840  0.66040  Biso   1.000  H
  C269     1.0000 0.86640  0.70848  0.72799  Biso   1.000  C
  H350     1.0000 0.92600  0.65709  0.68850  Biso   1.000  H
  H351     1.0000 0.89949  0.82448  0.78918  Biso   1.000  H
  H352     1.0000 0.91172  0.76970  0.82628  Biso   1.000  H
  H353     1.0000 0.92189  0.78160  0.83960  Biso   1.000  H
  C270     1.0000 0.86640  0.79148  0.77201  Biso   1.000  C
  H354     1.0000 0.92600  0.84287  0.81150  Biso   1.000  H
  H355     1.0000 0.84572  0.72510  0.77289  Biso   1.000  H
  H356     1.0000 0.84572  0.77490  0.72707  Biso   1.000  H
  H357     1.0000 0.83449  0.70910  0.70148  Biso   1.000  H
  H358     1.0000 0.85979  0.67841  0.75567  Biso   1.000  H
  H359     1.0000 0.83449  0.79090  0.79848  Biso   1.000  H
  H360     1.0000 0.85979  0.82159  0.74428  Biso   1.000  H
  C271     1.0000 0.64938  0.58820  0.57053  Biso   1.000  C
  C272     1.0000 0.69972  0.57505  0.53744  Biso   1.000  C
  C273     1.0000 0.61722  0.63414  0.55608  Biso   1.000  C
  C274     1.0000 0.63414  0.55608  0.61722  Biso   1.000  C
  N37      1.0000 0.73314  0.53547  0.55000  Biso   1.000  N
  H361     1.0000 0.70760  0.59708  0.50528  Biso   1.000  H
  C275     1.0000 0.57053  0.64938  0.58820  Biso   1.000  C
  H362     1.0000 0.62690  0.65558  0.52400  Biso   1.000  H
  C276     1.0000 0.58820  0.57053  0.64938  Biso   1.000  C
  H363     1.0000 0.65558  0.52400  0.62690  Biso   1.000  H
  C277     1.0000 0.78202  0.52902  0.51361  Biso   1.000  C
  C278     1.0000 0.53744  0.69972  0.57505  Biso   1.000  C
  C279     1.0000 0.55608  0.61722  0.63414  Biso   1.000  C
  C280     1.0000 0.57505  0.53744  0.69972  Biso   1.000  C
  C281     1.0000 0.78202  0.47094  0.48639  Biso   1.000  C
  H364     1.0000 0.81669  0.53401  0.53589  Biso   1.000  H
  H365     1.0000 0.78139  0.55817  0.48409  Biso   1.000  H
  N38      1.0000 0.55000  0.73314  0.53547  Biso   1.000  N
  H366     1.0000 0.50528  0.70760  0.59708  Biso   1.000  H
  H367     1.0000 0.52400  0.62690  0.65558  Biso   1.000  H
  N39      1.0000 0.53547  0.55000  0.73314  Biso   1.000  N
  H368     1.0000 0.59708  0.50528  0.70760  Biso   1.000  H
  N40      1.0000 0.73314  0.46453  0.45000  Biso   1.000  N
  H369     1.0000 0.81669  0.46599  0.46411  Biso   1.000  H
  H370     1.0000 0.78139  0.44179  0.51587  Biso   1.000  H
  C282     1.0000 0.51361  0.78202  0.52902  Biso   1.000  C
  C283     1.0000 0.52902  0.51361  0.78202  Biso   1.000  C
  C284     1.0000 0.69972  0.42495  0.46252  Biso   1.000  C
  C285     1.0000 0.48639  0.78202  0.47094  Biso   1.000  C
  H371     1.0000 0.53589  0.81669  0.53401  Biso   1.000  H
  H372     1.0000 0.48409  0.78139  0.55817  Biso   1.000  H
  C286     1.0000 0.47094  0.48639  0.78202  Biso   1.000  C
  H373     1.0000 0.53401  0.53589  0.81669  Biso   1.000  H
  H374     1.0000 0.55817  0.48409  0.78139  Biso   1.000  H
  C287     1.0000 0.64938  0.41176  0.42947  Biso   1.000  C
  H375     1.0000 0.70760  0.40288  0.49468  Biso   1.000  H
  N41      1.0000 0.45000  0.73314  0.46453  Biso   1.000  N
  H376     1.0000 0.46411  0.81669  0.46599  Biso   1.000  H
  H377     1.0000 0.51587  0.78139  0.44179  Biso   1.000  H
  N42      1.0000 0.46453  0.45000  0.73314  Biso   1.000  N
  H378     1.0000 0.46599  0.46411  0.81669  Biso   1.000  H
  H379     1.0000 0.44179  0.51587  0.78139  Biso   1.000  H
  C288     1.0000 0.61722  0.36586  0.44388  Biso   1.000  C
  C289     1.0000 0.63414  0.44388  0.38274  Biso   1.000  C
  C290     1.0000 0.46252  0.69972  0.42495  Biso   1.000  C
  C291     1.0000 0.42495  0.46252  0.69972  Biso   1.000  C
  C292     1.0000 0.57053  0.35057  0.41176  Biso   1.000  C
  H380     1.0000 0.62690  0.34438  0.47600  Biso   1.000  H
  C293     1.0000 0.58820  0.42947  0.35057  Biso   1.000  C
  H381     1.0000 0.65558  0.47600  0.37310  Biso   1.000  H
  C294     1.0000 0.42947  0.64938  0.41176  Biso   1.000  C
  H382     1.0000 0.49468  0.70760  0.40288  Biso   1.000  H
  C295     1.0000 0.41176  0.42947  0.64938  Biso   1.000  C
  H383     1.0000 0.40288  0.49468  0.70760  Biso   1.000  H
  C296     1.0000 0.53744  0.30023  0.42495  Biso   1.000  C
  C297     1.0000 0.55608  0.38274  0.36586  Biso   1.000  C
  C298     1.0000 0.57505  0.46252  0.30023  Biso   1.000  C
  C299     1.0000 0.44388  0.61722  0.36586  Biso   1.000  C
  C300     1.0000 0.38274  0.63414  0.44388  Biso   1.000  C
  C301     1.0000 0.44388  0.38274  0.63414  Biso   1.000  C
  C302     1.0000 0.36586  0.44388  0.61722  Biso   1.000  C
  N43      1.0000 0.55000  0.26686  0.46453  Biso   1.000  N
  H384     1.0000 0.50528  0.29240  0.40288  Biso   1.000  H
  H385     1.0000 0.52400  0.37310  0.34438  Biso   1.000  H
  N44      1.0000 0.53547  0.45000  0.26686  Biso   1.000  N
  H386     1.0000 0.59708  0.49468  0.29240  Biso   1.000  H
  C303     1.0000 0.41176  0.57053  0.35057  Biso   1.000  C
  H387     1.0000 0.47600  0.62690  0.34438  Biso   1.000  H
  C304     1.0000 0.35057  0.58820  0.42947  Biso   1.000  C
  H388     1.0000 0.37310  0.65558  0.47600  Biso   1.000  H
  C305     1.0000 0.42947  0.35057  0.58820  Biso   1.000  C
  H389     1.0000 0.47600  0.37310  0.65558  Biso   1.000  H
  C306     1.0000 0.35057  0.41176  0.57053  Biso   1.000  C
  H390     1.0000 0.34438  0.47600  0.62690  Biso   1.000  H
  C307     1.0000 0.51361  0.21798  0.47094  Biso   1.000  C
  C308     1.0000 0.52902  0.48639  0.21798  Biso   1.000  C
  C309     1.0000 0.42495  0.53744  0.30023  Biso   1.000  C
  C310     1.0000 0.36586  0.55608  0.38274  Biso   1.000  C
  C311     1.0000 0.30023  0.57505  0.46252  Biso   1.000  C
  C312     1.0000 0.46252  0.30023  0.57505  Biso   1.000  C
  C313     1.0000 0.38274  0.36586  0.55608  Biso   1.000  C
  C314     1.0000 0.30023  0.42495  0.53744  Biso   1.000  C
  C315     1.0000 0.48639  0.21798  0.52902  Biso   1.000  C
  H391     1.0000 0.53589  0.18331  0.46599  Biso   1.000  H
  H392     1.0000 0.48409  0.21861  0.44179  Biso   1.000  H
  C316     1.0000 0.47094  0.51361  0.21798  Biso   1.000  C
  H393     1.0000 0.53401  0.46411  0.18331  Biso   1.000  H
  H394     1.0000 0.55817  0.51587  0.21861  Biso   1.000  H
  N45      1.0000 0.46453  0.55000  0.26686  Biso   1.000  N
  H395     1.0000 0.40288  0.50528  0.29240  Biso   1.000  H
  H396     1.0000 0.34438  0.52400  0.37310  Biso   1.000  H
  N46      1.0000 0.26686  0.53547  0.45000  Biso   1.000  N
  H397     1.0000 0.29240  0.59708  0.49468  Biso   1.000  H
  N47      1.0000 0.45000  0.26686  0.53547  Biso   1.000  N
  H398     1.0000 0.49468  0.29240  0.59708  Biso   1.000  H
  H399     1.0000 0.37310  0.34438  0.52400  Biso   1.000  H
  N48      1.0000 0.26686  0.46453  0.55000  Biso   1.000  N
  H400     1.0000 0.29240  0.40288  0.50528  Biso   1.000  H
  H401     1.0000 0.46411  0.18331  0.53401  Biso   1.000  H
  H402     1.0000 0.51587  0.21861  0.55817  Biso   1.000  H
  H403     1.0000 0.46599  0.53589  0.18331  Biso   1.000  H
  H404     1.0000 0.44179  0.48409  0.21861  Biso   1.000  H
  C317     1.0000 0.21798  0.52902  0.48639  Biso   1.000  C
  C318     1.0000 0.21798  0.47094  0.51361  Biso   1.000  C
  H405     1.0000 0.18331  0.53401  0.46411  Biso   1.000  H
  H406     1.0000 0.21861  0.55817  0.51587  Biso   1.000  H
  H407     1.0000 0.18331  0.46599  0.53589  Biso   1.000  H
  H408     1.0000 0.21861  0.44179  0.48409  Biso   1.000  H
  C319     1.0000 0.88274  0.86586  0.55608  Biso   1.000  C
  C320     1.0000 0.85057  0.91180  0.57053  Biso   1.000  C
  C321     1.0000 0.85057  0.91176  0.57053  Biso   1.000  C
  C322     1.0000 0.92947  0.85057  0.58820  Biso   1.000  C
  H409     1.0000 0.87310  0.84442  0.52400  Biso   1.000  H
  H410     1.0000 0.87310  0.84438  0.52400  Biso   1.000  H
  C323     1.0000 0.80028  0.92495  0.53744  Biso   1.000  C
  C324     1.0000 0.80028  0.92491  0.53744  Biso   1.000  C
  C325     1.0000 0.80023  0.92495  0.53744  Biso   1.000  C
  C326     1.0000 0.80023  0.92491  0.53744  Biso   1.000  C
  C327     1.0000 0.88278  0.86586  0.55608  Biso   1.000  C
  C328     1.0000 0.86586  0.94388  0.61722  Biso   1.000  C
  C329     1.0000 0.96252  0.80028  0.57505  Biso   1.000  C
  C330     1.0000 0.94388  0.88278  0.63414  Biso   1.000  C
  C331     1.0000 0.96252  0.80023  0.57505  Biso   1.000  C
  C332     1.0000 0.94388  0.88274  0.63414  Biso   1.000  C
  N49      1.0000 0.76686  0.96453  0.55000  Biso   1.000  N
  H411     1.0000 0.79240  0.90288  0.50528  Biso   1.000  H
  C333     1.0000 0.91180  0.92947  0.64938  Biso   1.000  C
  H412     1.0000 0.84442  0.97600  0.62690  Biso   1.000  H
  C334     1.0000 0.91176  0.92947  0.64938  Biso   1.000  C
  H413     1.0000 0.84438  0.97600  0.62690  Biso   1.000  H
  N50      1.0000 0.95000  0.76686  0.53547  Biso   1.000  N
  H414     1.0000 0.99468  0.79240  0.59708  Biso   1.000  H
  H415     1.0000 0.97600  0.87310  0.65558  Biso   1.000  H
  C335     1.0000 0.71794  0.97094  0.51361  Biso   1.000  C
  C336     1.0000 0.71798  0.97094  0.51361  Biso   1.000  C
  C337     1.0000 0.92495  0.96252  0.69972  Biso   1.000  C
  C338     1.0000 0.92491  0.96252  0.69972  Biso   1.000  C
  C339     1.0000 0.98639  0.71798  0.52902  Biso   1.000  C
  C340     1.0000 0.98639  0.71794  0.52902  Biso   1.000  C
  H416     1.0000 0.68331  0.96599  0.53589  Biso   1.000  H
  H417     1.0000 0.71861  0.94179  0.48409  Biso   1.000  H
  H418     1.0000 0.71857  0.94179  0.48409  Biso   1.000  H
  C341     1.0000 0.71798  0.02906  0.48639  Biso   1.000  C
  C342     1.0000 0.71798  0.02902  0.48639  Biso   1.000  C
  C343     1.0000 0.71794  0.02906  0.48639  Biso   1.000  C
  C344     1.0000 0.71794  0.02902  0.48639  Biso   1.000  C
  N51      1.0000 0.96453  0.95000  0.73314  Biso   1.000  N
  H419     1.0000 0.90288  0.99468  0.70760  Biso   1.000  H
  H420     1.0000 0.96411  0.68331  0.53401  Biso   1.000  H
  H421     1.0000 0.96407  0.68331  0.53401  Biso   1.000  H
  C345     1.0000 0.01361  0.71798  0.47094  Biso   1.000  C
  H422     1.0000 0.01591  0.71861  0.55817  Biso   1.000  H
  C346     1.0000 0.01361  0.71794  0.47094  Biso   1.000  C
  H423     1.0000 0.01591  0.71857  0.55817  Biso   1.000  H
  H424     1.0000 0.01587  0.71861  0.55817  Biso   1.000  H
  H425     1.0000 0.01587  0.71857  0.55817  Biso   1.000  H
  N52      1.0000 0.76686  0.03547  0.45000  Biso   1.000  N
  H426     1.0000 0.68331  0.03401  0.46411  Biso   1.000  H
  H427     1.0000 0.71861  0.05821  0.51587  Biso   1.000  H
  H428     1.0000 0.68331  0.03396  0.46411  Biso   1.000  H
  H429     1.0000 0.71861  0.05817  0.51587  Biso   1.000  H
  H430     1.0000 0.71857  0.05821  0.51587  Biso   1.000  H
  H431     1.0000 0.71857  0.05817  0.51587  Biso   1.000  H
  C347     1.0000 0.97094  0.98639  0.78202  Biso   1.000  C
  H432     1.0000 0.98409  0.71861  0.44179  Biso   1.000  H
  H433     1.0000 0.98409  0.71857  0.44179  Biso   1.000  H
  N53      1.0000 0.05000  0.76686  0.46453  Biso   1.000  N
  H434     1.0000 0.03589  0.68331  0.46599  Biso   1.000  H
  N54      1.0000 0.04996  0.76686  0.46453  Biso   1.000  N
  C348     1.0000 0.80028  0.07505  0.46252  Biso   1.000  C
  C349     1.0000 0.80023  0.07505  0.46252  Biso   1.000  C
  H435     1.0000 0.96599  0.96411  0.81669  Biso   1.000  H
  H436     1.0000 0.96599  0.96407  0.81669  Biso   1.000  H
  H437     1.0000 0.94179  0.01591  0.78139  Biso   1.000  H
  H438     1.0000 0.94179  0.01587  0.78139  Biso   1.000  H
  C350     1.0000 0.02906  0.01361  0.78202  Biso   1.000  C
  C351     1.0000 0.02902  0.01361  0.78202  Biso   1.000  C
  C352     1.0000 0.03748  0.80028  0.42495  Biso   1.000  C
  C353     1.0000 0.03748  0.80023  0.42495  Biso   1.000  C
  C354     1.0000 0.03744  0.80028  0.42495  Biso   1.000  C
  C355     1.0000 0.03744  0.80023  0.42495  Biso   1.000  C
  H439     1.0000 0.79240  0.09712  0.49468  Biso   1.000  H
  C356     1.0000 0.85057  0.08820  0.42947  Biso   1.000  C
  H440     1.0000 0.79240  0.09708  0.49468  Biso   1.000  H
  H441     1.0000 0.05821  0.98409  0.78139  Biso   1.000  H
  H442     1.0000 0.05817  0.98409  0.78139  Biso   1.000  H
  N55      1.0000 0.03547  0.05000  0.73314  Biso   1.000  N
  H443     1.0000 0.03401  0.03589  0.81669  Biso   1.000  H
  N56      1.0000 0.03547  0.04996  0.73314  Biso   1.000  N
  H444     1.0000 0.03396  0.03589  0.81669  Biso   1.000  H
  H445     1.0000 0.00532  0.79240  0.40288  Biso   1.000  H
  C357     1.0000 0.07053  0.85057  0.41176  Biso   1.000  C
  H446     1.0000 0.00528  0.79240  0.40288  Biso   1.000  H
  C358     1.0000 0.07048  0.85057  0.41176  Biso   1.000  C
  C359     1.0000 0.88278  0.13414  0.44388  Biso   1.000  C
  C360     1.0000 0.86586  0.05612  0.38274  Biso   1.000  C
  C361     1.0000 0.86586  0.05608  0.38274  Biso   1.000  C
  C362     1.0000 0.88274  0.13414  0.44388  Biso   1.000  C
  C363     1.0000 0.07505  0.03748  0.69972  Biso   1.000  C
  C364     1.0000 0.07505  0.03744  0.69972  Biso   1.000  C
  C365     1.0000 0.05612  0.88278  0.36586  Biso   1.000  C
  C366     1.0000 0.11722  0.86586  0.44388  Biso   1.000  C
  C367     1.0000 0.05612  0.88274  0.36586  Biso   1.000  C
  C368     1.0000 0.05608  0.88278  0.36586  Biso   1.000  C
  C369     1.0000 0.05608  0.88274  0.36586  Biso   1.000  C
  C370     1.0000 0.92947  0.14943  0.41176  Biso   1.000  C
  H447     1.0000 0.87310  0.15558  0.47600  Biso   1.000  H
  C371     1.0000 0.92947  0.14938  0.41176  Biso   1.000  C
  C372     1.0000 0.91180  0.07053  0.35057  Biso   1.000  C
  H448     1.0000 0.84442  0.02400  0.37310  Biso   1.000  H
  C373     1.0000 0.91180  0.07048  0.35057  Biso   1.000  C
  C374     1.0000 0.91176  0.07053  0.35057  Biso   1.000  C
  H449     1.0000 0.84438  0.02400  0.37310  Biso   1.000  H
  C375     1.0000 0.91176  0.07048  0.35057  Biso   1.000  C
  H450     1.0000 0.09712  0.00532  0.70760  Biso   1.000  H
  C376     1.0000 0.08820  0.07053  0.64938  Biso   1.000  C
  H451     1.0000 0.09712  0.00528  0.70760  Biso   1.000  H
  C377     1.0000 0.08820  0.07048  0.64938  Biso   1.000  C
  H452     1.0000 0.09708  0.00532  0.70760  Biso   1.000  H
  H453     1.0000 0.09708  0.00528  0.70760  Biso   1.000  H
  C378     1.0000 0.08820  0.92947  0.35057  Biso   1.000  C
  H454     1.0000 0.02400  0.87310  0.34438  Biso   1.000  H
  C379     1.0000 0.14943  0.91180  0.42947  Biso   1.000  C
  H455     1.0000 0.12690  0.84442  0.47600  Biso   1.000  H
  C380     1.0000 0.14943  0.91176  0.42947  Biso   1.000  C
  H456     1.0000 0.12690  0.84438  0.47600  Biso   1.000  H
  C381     1.0000 0.14938  0.91180  0.42947  Biso   1.000  C
  C382     1.0000 0.14938  0.91176  0.42947  Biso   1.000  C
  C383     1.0000 0.96252  0.19972  0.42495  Biso   1.000  C
  C384     1.0000 0.94388  0.11722  0.36586  Biso   1.000  C
  C385     1.0000 0.92495  0.03748  0.30023  Biso   1.000  C
  C386     1.0000 0.92495  0.03744  0.30023  Biso   1.000  C
  C387     1.0000 0.92491  0.03748  0.30023  Biso   1.000  C
  C388     1.0000 0.92491  0.03744  0.30023  Biso   1.000  C
  C389     1.0000 0.13414  0.05612  0.61722  Biso   1.000  C
  C390     1.0000 0.05612  0.11722  0.63414  Biso   1.000  C
  C391     1.0000 0.13414  0.05608  0.61722  Biso   1.000  C
  C392     1.0000 0.05608  0.11722  0.63414  Biso   1.000  C
  C393     1.0000 0.07505  0.96252  0.30023  Biso   1.000  C
  C394     1.0000 0.13414  0.94388  0.38274  Biso   1.000  C
  C395     1.0000 0.19972  0.92495  0.46252  Biso   1.000  C
  C396     1.0000 0.19972  0.92491  0.46252  Biso   1.000  C
  N57      1.0000 0.95000  0.23314  0.46453  Biso   1.000  N
  H457     1.0000 0.99468  0.20760  0.40288  Biso   1.000  H
  N58      1.0000 0.95000  0.23310  0.46453  Biso   1.000  N
  H458     1.0000 0.97600  0.12690  0.34438  Biso   1.000  H
  N59      1.0000 0.96453  0.05000  0.26686  Biso   1.000  N
  H459     1.0000 0.90288  0.00532  0.29240  Biso   1.000  H
  N60      1.0000 0.96453  0.04996  0.26686  Biso   1.000  N
  H460     1.0000 0.90288  0.00528  0.29240  Biso   1.000  H
  C397     1.0000 0.14943  0.08820  0.57053  Biso   1.000  C
  H461     1.0000 0.15558  0.02400  0.62690  Biso   1.000  H
  C398     1.0000 0.14938  0.08820  0.57053  Biso   1.000  C
  C399     1.0000 0.07053  0.14943  0.58820  Biso   1.000  C
  C400     1.0000 0.07053  0.14938  0.58820  Biso   1.000  C
  C401     1.0000 0.07048  0.14943  0.58820  Biso   1.000  C
  C402     1.0000 0.07048  0.14938  0.58820  Biso   1.000  C
  H462     1.0000 0.02400  0.12690  0.65558  Biso   1.000  H
  N61      1.0000 0.03547  0.95000  0.26686  Biso   1.000  N
  H463     1.0000 0.09712  0.99468  0.29240  Biso   1.000  H
  H464     1.0000 0.09708  0.99468  0.29240  Biso   1.000  H
  H465     1.0000 0.15558  0.97600  0.37310  Biso   1.000  H
  N62      1.0000 0.23314  0.96453  0.45000  Biso   1.000  N
  H466     1.0000 0.20760  0.90288  0.49468  Biso   1.000  H
  N63      1.0000 0.23310  0.96453  0.45000  Biso   1.000  N
  C403     1.0000 0.98639  0.28202  0.47094  Biso   1.000  C
  C404     1.0000 0.97094  0.01361  0.21798  Biso   1.000  C
  C405     1.0000 0.11722  0.13414  0.55608  Biso   1.000  C
  C406     1.0000 0.19972  0.07505  0.53744  Biso   1.000  C
  C407     1.0000 0.03748  0.19972  0.57505  Biso   1.000  C
  C408     1.0000 0.03744  0.19972  0.57505  Biso   1.000  C
  C409     1.0000 0.02906  0.98639  0.21798  Biso   1.000  C
  C410     1.0000 0.02902  0.98639  0.21798  Biso   1.000  C
  C411     1.0000 0.28202  0.97094  0.48639  Biso   1.000  C
  H467     1.0000 0.96411  0.31669  0.46599  Biso   1.000  H
  H468     1.0000 0.96407  0.31669  0.46599  Biso   1.000  H
  C412     1.0000 0.01361  0.28202  0.52902  Biso   1.000  C
  H469     1.0000 0.01591  0.28139  0.44179  Biso   1.000  H
  H470     1.0000 0.01587  0.28139  0.44179  Biso   1.000  H
  H471     1.0000 0.94179  0.98409  0.21861  Biso   1.000  H
  H472     1.0000 0.96599  0.03589  0.18331  Biso   1.000  H
  H473     1.0000 0.12690  0.15558  0.52400  Biso   1.000  H
  N64      1.0000 0.23314  0.03547  0.55000  Biso   1.000  N
  H474     1.0000 0.20760  0.09712  0.50528  Biso   1.000  H
  H475     1.0000 0.20760  0.09708  0.50528  Biso   1.000  H
  N65      1.0000 0.23310  0.03547  0.55000  Biso   1.000  N
  N66      1.0000 0.05000  0.23314  0.53547  Biso   1.000  N
  N67      1.0000 0.05000  0.23310  0.53547  Biso   1.000  N
  N68      1.0000 0.04996  0.23314  0.53547  Biso   1.000  N
  N69      1.0000 0.04996  0.23310  0.53547  Biso   1.000  N
  H476     1.0000 0.00532  0.20760  0.59708  Biso   1.000  H
  H477     1.0000 0.00528  0.20760  0.59708  Biso   1.000  H
  H478     1.0000 0.03401  0.96411  0.18331  Biso   1.000  H
  H479     1.0000 0.03401  0.96407  0.18331  Biso   1.000  H
  H480     1.0000 0.03396  0.96411  0.18331  Biso   1.000  H
  H481     1.0000 0.03396  0.96407  0.18331  Biso   1.000  H
  H482     1.0000 0.05821  0.01591  0.21861  Biso   1.000  H
  H483     1.0000 0.05821  0.01587  0.21861  Biso   1.000  H
  H484     1.0000 0.05817  0.01591  0.21861  Biso   1.000  H
  H485     1.0000 0.05817  0.01587  0.21861  Biso   1.000  H
  C413     1.0000 0.28202  0.02906  0.51361  Biso   1.000  C
  C414     1.0000 0.28202  0.02902  0.51361  Biso   1.000  C
  H486     1.0000 0.31669  0.96599  0.46411  Biso   1.000  H
  H487     1.0000 0.28139  0.94179  0.51587  Biso   1.000  H
  H488     1.0000 0.98409  0.28139  0.55817  Biso   1.000  H
  H489     1.0000 0.03589  0.31669  0.53401  Biso   1.000  H
  H490     1.0000 0.31669  0.03401  0.53589  Biso   1.000  H
  H491     1.0000 0.28139  0.05821  0.48409  Biso   1.000  H
  H492     1.0000 0.31669  0.03396  0.53589  Biso   1.000  H
  H493     1.0000 0.28139  0.05817  0.48409  Biso   1.000  H
  C415     1.0000 0.88274  0.86586  0.55608  Biso   1.000  C
  C416     1.0000 0.85057  0.91180  0.57053  Biso   1.000  C
  C417     1.0000 0.85057  0.91176  0.57053  Biso   1.000  C
  C418     1.0000 0.92947  0.85057  0.58820  Biso   1.000  C
  H494     1.0000 0.87310  0.84442  0.52400  Biso   1.000  H
  H495     1.0000 0.87310  0.84438  0.52400  Biso   1.000  H
  C419     1.0000 0.80028  0.92495  0.53744  Biso   1.000  C
  C420     1.0000 0.80028  0.92491  0.53744  Biso   1.000  C
  C421     1.0000 0.80023  0.92495  0.53744  Biso   1.000  C
  C422     1.0000 0.80023  0.92491  0.53744  Biso   1.000  C
  C423     1.0000 0.88278  0.86586  0.55608  Biso   1.000  C
  C424     1.0000 0.86586  0.94388  0.61722  Biso   1.000  C
  C425     1.0000 0.96252  0.80028  0.57505  Biso   1.000  C
  C426     1.0000 0.94388  0.88278  0.63414  Biso   1.000  C
  C427     1.0000 0.96252  0.80023  0.57505  Biso   1.000  C
  C428     1.0000 0.94388  0.88274  0.63414  Biso   1.000  C
  N70      1.0000 0.76686  0.96453  0.55000  Biso   1.000  N
  H496     1.0000 0.79240  0.90288  0.50528  Biso   1.000  H
  C429     1.0000 0.91180  0.92947  0.64938  Biso   1.000  C
  H497     1.0000 0.84442  0.97600  0.62690  Biso   1.000  H
  C430     1.0000 0.91176  0.92947  0.64938  Biso   1.000  C
  H498     1.0000 0.84438  0.97600  0.62690  Biso   1.000  H
  N71      1.0000 0.95000  0.76686  0.53547  Biso   1.000  N
  H499     1.0000 0.99468  0.79240  0.59708  Biso   1.000  H
  H500     1.0000 0.97600  0.87310  0.65558  Biso   1.000  H
  C431     1.0000 0.71794  0.97094  0.51361  Biso   1.000  C
  C432     1.0000 0.71798  0.97094  0.51361  Biso   1.000  C
  C433     1.0000 0.92495  0.96252  0.69972  Biso   1.000  C
  C434     1.0000 0.92491  0.96252  0.69972  Biso   1.000  C
  C435     1.0000 0.98639  0.71798  0.52902  Biso   1.000  C
  C436     1.0000 0.98639  0.71794  0.52902  Biso   1.000  C
  H501     1.0000 0.68331  0.96599  0.53589  Biso   1.000  H
  H502     1.0000 0.71861  0.94179  0.48409  Biso   1.000  H
  H503     1.0000 0.71857  0.94179  0.48409  Biso   1.000  H
  C437     1.0000 0.71798  0.02906  0.48639  Biso   1.000  C
  C438     1.0000 0.71798  0.02902  0.48639  Biso   1.000  C
  C439     1.0000 0.71794  0.02906  0.48639  Biso   1.000  C
  C440     1.0000 0.71794  0.02902  0.48639  Biso   1.000  C
  N72      1.0000 0.96453  0.95000  0.73314  Biso   1.000  N
  H504     1.0000 0.90288  0.99468  0.70760  Biso   1.000  H
  H505     1.0000 0.96411  0.68331  0.53401  Biso   1.000  H
  H506     1.0000 0.96407  0.68331  0.53401  Biso   1.000  H
  C441     1.0000 0.01361  0.71798  0.47094  Biso   1.000  C
  H507     1.0000 0.01591  0.71861  0.55817  Biso   1.000  H
  C442     1.0000 0.01361  0.71794  0.47094  Biso   1.000  C
  H508     1.0000 0.01591  0.71857  0.55817  Biso   1.000  H
  H509     1.0000 0.01587  0.71861  0.55817  Biso   1.000  H
  H510     1.0000 0.01587  0.71857  0.55817  Biso   1.000  H
  N73      1.0000 0.76686  0.03547  0.45000  Biso   1.000  N
  H511     1.0000 0.68331  0.03401  0.46411  Biso   1.000  H
  H512     1.0000 0.71861  0.05821  0.51587  Biso   1.000  H
  H513     1.0000 0.68331  0.03396  0.46411  Biso   1.000  H
  H514     1.0000 0.71861  0.05817  0.51587  Biso   1.000  H
  H515     1.0000 0.71857  0.05821  0.51587  Biso   1.000  H
  H516     1.0000 0.71857  0.05817  0.51587  Biso   1.000  H
  C443     1.0000 0.97094  0.98639  0.78202  Biso   1.000  C
  H517     1.0000 0.98409  0.71861  0.44179  Biso   1.000  H
  H518     1.0000 0.98409  0.71857  0.44179  Biso   1.000  H
  N74      1.0000 0.05000  0.76686  0.46453  Biso   1.000  N
  H519     1.0000 0.03589  0.68331  0.46599  Biso   1.000  H
  N75      1.0000 0.04996  0.76686  0.46453  Biso   1.000  N
  C444     1.0000 0.80028  0.07505  0.46252  Biso   1.000  C
  C445     1.0000 0.80023  0.07505  0.46252  Biso   1.000  C
  H520     1.0000 0.96599  0.96411  0.81669  Biso   1.000  H
  H521     1.0000 0.96599  0.96407  0.81669  Biso   1.000  H
  H522     1.0000 0.94179  0.01591  0.78139  Biso   1.000  H
  H523     1.0000 0.94179  0.01587  0.78139  Biso   1.000  H
  C446     1.0000 0.02906  0.01361  0.78202  Biso   1.000  C
  C447     1.0000 0.02902  0.01361  0.78202  Biso   1.000  C
  C448     1.0000 0.03748  0.80028  0.42495  Biso   1.000  C
  C449     1.0000 0.03748  0.80023  0.42495  Biso   1.000  C
  C450     1.0000 0.03744  0.80028  0.42495  Biso   1.000  C
  C451     1.0000 0.03744  0.80023  0.42495  Biso   1.000  C
  H524     1.0000 0.79240  0.09712  0.49468  Biso   1.000  H
  C452     1.0000 0.85057  0.08820  0.42947  Biso   1.000  C
  H525     1.0000 0.79240  0.09708  0.49468  Biso   1.000  H
  H526     1.0000 0.05821  0.98409  0.78139  Biso   1.000  H
  H527     1.0000 0.05817  0.98409  0.78139  Biso   1.000  H
  N76      1.0000 0.03547  0.05000  0.73314  Biso   1.000  N
  H528     1.0000 0.03401  0.03589  0.81669  Biso   1.000  H
  N77      1.0000 0.03547  0.04996  0.73314  Biso   1.000  N
  H529     1.0000 0.03396  0.03589  0.81669  Biso   1.000  H
  H530     1.0000 0.00532  0.79240  0.40288  Biso   1.000  H
  C453     1.0000 0.07053  0.85057  0.41176  Biso   1.000  C
  H531     1.0000 0.00528  0.79240  0.40288  Biso   1.000  H
  C454     1.0000 0.07048  0.85057  0.41176  Biso   1.000  C
  C455     1.0000 0.88278  0.13414  0.44388  Biso   1.000  C
  C456     1.0000 0.86586  0.05612  0.38274  Biso   1.000  C
  C457     1.0000 0.86586  0.05608  0.38274  Biso   1.000  C
  C458     1.0000 0.88274  0.13414  0.44388  Biso   1.000  C
  C459     1.0000 0.07505  0.03748  0.69972  Biso   1.000  C
  C460     1.0000 0.07505  0.03744  0.69972  Biso   1.000  C
  C461     1.0000 0.05612  0.88278  0.36586  Biso   1.000  C
  C462     1.0000 0.11722  0.86586  0.44388  Biso   1.000  C
  C463     1.0000 0.05612  0.88274  0.36586  Biso   1.000  C
  C464     1.0000 0.05608  0.88278  0.36586  Biso   1.000  C
  C465     1.0000 0.05608  0.88274  0.36586  Biso   1.000  C
  C466     1.0000 0.92947  0.14943  0.41176  Biso   1.000  C
  H532     1.0000 0.87310  0.15558  0.47600  Biso   1.000  H
  C467     1.0000 0.92947  0.14938  0.41176  Biso   1.000  C
  C468     1.0000 0.91180  0.07053  0.35057  Biso   1.000  C
  H533     1.0000 0.84442  0.02400  0.37310  Biso   1.000  H
  C469     1.0000 0.91180  0.07048  0.35057  Biso   1.000  C
  C470     1.0000 0.91176  0.07053  0.35057  Biso   1.000  C
  H534     1.0000 0.84438  0.02400  0.37310  Biso   1.000  H
  C471     1.0000 0.91176  0.07048  0.35057  Biso   1.000  C
  H535     1.0000 0.09712  0.00532  0.70760  Biso   1.000  H
  C472     1.0000 0.08820  0.07053  0.64938  Biso   1.000  C
  H536     1.0000 0.09712  0.00528  0.70760  Biso   1.000  H
  C473     1.0000 0.08820  0.07048  0.64938  Biso   1.000  C
  H537     1.0000 0.09708  0.00532  0.70760  Biso   1.000  H
  H538     1.0000 0.09708  0.00528  0.70760  Biso   1.000  H
  C474     1.0000 0.08820  0.92947  0.35057  Biso   1.000  C
  H539     1.0000 0.02400  0.87310  0.34438  Biso   1.000  H
  C475     1.0000 0.14943  0.91180  0.42947  Biso   1.000  C
  H540     1.0000 0.12690  0.84442  0.47600  Biso   1.000  H
  C476     1.0000 0.14943  0.91176  0.42947  Biso   1.000  C
  H541     1.0000 0.12690  0.84438  0.47600  Biso   1.000  H
  C477     1.0000 0.14938  0.91180  0.42947  Biso   1.000  C
  C478     1.0000 0.14938  0.91176  0.42947  Biso   1.000  C
  C479     1.0000 0.96252  0.19972  0.42495  Biso   1.000  C
  C480     1.0000 0.94388  0.11722  0.36586  Biso   1.000  C
  C481     1.0000 0.92495  0.03748  0.30023  Biso   1.000  C
  C482     1.0000 0.92495  0.03744  0.30023  Biso   1.000  C
  C483     1.0000 0.92491  0.03748  0.30023  Biso   1.000  C
  C484     1.0000 0.92491  0.03744  0.30023  Biso   1.000  C
  C485     1.0000 0.13414  0.05612  0.61722  Biso   1.000  C
  C486     1.0000 0.05612  0.11722  0.63414  Biso   1.000  C
  C487     1.0000 0.13414  0.05608  0.61722  Biso   1.000  C
  C488     1.0000 0.05608  0.11722  0.63414  Biso   1.000  C
  C489     1.0000 0.07505  0.96252  0.30023  Biso   1.000  C
  C490     1.0000 0.13414  0.94388  0.38274  Biso   1.000  C
  C491     1.0000 0.19972  0.92495  0.46252  Biso   1.000  C
  C492     1.0000 0.19972  0.92491  0.46252  Biso   1.000  C
  N78      1.0000 0.95000  0.23314  0.46453  Biso   1.000  N
  H542     1.0000 0.99468  0.20760  0.40288  Biso   1.000  H
  N79      1.0000 0.95000  0.23310  0.46453  Biso   1.000  N
  H543     1.0000 0.97600  0.12690  0.34438  Biso   1.000  H
  N80      1.0000 0.96453  0.05000  0.26686  Biso   1.000  N
  H544     1.0000 0.90288  0.00532  0.29240  Biso   1.000  H
  N81      1.0000 0.96453  0.04996  0.26686  Biso   1.000  N
  H545     1.0000 0.90288  0.00528  0.29240  Biso   1.000  H
  C493     1.0000 0.14943  0.08820  0.57053  Biso   1.000  C
  H546     1.0000 0.15558  0.02400  0.62690  Biso   1.000  H
  C494     1.0000 0.14938  0.08820  0.57053  Biso   1.000  C
  C495     1.0000 0.07053  0.14943  0.58820  Biso   1.000  C
  C496     1.0000 0.07053  0.14938  0.58820  Biso   1.000  C
  C497     1.0000 0.07048  0.14943  0.58820  Biso   1.000  C
  C498     1.0000 0.07048  0.14938  0.58820  Biso   1.000  C
  H547     1.0000 0.02400  0.12690  0.65558  Biso   1.000  H
  N82      1.0000 0.03547  0.95000  0.26686  Biso   1.000  N
  H548     1.0000 0.09712  0.99468  0.29240  Biso   1.000  H
  H549     1.0000 0.09708  0.99468  0.29240  Biso   1.000  H
  H550     1.0000 0.15558  0.97600  0.37310  Biso   1.000  H
  N83      1.0000 0.23314  0.96453  0.45000  Biso   1.000  N
  H551     1.0000 0.20760  0.90288  0.49468  Biso   1.000  H
  N84      1.0000 0.23310  0.96453  0.45000  Biso   1.000  N
  C499     1.0000 0.98639  0.28202  0.47094  Biso   1.000  C
  C500     1.0000 0.97094  0.01361  0.21798  Biso   1.000  C
  C501     1.0000 0.11722  0.13414  0.55608  Biso   1.000  C
  C502     1.0000 0.19972  0.07505  0.53744  Biso   1.000  C
  C503     1.0000 0.03748  0.19972  0.57505  Biso   1.000  C
  C504     1.0000 0.03744  0.19972  0.57505  Biso   1.000  C
  C505     1.0000 0.02906  0.98639  0.21798  Biso   1.000  C
  C506     1.0000 0.02902  0.98639  0.21798  Biso   1.000  C
  C507     1.0000 0.28202  0.97094  0.48639  Biso   1.000  C
  H552     1.0000 0.96411  0.31669  0.46599  Biso   1.000  H
  H553     1.0000 0.96407  0.31669  0.46599  Biso   1.000  H
  C508     1.0000 0.01361  0.28202  0.52902  Biso   1.000  C
  H554     1.0000 0.01591  0.28139  0.44179  Biso   1.000  H
  H555     1.0000 0.01587  0.28139  0.44179  Biso   1.000  H
  H556     1.0000 0.94179  0.98409  0.21861  Biso   1.000  H
  H557     1.0000 0.96599  0.03589  0.18331  Biso   1.000  H
  H558     1.0000 0.12690  0.15558  0.52400  Biso   1.000  H
  N85      1.0000 0.23314  0.03547  0.55000  Biso   1.000  N
  H559     1.0000 0.20760  0.09712  0.50528  Biso   1.000  H
  H560     1.0000 0.20760  0.09708  0.50528  Biso   1.000  H
  N86      1.0000 0.23310  0.03547  0.55000  Biso   1.000  N
  N87      1.0000 0.05000  0.23314  0.53547  Biso   1.000  N
  N88      1.0000 0.05000  0.23310  0.53547  Biso   1.000  N
  N89      1.0000 0.04996  0.23314  0.53547  Biso   1.000  N
  N90      1.0000 0.04996  0.23310  0.53547  Biso   1.000  N
  H561     1.0000 0.00532  0.20760  0.59708  Biso   1.000  H
  H562     1.0000 0.00528  0.20760  0.59708  Biso   1.000  H
  H563     1.0000 0.03401  0.96411  0.18331  Biso   1.000  H
  H564     1.0000 0.03401  0.96407  0.18331  Biso   1.000  H
  H565     1.0000 0.03396  0.96411  0.18331  Biso   1.000  H
  H566     1.0000 0.03396  0.96407  0.18331  Biso   1.000  H
  H567     1.0000 0.05821  0.01591  0.21861  Biso   1.000  H
  H568     1.0000 0.05821  0.01587  0.21861  Biso   1.000  H
  H569     1.0000 0.05817  0.01591  0.21861  Biso   1.000  H
  H570     1.0000 0.05817  0.01587  0.21861  Biso   1.000  H
  C509     1.0000 0.28202  0.02906  0.51361  Biso   1.000  C
  C510     1.0000 0.28202  0.02902  0.51361  Biso   1.000  C
  H571     1.0000 0.31669  0.96599  0.46411  Biso   1.000  H
  H572     1.0000 0.28139  0.94179  0.51587  Biso   1.000  H
  H573     1.0000 0.98409  0.28139  0.55817  Biso   1.000  H
  H574     1.0000 0.03589  0.31669  0.53401  Biso   1.000  H
  H575     1.0000 0.31669  0.03401  0.53589  Biso   1.000  H
  H576     1.0000 0.28139  0.05821  0.48409  Biso   1.000  H
  H577     1.0000 0.31669  0.03396  0.53589  Biso   1.000  H
  H578     1.0000 0.28139  0.05817  0.48409  Biso   1.000  H
  C511     1.0000 0.88274  0.86586  0.55608  Biso   1.000  C
  C512     1.0000 0.92947  0.85057  0.58820  Biso   1.000  C
  C513     1.0000 0.85057  0.91180  0.57053  Biso   1.000  C
  H579     1.0000 0.87310  0.84442  0.52400  Biso   1.000  H
  C514     1.0000 0.85057  0.91176  0.57053  Biso   1.000  C
  H580     1.0000 0.87310  0.84438  0.52400  Biso   1.000  H
  C515     1.0000 0.96252  0.80028  0.57505  Biso   1.000  C
  C516     1.0000 0.96252  0.80023  0.57505  Biso   1.000  C
  C517     1.0000 0.94388  0.88278  0.63414  Biso   1.000  C
  C518     1.0000 0.88278  0.86586  0.55608  Biso   1.000  C
  C519     1.0000 0.94388  0.88274  0.63414  Biso   1.000  C
  C520     1.0000 0.86586  0.94388  0.61722  Biso   1.000  C
  C521     1.0000 0.80028  0.92495  0.53744  Biso   1.000  C
  C522     1.0000 0.80028  0.92491  0.53744  Biso   1.000  C
  C523     1.0000 0.80023  0.92495  0.53744  Biso   1.000  C
  C524     1.0000 0.80023  0.92491  0.53744  Biso   1.000  C
  N91      1.0000 0.95000  0.76686  0.53547  Biso   1.000  N
  H581     1.0000 0.99468  0.79240  0.59708  Biso   1.000  H
  H582     1.0000 0.97600  0.87310  0.65558  Biso   1.000  H
  C525     1.0000 0.91180  0.92947  0.64938  Biso   1.000  C
  C526     1.0000 0.91176  0.92947  0.64938  Biso   1.000  C
  H583     1.0000 0.84442  0.97600  0.62690  Biso   1.000  H
  H584     1.0000 0.84438  0.97600  0.62690  Biso   1.000  H
  N92      1.0000 0.76686  0.96453  0.55000  Biso   1.000  N
  H585     1.0000 0.79240  0.90288  0.50528  Biso   1.000  H
  C527     1.0000 0.98639  0.71798  0.52902  Biso   1.000  C
  C528     1.0000 0.98639  0.71794  0.52902  Biso   1.000  C
  C529     1.0000 0.92495  0.96252  0.69972  Biso   1.000  C
  C530     1.0000 0.92491  0.96252  0.69972  Biso   1.000  C
  C531     1.0000 0.71798  0.97094  0.51361  Biso   1.000  C
  C532     1.0000 0.71794  0.97094  0.51361  Biso   1.000  C
  H586     1.0000 0.96411  0.68331  0.53401  Biso   1.000  H
  H587     1.0000 0.96407  0.68331  0.53401  Biso   1.000  H
  C533     1.0000 0.01361  0.71798  0.47094  Biso   1.000  C
  H588     1.0000 0.01591  0.71861  0.55817  Biso   1.000  H
  C534     1.0000 0.01361  0.71794  0.47094  Biso   1.000  C
  H589     1.0000 0.01591  0.71857  0.55817  Biso   1.000  H
  H590     1.0000 0.01587  0.71861  0.55817  Biso   1.000  H
  H591     1.0000 0.01587  0.71857  0.55817  Biso   1.000  H
  N93      1.0000 0.96453  0.95000  0.73314  Biso   1.000  N
  H592     1.0000 0.90288  0.99468  0.70760  Biso   1.000  H
  H593     1.0000 0.68331  0.96599  0.53589  Biso   1.000  H
  H594     1.0000 0.71861  0.94179  0.48409  Biso   1.000  H
  H595     1.0000 0.71857  0.94179  0.48409  Biso   1.000  H
  C535     1.0000 0.71798  0.02906  0.48639  Biso   1.000  C
  C536     1.0000 0.71798  0.02902  0.48639  Biso   1.000  C
  C537     1.0000 0.71794  0.02906  0.48639  Biso   1.000  C
  C538     1.0000 0.71794  0.02902  0.48639  Biso   1.000  C
  H596     1.0000 0.98409  0.71861  0.44179  Biso   1.000  H
  H597     1.0000 0.98409  0.71857  0.44179  Biso   1.000  H
  N94      1.0000 0.05000  0.76686  0.46453  Biso   1.000  N
  H598     1.0000 0.03589  0.68331  0.46599  Biso   1.000  H
  N95      1.0000 0.04996  0.76686  0.46453  Biso   1.000  N
  C539     1.0000 0.97094  0.98639  0.78202  Biso   1.000  C
  N96      1.0000 0.76686  0.03547  0.45000  Biso   1.000  N
  H599     1.0000 0.68331  0.03401  0.46411  Biso   1.000  H
  H600     1.0000 0.71861  0.05821  0.51587  Biso   1.000  H
  H601     1.0000 0.68331  0.03396  0.46411  Biso   1.000  H
  H602     1.0000 0.71861  0.05817  0.51587  Biso   1.000  H
  H603     1.0000 0.71857  0.05821  0.51587  Biso   1.000  H
  H604     1.0000 0.71857  0.05817  0.51587  Biso   1.000  H
  C540     1.0000 0.03748  0.80028  0.42495  Biso   1.000  C
  C541     1.0000 0.03748  0.80023  0.42495  Biso   1.000  C
  C542     1.0000 0.03744  0.80028  0.42495  Biso   1.000  C
  C543     1.0000 0.03744  0.80023  0.42495  Biso   1.000  C
  H605     1.0000 0.96599  0.96411  0.81669  Biso   1.000  H
  H606     1.0000 0.96599  0.96407  0.81669  Biso   1.000  H
  H607     1.0000 0.94179  0.01591  0.78139  Biso   1.000  H
  H608     1.0000 0.94179  0.01587  0.78139  Biso   1.000  H
  C544     1.0000 0.02906  0.01361  0.78202  Biso   1.000  C
  C545     1.0000 0.02902  0.01361  0.78202  Biso   1.000  C
  C546     1.0000 0.80028  0.07505  0.46252  Biso   1.000  C
  C547     1.0000 0.80023  0.07505  0.46252  Biso   1.000  C
  H609     1.0000 0.00532  0.79240  0.40288  Biso   1.000  H
  C548     1.0000 0.07053  0.85057  0.41176  Biso   1.000  C
  H610     1.0000 0.00528  0.79240  0.40288  Biso   1.000  H
  C549     1.0000 0.07048  0.85057  0.41176  Biso   1.000  C
  H611     1.0000 0.05821  0.98409  0.78139  Biso   1.000  H
  H612     1.0000 0.05817  0.98409  0.78139  Biso   1.000  H
  N97      1.0000 0.03547  0.05000  0.73314  Biso   1.000  N
  H613     1.0000 0.03401  0.03589  0.81669  Biso   1.000  H
  N98      1.0000 0.03547  0.04996  0.73314  Biso   1.000  N
  H614     1.0000 0.03396  0.03589  0.81669  Biso   1.000  H
  H615     1.0000 0.79240  0.09712  0.49468  Biso   1.000  H
  C550     1.0000 0.85057  0.08820  0.42947  Biso   1.000  C
  H616     1.0000 0.79240  0.09708  0.49468  Biso   1.000  H
  C551     1.0000 0.05612  0.88278  0.36586  Biso   1.000  C
  C552     1.0000 0.11722  0.86586  0.44388  Biso   1.000  C
  C553     1.0000 0.05612  0.88274  0.36586  Biso   1.000  C
  C554     1.0000 0.05608  0.88278  0.36586  Biso   1.000  C
  C555     1.0000 0.05608  0.88274  0.36586  Biso   1.000  C
  C556     1.0000 0.07505  0.03748  0.69972  Biso   1.000  C
  C557     1.0000 0.07505  0.03744  0.69972  Biso   1.000  C
  C558     1.0000 0.88278  0.13414  0.44388  Biso   1.000  C
  C559     1.0000 0.86586  0.05612  0.38274  Biso   1.000  C
  C560     1.0000 0.86586  0.05608  0.38274  Biso   1.000  C
  C561     1.0000 0.88274  0.13414  0.44388  Biso   1.000  C
  C562     1.0000 0.08820  0.92947  0.35057  Biso   1.000  C
  H617     1.0000 0.02400  0.87310  0.34438  Biso   1.000  H
  C563     1.0000 0.14943  0.91180  0.42947  Biso   1.000  C
  H618     1.0000 0.12690  0.84442  0.47600  Biso   1.000  H
  C564     1.0000 0.14943  0.91176  0.42947  Biso   1.000  C
  H619     1.0000 0.12690  0.84438  0.47600  Biso   1.000  H
  C565     1.0000 0.14938  0.91180  0.42947  Biso   1.000  C
  C566     1.0000 0.14938  0.91176  0.42947  Biso   1.000  C
  H620     1.0000 0.09712  0.00532  0.70760  Biso   1.000  H
  C567     1.0000 0.08820  0.07053  0.64938  Biso   1.000  C
  H621     1.0000 0.09712  0.00528  0.70760  Biso   1.000  H
  C568     1.0000 0.08820  0.07048  0.64938  Biso   1.000  C
  H622     1.0000 0.09708  0.00532  0.70760  Biso   1.000  H
  H623     1.0000 0.09708  0.00528  0.70760  Biso   1.000  H
  C569     1.0000 0.92947  0.14943  0.41176  Biso   1.000  C
  H624     1.0000 0.87310  0.15558  0.47600  Biso   1.000  H
  C570     1.0000 0.92947  0.14938  0.41176  Biso   1.000  C
  C571     1.0000 0.91180  0.07053  0.35057  Biso   1.000  C
  H625     1.0000 0.84442  0.02400  0.37310  Biso   1.000  H
  C572     1.0000 0.91180  0.07048  0.35057  Biso   1.000  C
  C573     1.0000 0.91176  0.07053  0.35057  Biso   1.000  C
  H626     1.0000 0.84438  0.02400  0.37310  Biso   1.000  H
  C574     1.0000 0.91176  0.07048  0.35057  Biso   1.000  C
  C575     1.0000 0.07505  0.96252  0.30023  Biso   1.000  C
  C576     1.0000 0.13414  0.94388  0.38274  Biso   1.000  C
  C577     1.0000 0.19972  0.92495  0.46252  Biso   1.000  C
  C578     1.0000 0.19972  0.92491  0.46252  Biso   1.000  C
  C579     1.0000 0.13414  0.05612  0.61722  Biso   1.000  C
  C580     1.0000 0.05612  0.11722  0.63414  Biso   1.000  C
  C581     1.0000 0.13414  0.05608  0.61722  Biso   1.000  C
  C582     1.0000 0.05608  0.11722  0.63414  Biso   1.000  C
  C583     1.0000 0.96252  0.19972  0.42495  Biso   1.000  C
  C584     1.0000 0.94388  0.11722  0.36586  Biso   1.000  C
  C585     1.0000 0.92495  0.03748  0.30023  Biso   1.000  C
  C586     1.0000 0.92495  0.03744  0.30023  Biso   1.000  C
  C587     1.0000 0.92491  0.03748  0.30023  Biso   1.000  C
  C588     1.0000 0.92491  0.03744  0.30023  Biso   1.000  C
  N99      1.0000 0.03547  0.95000  0.26686  Biso   1.000  N
  H627     1.0000 0.09712  0.99468  0.29240  Biso   1.000  H
  H628     1.0000 0.09708  0.99468  0.29240  Biso   1.000  H
  H629     1.0000 0.15558  0.97600  0.37310  Biso   1.000  H
  N100     1.0000 0.23314  0.96453  0.45000  Biso   1.000  N
  H630     1.0000 0.20760  0.90288  0.49468  Biso   1.000  H
  N101     1.0000 0.23310  0.96453  0.45000  Biso   1.000  N
  C589     1.0000 0.14943  0.08820  0.57053  Biso   1.000  C
  H631     1.0000 0.15558  0.02400  0.62690  Biso   1.000  H
  C590     1.0000 0.14938  0.08820  0.57053  Biso   1.000  C
  C591     1.0000 0.07053  0.14943  0.58820  Biso   1.000  C
  H632     1.0000 0.02400  0.12690  0.65558  Biso   1.000  H
  C592     1.0000 0.07053  0.14938  0.58820  Biso   1.000  C
  C593     1.0000 0.07048  0.14943  0.58820  Biso   1.000  C
  C594     1.0000 0.07048  0.14938  0.58820  Biso   1.000  C
  N102     1.0000 0.95000  0.23314  0.46453  Biso   1.000  N
  H633     1.0000 0.99468  0.20760  0.40288  Biso   1.000  H
  N103     1.0000 0.95000  0.23310  0.46453  Biso   1.000  N
  H634     1.0000 0.97600  0.12690  0.34438  Biso   1.000  H
  N104     1.0000 0.96453  0.05000  0.26686  Biso   1.000  N
  N105     1.0000 0.96453  0.04996  0.26686  Biso   1.000  N
  H635     1.0000 0.90288  0.00532  0.29240  Biso   1.000  H
  H636     1.0000 0.90288  0.00528  0.29240  Biso   1.000  H
  C595     1.0000 0.02906  0.98639  0.21798  Biso   1.000  C
  C596     1.0000 0.02902  0.98639  0.21798  Biso   1.000  C
  C597     1.0000 0.28202  0.97094  0.48639  Biso   1.000  C
  C598     1.0000 0.19972  0.07505  0.53744  Biso   1.000  C
  C599     1.0000 0.11722  0.13414  0.55608  Biso   1.000  C
  C600     1.0000 0.03748  0.19972  0.57505  Biso   1.000  C
  C601     1.0000 0.03744  0.19972  0.57505  Biso   1.000  C
  C602     1.0000 0.98639  0.28202  0.47094  Biso   1.000  C
  C603     1.0000 0.97094  0.01361  0.21798  Biso   1.000  C
  H637     1.0000 0.03401  0.96411  0.18331  Biso   1.000  H
  H638     1.0000 0.03401  0.96407  0.18331  Biso   1.000  H
  H639     1.0000 0.03396  0.96411  0.18331  Biso   1.000  H
  H640     1.0000 0.03396  0.96407  0.18331  Biso   1.000  H
  H641     1.0000 0.05821  0.01591  0.21861  Biso   1.000  H
  H642     1.0000 0.05821  0.01587  0.21861  Biso   1.000  H
  H643     1.0000 0.05817  0.01591  0.21861  Biso   1.000  H
  H644     1.0000 0.05817  0.01587  0.21861  Biso   1.000  H
  H645     1.0000 0.31669  0.96599  0.46411  Biso   1.000  H
  H646     1.0000 0.28139  0.94179  0.51587  Biso   1.000  H
  C604     1.0000 0.28202  0.02906  0.51361  Biso   1.000  C
  C605     1.0000 0.28202  0.02902  0.51361  Biso   1.000  C
  N106     1.0000 0.23314  0.03547  0.55000  Biso   1.000  N
  N107     1.0000 0.23310  0.03547  0.55000  Biso   1.000  N
  H647     1.0000 0.20760  0.09712  0.50528  Biso   1.000  H
  H648     1.0000 0.20760  0.09708  0.50528  Biso   1.000  H
  H649     1.0000 0.12690  0.15558  0.52400  Biso   1.000  H
  N108     1.0000 0.05000  0.23314  0.53547  Biso   1.000  N
  H650     1.0000 0.00532  0.20760  0.59708  Biso   1.000  H
  N109     1.0000 0.05000  0.23310  0.53547  Biso   1.000  N
  N110     1.0000 0.04996  0.23314  0.53547  Biso   1.000  N
  H651     1.0000 0.00528  0.20760  0.59708  Biso   1.000  H
  N111     1.0000 0.04996  0.23310  0.53547  Biso   1.000  N
  C606     1.0000 0.01361  0.28202  0.52902  Biso   1.000  C
  H652     1.0000 0.96411  0.31669  0.46599  Biso   1.000  H
  H653     1.0000 0.96407  0.31669  0.46599  Biso   1.000  H
  H654     1.0000 0.01591  0.28139  0.44179  Biso   1.000  H
  H655     1.0000 0.01587  0.28139  0.44179  Biso   1.000  H
  H656     1.0000 0.94179  0.98409  0.21861  Biso   1.000  H
  H657     1.0000 0.96599  0.03589  0.18331  Biso   1.000  H
  H658     1.0000 0.31669  0.03401  0.53589  Biso   1.000  H
  H659     1.0000 0.28139  0.05821  0.48409  Biso   1.000  H
  H660     1.0000 0.31669  0.03396  0.53589  Biso   1.000  H
  H661     1.0000 0.28139  0.05817  0.48409  Biso   1.000  H
  H662     1.0000 0.98409  0.28139  0.55817  Biso   1.000  H
  H663     1.0000 0.03589  0.31669  0.53401  Biso   1.000  H
  C607     1.0000 0.88274  0.86586  0.55608  Biso   1.000  C
  C608     1.0000 0.92947  0.85057  0.58820  Biso   1.000  C
  C609     1.0000 0.85057  0.91180  0.57053  Biso   1.000  C
  H664     1.0000 0.87310  0.84442  0.52400  Biso   1.000  H
  C610     1.0000 0.85057  0.91176  0.57053  Biso   1.000  C
  H665     1.0000 0.87310  0.84438  0.52400  Biso   1.000  H
  C611     1.0000 0.96252  0.80028  0.57505  Biso   1.000  C
  C612     1.0000 0.96252  0.80023  0.57505  Biso   1.000  C
  C613     1.0000 0.94388  0.88278  0.63414  Biso   1.000  C
  C614     1.0000 0.88278  0.86586  0.55608  Biso   1.000  C
  C615     1.0000 0.94388  0.88274  0.63414  Biso   1.000  C
  C616     1.0000 0.86586  0.94388  0.61722  Biso   1.000  C
  C617     1.0000 0.80028  0.92495  0.53744  Biso   1.000  C
  C618     1.0000 0.80028  0.92491  0.53744  Biso   1.000  C
  C619     1.0000 0.80023  0.92495  0.53744  Biso   1.000  C
  C620     1.0000 0.80023  0.92491  0.53744  Biso   1.000  C
  N112     1.0000 0.95000  0.76686  0.53547  Biso   1.000  N
  H666     1.0000 0.99468  0.79240  0.59708  Biso   1.000  H
  H667     1.0000 0.97600  0.87310  0.65558  Biso   1.000  H
  C621     1.0000 0.91180  0.92947  0.64938  Biso   1.000  C
  C622     1.0000 0.91176  0.92947  0.64938  Biso   1.000  C
  H668     1.0000 0.84442  0.97600  0.62690  Biso   1.000  H
  H669     1.0000 0.84438  0.97600  0.62690  Biso   1.000  H
  N113     1.0000 0.76686  0.96453  0.55000  Biso   1.000  N
  H670     1.0000 0.79240  0.90288  0.50528  Biso   1.000  H
  C623     1.0000 0.98639  0.71798  0.52902  Biso   1.000  C
  C624     1.0000 0.98639  0.71794  0.52902  Biso   1.000  C
  C625     1.0000 0.92495  0.96252  0.69972  Biso   1.000  C
  C626     1.0000 0.92491  0.96252  0.69972  Biso   1.000  C
  C627     1.0000 0.71798  0.97094  0.51361  Biso   1.000  C
  C628     1.0000 0.71794  0.97094  0.51361  Biso   1.000  C
  H671     1.0000 0.96411  0.68331  0.53401  Biso   1.000  H
  H672     1.0000 0.96407  0.68331  0.53401  Biso   1.000  H
  C629     1.0000 0.01361  0.71798  0.47094  Biso   1.000  C
  H673     1.0000 0.01591  0.71861  0.55817  Biso   1.000  H
  C630     1.0000 0.01361  0.71794  0.47094  Biso   1.000  C
  H674     1.0000 0.01591  0.71857  0.55817  Biso   1.000  H
  H675     1.0000 0.01587  0.71861  0.55817  Biso   1.000  H
  H676     1.0000 0.01587  0.71857  0.55817  Biso   1.000  H
  N114     1.0000 0.96453  0.95000  0.73314  Biso   1.000  N
  H677     1.0000 0.90288  0.99468  0.70760  Biso   1.000  H
  H678     1.0000 0.68331  0.96599  0.53589  Biso   1.000  H
  H679     1.0000 0.71861  0.94179  0.48409  Biso   1.000  H
  H680     1.0000 0.71857  0.94179  0.48409  Biso   1.000  H
  C631     1.0000 0.71798  0.02906  0.48639  Biso   1.000  C
  C632     1.0000 0.71798  0.02902  0.48639  Biso   1.000  C
  C633     1.0000 0.71794  0.02906  0.48639  Biso   1.000  C
  C634     1.0000 0.71794  0.02902  0.48639  Biso   1.000  C
  H681     1.0000 0.98409  0.71861  0.44179  Biso   1.000  H
  H682     1.0000 0.98409  0.71857  0.44179  Biso   1.000  H
  N115     1.0000 0.05000  0.76686  0.46453  Biso   1.000  N
  H683     1.0000 0.03589  0.68331  0.46599  Biso   1.000  H
  N116     1.0000 0.04996  0.76686  0.46453  Biso   1.000  N
  C635     1.0000 0.97094  0.98639  0.78202  Biso   1.000  C
  N117     1.0000 0.76686  0.03547  0.45000  Biso   1.000  N
  H684     1.0000 0.68331  0.03401  0.46411  Biso   1.000  H
  H685     1.0000 0.71861  0.05821  0.51587  Biso   1.000  H
  H686     1.0000 0.68331  0.03396  0.46411  Biso   1.000  H
  H687     1.0000 0.71861  0.05817  0.51587  Biso   1.000  H
  H688     1.0000 0.71857  0.05821  0.51587  Biso   1.000  H
  H689     1.0000 0.71857  0.05817  0.51587  Biso   1.000  H
  C636     1.0000 0.03748  0.80028  0.42495  Biso   1.000  C
  C637     1.0000 0.03748  0.80023  0.42495  Biso   1.000  C
  C638     1.0000 0.03744  0.80028  0.42495  Biso   1.000  C
  C639     1.0000 0.03744  0.80023  0.42495  Biso   1.000  C
  H690     1.0000 0.96599  0.96411  0.81669  Biso   1.000  H
  H691     1.0000 0.96599  0.96407  0.81669  Biso   1.000  H
  H692     1.0000 0.94179  0.01591  0.78139  Biso   1.000  H
  H693     1.0000 0.94179  0.01587  0.78139  Biso   1.000  H
  C640     1.0000 0.02906  0.01361  0.78202  Biso   1.000  C
  C641     1.0000 0.02902  0.01361  0.78202  Biso   1.000  C
  C642     1.0000 0.80028  0.07505  0.46252  Biso   1.000  C
  C643     1.0000 0.80023  0.07505  0.46252  Biso   1.000  C
  H694     1.0000 0.00532  0.79240  0.40288  Biso   1.000  H
  C644     1.0000 0.07053  0.85057  0.41176  Biso   1.000  C
  H695     1.0000 0.00528  0.79240  0.40288  Biso   1.000  H
  C645     1.0000 0.07048  0.85057  0.41176  Biso   1.000  C
  H696     1.0000 0.05821  0.98409  0.78139  Biso   1.000  H
  H697     1.0000 0.05817  0.98409  0.78139  Biso   1.000  H
  N118     1.0000 0.03547  0.05000  0.73314  Biso   1.000  N
  H698     1.0000 0.03401  0.03589  0.81669  Biso   1.000  H
  N119     1.0000 0.03547  0.04996  0.73314  Biso   1.000  N
  H699     1.0000 0.03396  0.03589  0.81669  Biso   1.000  H
  H700     1.0000 0.79240  0.09712  0.49468  Biso   1.000  H
  C646     1.0000 0.85057  0.08820  0.42947  Biso   1.000  C
  H701     1.0000 0.79240  0.09708  0.49468  Biso   1.000  H
  C647     1.0000 0.05612  0.88278  0.36586  Biso   1.000  C
  C648     1.0000 0.11722  0.86586  0.44388  Biso   1.000  C
  C649     1.0000 0.05612  0.88274  0.36586  Biso   1.000  C
  C650     1.0000 0.05608  0.88278  0.36586  Biso   1.000  C
  C651     1.0000 0.05608  0.88274  0.36586  Biso   1.000  C
  C652     1.0000 0.07505  0.03748  0.69972  Biso   1.000  C
  C653     1.0000 0.07505  0.03744  0.69972  Biso   1.000  C
  C654     1.0000 0.88278  0.13414  0.44388  Biso   1.000  C
  C655     1.0000 0.86586  0.05612  0.38274  Biso   1.000  C
  C656     1.0000 0.86586  0.05608  0.38274  Biso   1.000  C
  C657     1.0000 0.88274  0.13414  0.44388  Biso   1.000  C
  C658     1.0000 0.08820  0.92947  0.35057  Biso   1.000  C
  H702     1.0000 0.02400  0.87310  0.34438  Biso   1.000  H
  C659     1.0000 0.14943  0.91180  0.42947  Biso   1.000  C
  H703     1.0000 0.12690  0.84442  0.47600  Biso   1.000  H
  C660     1.0000 0.14943  0.91176  0.42947  Biso   1.000  C
  H704     1.0000 0.12690  0.84438  0.47600  Biso   1.000  H
  C661     1.0000 0.14938  0.91180  0.42947  Biso   1.000  C
  C662     1.0000 0.14938  0.91176  0.42947  Biso   1.000  C
  H705     1.0000 0.09712  0.00532  0.70760  Biso   1.000  H
  C663     1.0000 0.08820  0.07053  0.64938  Biso   1.000  C
  H706     1.0000 0.09712  0.00528  0.70760  Biso   1.000  H
  C664     1.0000 0.08820  0.07048  0.64938  Biso   1.000  C
  H707     1.0000 0.09708  0.00532  0.70760  Biso   1.000  H
  H708     1.0000 0.09708  0.00528  0.70760  Biso   1.000  H
  C665     1.0000 0.92947  0.14943  0.41176  Biso   1.000  C
  H709     1.0000 0.87310  0.15558  0.47600  Biso   1.000  H
  C666     1.0000 0.92947  0.14938  0.41176  Biso   1.000  C
  C667     1.0000 0.91180  0.07053  0.35057  Biso   1.000  C
  H710     1.0000 0.84442  0.02400  0.37310  Biso   1.000  H
  C668     1.0000 0.91180  0.07048  0.35057  Biso   1.000  C
  C669     1.0000 0.91176  0.07053  0.35057  Biso   1.000  C
  H711     1.0000 0.84438  0.02400  0.37310  Biso   1.000  H
  C670     1.0000 0.91176  0.07048  0.35057  Biso   1.000  C
  C671     1.0000 0.07505  0.96252  0.30023  Biso   1.000  C
  C672     1.0000 0.13414  0.94388  0.38274  Biso   1.000  C
  C673     1.0000 0.19972  0.92495  0.46252  Biso   1.000  C
  C674     1.0000 0.19972  0.92491  0.46252  Biso   1.000  C
  C675     1.0000 0.13414  0.05612  0.61722  Biso   1.000  C
  C676     1.0000 0.05612  0.11722  0.63414  Biso   1.000  C
  C677     1.0000 0.13414  0.05608  0.61722  Biso   1.000  C
  C678     1.0000 0.05608  0.11722  0.63414  Biso   1.000  C
  C679     1.0000 0.96252  0.19972  0.42495  Biso   1.000  C
  C680     1.0000 0.94388  0.11722  0.36586  Biso   1.000  C
  C681     1.0000 0.92495  0.03748  0.30023  Biso   1.000  C
  C682     1.0000 0.92495  0.03744  0.30023  Biso   1.000  C
  C683     1.0000 0.92491  0.03748  0.30023  Biso   1.000  C
  C684     1.0000 0.92491  0.03744  0.30023  Biso   1.000  C
  N120     1.0000 0.03547  0.95000  0.26686  Biso   1.000  N
  H712     1.0000 0.09712  0.99468  0.29240  Biso   1.000  H
  H713     1.0000 0.09708  0.99468  0.29240  Biso   1.000  H
  H714     1.0000 0.15558  0.97600  0.37310  Biso   1.000  H
  N121     1.0000 0.23314  0.96453  0.45000  Biso   1.000  N
  H715     1.0000 0.20760  0.90288  0.49468  Biso   1.000  H
  N122     1.0000 0.23310  0.96453  0.45000  Biso   1.000  N
  C685     1.0000 0.14943  0.08820  0.57053  Biso   1.000  C
  H716     1.0000 0.15558  0.02400  0.62690  Biso   1.000  H
  C686     1.0000 0.14938  0.08820  0.57053  Biso   1.000  C
  C687     1.0000 0.07053  0.14943  0.58820  Biso   1.000  C
  H717     1.0000 0.02400  0.12690  0.65558  Biso   1.000  H
  C688     1.0000 0.07053  0.14938  0.58820  Biso   1.000  C
  C689     1.0000 0.07048  0.14943  0.58820  Biso   1.000  C
  C690     1.0000 0.07048  0.14938  0.58820  Biso   1.000  C
  N123     1.0000 0.95000  0.23314  0.46453  Biso   1.000  N
  H718     1.0000 0.99468  0.20760  0.40288  Biso   1.000  H
  N124     1.0000 0.95000  0.23310  0.46453  Biso   1.000  N
  H719     1.0000 0.97600  0.12690  0.34438  Biso   1.000  H
  N125     1.0000 0.96453  0.05000  0.26686  Biso   1.000  N
  N126     1.0000 0.96453  0.04996  0.26686  Biso   1.000  N
  H720     1.0000 0.90288  0.00532  0.29240  Biso   1.000  H
  H721     1.0000 0.90288  0.00528  0.29240  Biso   1.000  H
  C691     1.0000 0.02906  0.98639  0.21798  Biso   1.000  C
  C692     1.0000 0.02902  0.98639  0.21798  Biso   1.000  C
  C693     1.0000 0.28202  0.97094  0.48639  Biso   1.000  C
  C694     1.0000 0.19972  0.07505  0.53744  Biso   1.000  C
  C695     1.0000 0.11722  0.13414  0.55608  Biso   1.000  C
  C696     1.0000 0.03748  0.19972  0.57505  Biso   1.000  C
  C697     1.0000 0.03744  0.19972  0.57505  Biso   1.000  C
  C698     1.0000 0.98639  0.28202  0.47094  Biso   1.000  C
  C699     1.0000 0.97094  0.01361  0.21798  Biso   1.000  C
  H722     1.0000 0.03401  0.96411  0.18331  Biso   1.000  H
  H723     1.0000 0.03401  0.96407  0.18331  Biso   1.000  H
  H724     1.0000 0.03396  0.96411  0.18331  Biso   1.000  H
  H725     1.0000 0.03396  0.96407  0.18331  Biso   1.000  H
  H726     1.0000 0.05821  0.01591  0.21861  Biso   1.000  H
  H727     1.0000 0.05821  0.01587  0.21861  Biso   1.000  H
  H728     1.0000 0.05817  0.01591  0.21861  Biso   1.000  H
  H729     1.0000 0.05817  0.01587  0.21861  Biso   1.000  H
  H730     1.0000 0.31669  0.96599  0.46411  Biso   1.000  H
  H731     1.0000 0.28139  0.94179  0.51587  Biso   1.000  H
  C700     1.0000 0.28202  0.02906  0.51361  Biso   1.000  C
  C701     1.0000 0.28202  0.02902  0.51361  Biso   1.000  C
  N127     1.0000 0.23314  0.03547  0.55000  Biso   1.000  N
  N128     1.0000 0.23310  0.03547  0.55000  Biso   1.000  N
  H732     1.0000 0.20760  0.09712  0.50528  Biso   1.000  H
  H733     1.0000 0.20760  0.09708  0.50528  Biso   1.000  H
  H734     1.0000 0.12690  0.15558  0.52400  Biso   1.000  H
  N129     1.0000 0.05000  0.23314  0.53547  Biso   1.000  N
  H735     1.0000 0.00532  0.20760  0.59708  Biso   1.000  H
  N130     1.0000 0.05000  0.23310  0.53547  Biso   1.000  N
  N131     1.0000 0.04996  0.23314  0.53547  Biso   1.000  N
  H736     1.0000 0.00528  0.20760  0.59708  Biso   1.000  H
  N132     1.0000 0.04996  0.23310  0.53547  Biso   1.000  N
  C702     1.0000 0.01361  0.28202  0.52902  Biso   1.000  C
  H737     1.0000 0.96411  0.31669  0.46599  Biso   1.000  H
  H738     1.0000 0.96407  0.31669  0.46599  Biso   1.000  H
  H739     1.0000 0.01591  0.28139  0.44179  Biso   1.000  H
  H740     1.0000 0.01587  0.28139  0.44179  Biso   1.000  H
  H741     1.0000 0.94179  0.98409  0.21861  Biso   1.000  H
  H742     1.0000 0.96599  0.03589  0.18331  Biso   1.000  H
  H743     1.0000 0.31669  0.03401  0.53589  Biso   1.000  H
  H744     1.0000 0.28139  0.05821  0.48409  Biso   1.000  H
  H745     1.0000 0.31669  0.03396  0.53589  Biso   1.000  H
  H746     1.0000 0.28139  0.05817  0.48409  Biso   1.000  H
  H747     1.0000 0.98409  0.28139  0.55817  Biso   1.000  H
  H748     1.0000 0.03589  0.31669  0.53401  Biso   1.000  H
  C703     1.0000 0.86586  0.55608  0.88274  Biso   1.000  C
  C704     1.0000 0.91180  0.57053  0.85057  Biso   1.000  C
  C705     1.0000 0.91176  0.57053  0.85057  Biso   1.000  C
  C706     1.0000 0.85057  0.58820  0.92947  Biso   1.000  C
  H749     1.0000 0.84442  0.52400  0.87310  Biso   1.000  H
  H750     1.0000 0.84438  0.52400  0.87310  Biso   1.000  H
  C707     1.0000 0.92495  0.53744  0.80028  Biso   1.000  C
  C708     1.0000 0.92495  0.53744  0.80023  Biso   1.000  C
  C709     1.0000 0.92491  0.53744  0.80028  Biso   1.000  C
  C710     1.0000 0.92491  0.53744  0.80023  Biso   1.000  C
  C711     1.0000 0.86586  0.55608  0.88278  Biso   1.000  C
  C712     1.0000 0.94388  0.61722  0.86586  Biso   1.000  C
  C713     1.0000 0.80028  0.57505  0.96252  Biso   1.000  C
  C714     1.0000 0.88278  0.63414  0.94388  Biso   1.000  C
  C715     1.0000 0.80023  0.57505  0.96252  Biso   1.000  C
  C716     1.0000 0.88274  0.63414  0.94388  Biso   1.000  C
  N133     1.0000 0.96453  0.55000  0.76686  Biso   1.000  N
  H751     1.0000 0.90288  0.50528  0.79240  Biso   1.000  H
  C717     1.0000 0.92947  0.64938  0.91180  Biso   1.000  C
  H752     1.0000 0.97600  0.62690  0.84442  Biso   1.000  H
  C718     1.0000 0.92947  0.64938  0.91176  Biso   1.000  C
  H753     1.0000 0.97600  0.62690  0.84438  Biso   1.000  H
  N134     1.0000 0.76686  0.53547  0.95000  Biso   1.000  N
  H754     1.0000 0.79240  0.59708  0.99468  Biso   1.000  H
  H755     1.0000 0.87310  0.65558  0.97600  Biso   1.000  H
  C719     1.0000 0.97094  0.51361  0.71794  Biso   1.000  C
  C720     1.0000 0.97094  0.51361  0.71798  Biso   1.000  C
  C721     1.0000 0.96252  0.69972  0.92495  Biso   1.000  C
  C722     1.0000 0.96252  0.69972  0.92491  Biso   1.000  C
  C723     1.0000 0.71798  0.52902  0.98639  Biso   1.000  C
  C724     1.0000 0.71794  0.52902  0.98639  Biso   1.000  C
  H756     1.0000 0.96599  0.53589  0.68331  Biso   1.000  H
  H757     1.0000 0.94179  0.48409  0.71861  Biso   1.000  H
  H758     1.0000 0.94179  0.48409  0.71857  Biso   1.000  H
  C725     1.0000 0.02906  0.48639  0.71798  Biso   1.000  C
  C726     1.0000 0.02906  0.48639  0.71794  Biso   1.000  C
  C727     1.0000 0.02902  0.48639  0.71798  Biso   1.000  C
  C728     1.0000 0.02902  0.48639  0.71794  Biso   1.000  C
  N135     1.0000 0.95000  0.73314  0.96453  Biso   1.000  N
  H759     1.0000 0.99468  0.70760  0.90288  Biso   1.000  H
  H760     1.0000 0.68331  0.53401  0.96411  Biso   1.000  H
  H761     1.0000 0.68331  0.53401  0.96407  Biso   1.000  H
  C729     1.0000 0.71798  0.47094  0.01361  Biso   1.000  C
  H762     1.0000 0.71861  0.55817  0.01591  Biso   1.000  H
  H763     1.0000 0.71861  0.55817  0.01587  Biso   1.000  H
  C730     1.0000 0.71794  0.47094  0.01361  Biso   1.000  C
  H764     1.0000 0.71857  0.55817  0.01591  Biso   1.000  H
  H765     1.0000 0.71857  0.55817  0.01587  Biso   1.000  H
  N136     1.0000 0.03547  0.45000  0.76686  Biso   1.000  N
  H766     1.0000 0.03401  0.46411  0.68331  Biso   1.000  H
  H767     1.0000 0.05821  0.51587  0.71861  Biso   1.000  H
  H768     1.0000 0.05821  0.51587  0.71857  Biso   1.000  H
  H769     1.0000 0.03396  0.46411  0.68331  Biso   1.000  H
  H770     1.0000 0.05817  0.51587  0.71861  Biso   1.000  H
  H771     1.0000 0.05817  0.51587  0.71857  Biso   1.000  H
  C731     1.0000 0.98639  0.78202  0.97094  Biso   1.000  C
  H772     1.0000 0.71861  0.44179  0.98409  Biso   1.000  H
  H773     1.0000 0.71857  0.44179  0.98409  Biso   1.000  H
  N137     1.0000 0.76686  0.46453  0.05000  Biso   1.000  N
  H774     1.0000 0.68331  0.46599  0.03589  Biso   1.000  H
  N138     1.0000 0.76686  0.46453  0.04996  Biso   1.000  N
  C732     1.0000 0.07505  0.46252  0.80028  Biso   1.000  C
  C733     1.0000 0.07505  0.46252  0.80023  Biso   1.000  C
  H775     1.0000 0.96411  0.81669  0.96599  Biso   1.000  H
  H776     1.0000 0.96407  0.81669  0.96599  Biso   1.000  H
  H777     1.0000 0.01591  0.78139  0.94179  Biso   1.000  H
  H778     1.0000 0.01587  0.78139  0.94179  Biso   1.000  H
  C734     1.0000 0.01361  0.78202  0.02906  Biso   1.000  C
  C735     1.0000 0.01361  0.78202  0.02902  Biso   1.000  C
  C736     1.0000 0.80028  0.42495  0.03748  Biso   1.000  C
  C737     1.0000 0.80028  0.42495  0.03744  Biso   1.000  C
  C738     1.0000 0.80023  0.42495  0.03748  Biso   1.000  C
  C739     1.0000 0.80023  0.42495  0.03744  Biso   1.000  C
  H779     1.0000 0.09712  0.49468  0.79240  Biso   1.000  H
  C740     1.0000 0.08820  0.42947  0.85057  Biso   1.000  C
  H780     1.0000 0.09708  0.49468  0.79240  Biso   1.000  H
  H781     1.0000 0.98409  0.78139  0.05821  Biso   1.000  H
  H782     1.0000 0.98409  0.78139  0.05817  Biso   1.000  H
  N139     1.0000 0.05000  0.73314  0.03547  Biso   1.000  N
  H783     1.0000 0.03589  0.81669  0.03401  Biso   1.000  H
  H784     1.0000 0.03589  0.81669  0.03396  Biso   1.000  H
  N140     1.0000 0.04996  0.73314  0.03547  Biso   1.000  N
  H785     1.0000 0.79240  0.40288  0.00532  Biso   1.000  H
  C741     1.0000 0.85057  0.41176  0.07053  Biso   1.000  C
  H786     1.0000 0.79240  0.40288  0.00528  Biso   1.000  H
  C742     1.0000 0.85057  0.41176  0.07048  Biso   1.000  C
  C743     1.0000 0.13414  0.44388  0.88278  Biso   1.000  C
  C744     1.0000 0.05612  0.38274  0.86586  Biso   1.000  C
  C745     1.0000 0.13414  0.44388  0.88274  Biso   1.000  C
  C746     1.0000 0.05608  0.38274  0.86586  Biso   1.000  C
  C747     1.0000 0.03748  0.69972  0.07505  Biso   1.000  C
  C748     1.0000 0.03744  0.69972  0.07505  Biso   1.000  C
  C749     1.0000 0.88278  0.36586  0.05612  Biso   1.000  C
  C750     1.0000 0.86586  0.44388  0.11722  Biso   1.000  C
  C751     1.0000 0.88278  0.36586  0.05608  Biso   1.000  C
  C752     1.0000 0.88274  0.36586  0.05612  Biso   1.000  C
  C753     1.0000 0.88274  0.36586  0.05608  Biso   1.000  C
  C754     1.0000 0.14943  0.41176  0.92947  Biso   1.000  C
  H787     1.0000 0.15558  0.47600  0.87310  Biso   1.000  H
  C755     1.0000 0.14938  0.41176  0.92947  Biso   1.000  C
  C756     1.0000 0.07053  0.35057  0.91180  Biso   1.000  C
  H788     1.0000 0.02400  0.37310  0.84442  Biso   1.000  H
  C757     1.0000 0.07053  0.35057  0.91176  Biso   1.000  C
  H789     1.0000 0.02400  0.37310  0.84438  Biso   1.000  H
  C758     1.0000 0.07048  0.35057  0.91180  Biso   1.000  C
  C759     1.0000 0.07048  0.35057  0.91176  Biso   1.000  C
  H790     1.0000 0.00532  0.70760  0.09712  Biso   1.000  H
  C760     1.0000 0.07053  0.64938  0.08820  Biso   1.000  C
  H791     1.0000 0.00532  0.70760  0.09708  Biso   1.000  H
  H792     1.0000 0.00528  0.70760  0.09712  Biso   1.000  H
  C761     1.0000 0.07048  0.64938  0.08820  Biso   1.000  C
  H793     1.0000 0.00528  0.70760  0.09708  Biso   1.000  H
  C762     1.0000 0.92947  0.35057  0.08820  Biso   1.000  C
  H794     1.0000 0.87310  0.34438  0.02400  Biso   1.000  H
  C763     1.0000 0.91180  0.42947  0.14943  Biso   1.000  C
  H795     1.0000 0.84442  0.47600  0.12690  Biso   1.000  H
  C764     1.0000 0.91180  0.42947  0.14938  Biso   1.000  C
  C765     1.0000 0.91176  0.42947  0.14943  Biso   1.000  C
  H796     1.0000 0.84438  0.47600  0.12690  Biso   1.000  H
  C766     1.0000 0.91176  0.42947  0.14938  Biso   1.000  C
  C767     1.0000 0.19972  0.42495  0.96252  Biso   1.000  C
  C768     1.0000 0.11722  0.36586  0.94388  Biso   1.000  C
  C769     1.0000 0.03748  0.30023  0.92495  Biso   1.000  C
  C770     1.0000 0.03748  0.30023  0.92491  Biso   1.000  C
  C771     1.0000 0.03744  0.30023  0.92495  Biso   1.000  C
  C772     1.0000 0.03744  0.30023  0.92491  Biso   1.000  C
  C773     1.0000 0.05612  0.61722  0.13414  Biso   1.000  C
  C774     1.0000 0.11722  0.63414  0.05612  Biso   1.000  C
  C775     1.0000 0.11722  0.63414  0.05608  Biso   1.000  C
  C776     1.0000 0.05608  0.61722  0.13414  Biso   1.000  C
  C777     1.0000 0.96252  0.30023  0.07505  Biso   1.000  C
  C778     1.0000 0.94388  0.38274  0.13414  Biso   1.000  C
  C779     1.0000 0.92495  0.46252  0.19972  Biso   1.000  C
  C780     1.0000 0.92491  0.46252  0.19972  Biso   1.000  C
  N141     1.0000 0.23314  0.46453  0.95000  Biso   1.000  N
  H797     1.0000 0.20760  0.40288  0.99468  Biso   1.000  H
  N142     1.0000 0.23310  0.46453  0.95000  Biso   1.000  N
  H798     1.0000 0.12690  0.34438  0.97600  Biso   1.000  H
  N143     1.0000 0.05000  0.26686  0.96453  Biso   1.000  N
  H799     1.0000 0.00532  0.29240  0.90288  Biso   1.000  H
  N144     1.0000 0.04996  0.26686  0.96453  Biso   1.000  N
  H800     1.0000 0.00528  0.29240  0.90288  Biso   1.000  H
  C781     1.0000 0.08820  0.57053  0.14943  Biso   1.000  C
  H801     1.0000 0.02400  0.62690  0.15558  Biso   1.000  H
  C782     1.0000 0.08820  0.57053  0.14938  Biso   1.000  C
  C783     1.0000 0.14943  0.58820  0.07053  Biso   1.000  C
  C784     1.0000 0.14943  0.58820  0.07048  Biso   1.000  C
  C785     1.0000 0.14938  0.58820  0.07053  Biso   1.000  C
  C786     1.0000 0.14938  0.58820  0.07048  Biso   1.000  C
  H802     1.0000 0.12690  0.65558  0.02400  Biso   1.000  H
  N145     1.0000 0.95000  0.26686  0.03547  Biso   1.000  N
  H803     1.0000 0.99468  0.29240  0.09712  Biso   1.000  H
  H804     1.0000 0.99468  0.29240  0.09708  Biso   1.000  H
  H805     1.0000 0.97600  0.37310  0.15558  Biso   1.000  H
  N146     1.0000 0.96453  0.45000  0.23314  Biso   1.000  N
  H806     1.0000 0.90288  0.49468  0.20760  Biso   1.000  H
  N147     1.0000 0.96453  0.45000  0.23310  Biso   1.000  N
  C787     1.0000 0.28202  0.47094  0.98639  Biso   1.000  C
  C788     1.0000 0.01361  0.21798  0.97094  Biso   1.000  C
  C789     1.0000 0.13414  0.55608  0.11722  Biso   1.000  C
  C790     1.0000 0.07505  0.53744  0.19972  Biso   1.000  C
  C791     1.0000 0.19972  0.57505  0.03748  Biso   1.000  C
  C792     1.0000 0.19972  0.57505  0.03744  Biso   1.000  C
  C793     1.0000 0.98639  0.21798  0.02906  Biso   1.000  C
  C794     1.0000 0.98639  0.21798  0.02902  Biso   1.000  C
  C795     1.0000 0.97094  0.48639  0.28202  Biso   1.000  C
  H807     1.0000 0.31669  0.46599  0.96411  Biso   1.000  H
  H808     1.0000 0.31669  0.46599  0.96407  Biso   1.000  H
  C796     1.0000 0.28202  0.52902  0.01361  Biso   1.000  C
  H809     1.0000 0.28139  0.44179  0.01591  Biso   1.000  H
  H810     1.0000 0.28139  0.44179  0.01587  Biso   1.000  H
  H811     1.0000 0.98409  0.21861  0.94179  Biso   1.000  H
  H812     1.0000 0.03589  0.18331  0.96599  Biso   1.000  H
  H813     1.0000 0.15558  0.52400  0.12690  Biso   1.000  H
  N148     1.0000 0.03547  0.55000  0.23314  Biso   1.000  N
  H814     1.0000 0.09712  0.50528  0.20760  Biso   1.000  H
  N149     1.0000 0.03547  0.55000  0.23310  Biso   1.000  N
  H815     1.0000 0.09708  0.50528  0.20760  Biso   1.000  H
  N150     1.0000 0.23314  0.53547  0.05000  Biso   1.000  N
  N151     1.0000 0.23314  0.53547  0.04996  Biso   1.000  N
  N152     1.0000 0.23310  0.53547  0.05000  Biso   1.000  N
  N153     1.0000 0.23310  0.53547  0.04996  Biso   1.000  N
  H816     1.0000 0.20760  0.59708  0.00532  Biso   1.000  H
  H817     1.0000 0.20760  0.59708  0.00528  Biso   1.000  H
  H818     1.0000 0.96411  0.18331  0.03401  Biso   1.000  H
  H819     1.0000 0.96411  0.18331  0.03396  Biso   1.000  H
  H820     1.0000 0.96407  0.18331  0.03401  Biso   1.000  H
  H821     1.0000 0.96407  0.18331  0.03396  Biso   1.000  H
  H822     1.0000 0.01591  0.21861  0.05821  Biso   1.000  H
  H823     1.0000 0.01591  0.21861  0.05817  Biso   1.000  H
  H824     1.0000 0.01587  0.21861  0.05821  Biso   1.000  H
  H825     1.0000 0.01587  0.21861  0.05817  Biso   1.000  H
  C797     1.0000 0.02906  0.51361  0.28202  Biso   1.000  C
  C798     1.0000 0.02902  0.51361  0.28202  Biso   1.000  C
  H826     1.0000 0.96599  0.46411  0.31669  Biso   1.000  H
  H827     1.0000 0.94179  0.51587  0.28139  Biso   1.000  H
  H828     1.0000 0.28139  0.55817  0.98409  Biso   1.000  H
  H829     1.0000 0.31669  0.53401  0.03589  Biso   1.000  H
  H830     1.0000 0.03401  0.53589  0.31669  Biso   1.000  H
  H831     1.0000 0.05821  0.48409  0.28139  Biso   1.000  H
  H832     1.0000 0.03396  0.53589  0.31669  Biso   1.000  H
  H833     1.0000 0.05817  0.48409  0.28139  Biso   1.000  H
  C799     1.0000 0.86586  0.55608  0.88274  Biso   1.000  C
  C800     1.0000 0.91180  0.57053  0.85057  Biso   1.000  C
  C801     1.0000 0.91176  0.57053  0.85057  Biso   1.000  C
  C802     1.0000 0.85057  0.58820  0.92947  Biso   1.000  C
  H834     1.0000 0.84442  0.52400  0.87310  Biso   1.000  H
  H835     1.0000 0.84438  0.52400  0.87310  Biso   1.000  H
  C803     1.0000 0.92495  0.53744  0.80028  Biso   1.000  C
  C804     1.0000 0.92495  0.53744  0.80023  Biso   1.000  C
  C805     1.0000 0.92491  0.53744  0.80028  Biso   1.000  C
  C806     1.0000 0.92491  0.53744  0.80023  Biso   1.000  C
  C807     1.0000 0.94388  0.61722  0.86586  Biso   1.000  C
  C808     1.0000 0.86586  0.55608  0.88278  Biso   1.000  C
  C809     1.0000 0.88278  0.63414  0.94388  Biso   1.000  C
  C810     1.0000 0.88274  0.63414  0.94388  Biso   1.000  C
  C811     1.0000 0.80028  0.57505  0.96252  Biso   1.000  C
  C812     1.0000 0.80023  0.57505  0.96252  Biso   1.000  C
  N154     1.0000 0.96453  0.55000  0.76686  Biso   1.000  N
  H836     1.0000 0.90288  0.50528  0.79240  Biso   1.000  H
  C813     1.0000 0.92947  0.64938  0.91180  Biso   1.000  C
  H837     1.0000 0.97600  0.62690  0.84442  Biso   1.000  H
  C814     1.0000 0.92947  0.64938  0.91176  Biso   1.000  C
  H838     1.0000 0.97600  0.62690  0.84438  Biso   1.000  H
  H839     1.0000 0.87310  0.65558  0.97600  Biso   1.000  H
  N155     1.0000 0.76686  0.53547  0.95000  Biso   1.000  N
  H840     1.0000 0.79240  0.59708  0.99468  Biso   1.000  H
  C815     1.0000 0.97094  0.51361  0.71794  Biso   1.000  C
  C816     1.0000 0.97094  0.51361  0.71798  Biso   1.000  C
  C817     1.0000 0.96252  0.69972  0.92495  Biso   1.000  C
  C818     1.0000 0.96252  0.69972  0.92491  Biso   1.000  C
  C819     1.0000 0.71798  0.52902  0.98639  Biso   1.000  C
  C820     1.0000 0.71794  0.52902  0.98639  Biso   1.000  C
  H841     1.0000 0.96599  0.53589  0.68331  Biso   1.000  H
  H842     1.0000 0.94179  0.48409  0.71861  Biso   1.000  H
  H843     1.0000 0.94179  0.48409  0.71857  Biso   1.000  H
  C821     1.0000 0.02906  0.48639  0.71798  Biso   1.000  C
  C822     1.0000 0.02906  0.48639  0.71794  Biso   1.000  C
  C823     1.0000 0.02902  0.48639  0.71798  Biso   1.000  C
  C824     1.0000 0.02902  0.48639  0.71794  Biso   1.000  C
  N156     1.0000 0.95000  0.73314  0.96453  Biso   1.000  N
  H844     1.0000 0.99468  0.70760  0.90288  Biso   1.000  H
  H845     1.0000 0.68331  0.53401  0.96411  Biso   1.000  H
  H846     1.0000 0.68331  0.53401  0.96407  Biso   1.000  H
  C825     1.0000 0.71798  0.47094  0.01361  Biso   1.000  C
  H847     1.0000 0.71861  0.55817  0.01591  Biso   1.000  H
  H848     1.0000 0.71861  0.55817  0.01587  Biso   1.000  H
  C826     1.0000 0.71794  0.47094  0.01361  Biso   1.000  C
  H849     1.0000 0.71857  0.55817  0.01591  Biso   1.000  H
  H850     1.0000 0.71857  0.55817  0.01587  Biso   1.000  H
  N157     1.0000 0.03547  0.45000  0.76686  Biso   1.000  N
  H851     1.0000 0.03401  0.46411  0.68331  Biso   1.000  H
  H852     1.0000 0.05821  0.51587  0.71861  Biso   1.000  H
  H853     1.0000 0.05821  0.51587  0.71857  Biso   1.000  H
  H854     1.0000 0.03396  0.46411  0.68331  Biso   1.000  H
  H855     1.0000 0.05817  0.51587  0.71861  Biso   1.000  H
  H856     1.0000 0.05817  0.51587  0.71857  Biso   1.000  H
  C827     1.0000 0.98639  0.78202  0.97094  Biso   1.000  C
  H857     1.0000 0.71861  0.44179  0.98409  Biso   1.000  H
  H858     1.0000 0.71857  0.44179  0.98409  Biso   1.000  H
  N158     1.0000 0.76686  0.46453  0.05000  Biso   1.000  N
  H859     1.0000 0.68331  0.46599  0.03589  Biso   1.000  H
  N159     1.0000 0.76686  0.46453  0.04996  Biso   1.000  N
  C828     1.0000 0.07505  0.46252  0.80028  Biso   1.000  C
  C829     1.0000 0.07505  0.46252  0.80023  Biso   1.000  C
  H860     1.0000 0.96411  0.81669  0.96599  Biso   1.000  H
  H861     1.0000 0.96407  0.81669  0.96599  Biso   1.000  H
  H862     1.0000 0.01591  0.78139  0.94179  Biso   1.000  H
  H863     1.0000 0.01587  0.78139  0.94179  Biso   1.000  H
  C830     1.0000 0.01361  0.78202  0.02906  Biso   1.000  C
  C831     1.0000 0.01361  0.78202  0.02902  Biso   1.000  C
  C832     1.0000 0.80028  0.42495  0.03748  Biso   1.000  C
  C833     1.0000 0.80028  0.42495  0.03744  Biso   1.000  C
  C834     1.0000 0.80023  0.42495  0.03748  Biso   1.000  C
  C835     1.0000 0.80023  0.42495  0.03744  Biso   1.000  C
  H864     1.0000 0.09712  0.49468  0.79240  Biso   1.000  H
  C836     1.0000 0.08820  0.42947  0.85057  Biso   1.000  C
  H865     1.0000 0.09708  0.49468  0.79240  Biso   1.000  H
  H866     1.0000 0.98409  0.78139  0.05821  Biso   1.000  H
  H867     1.0000 0.98409  0.78139  0.05817  Biso   1.000  H
  N160     1.0000 0.05000  0.73314  0.03547  Biso   1.000  N
  H868     1.0000 0.03589  0.81669  0.03401  Biso   1.000  H
  H869     1.0000 0.03589  0.81669  0.03396  Biso   1.000  H
  N161     1.0000 0.04996  0.73314  0.03547  Biso   1.000  N
  H870     1.0000 0.79240  0.40288  0.00532  Biso   1.000  H
  C837     1.0000 0.85057  0.41176  0.07053  Biso   1.000  C
  H871     1.0000 0.79240  0.40288  0.00528  Biso   1.000  H
  C838     1.0000 0.85057  0.41176  0.07048  Biso   1.000  C
  C839     1.0000 0.13414  0.44388  0.88278  Biso   1.000  C
  C840     1.0000 0.05612  0.38274  0.86586  Biso   1.000  C
  C841     1.0000 0.13414  0.44388  0.88274  Biso   1.000  C
  C842     1.0000 0.05608  0.38274  0.86586  Biso   1.000  C
  C843     1.0000 0.03748  0.69972  0.07505  Biso   1.000  C
  C844     1.0000 0.03744  0.69972  0.07505  Biso   1.000  C
  C845     1.0000 0.88278  0.36586  0.05612  Biso   1.000  C
  C846     1.0000 0.86586  0.44388  0.11722  Biso   1.000  C
  C847     1.0000 0.88278  0.36586  0.05608  Biso   1.000  C
  C848     1.0000 0.88274  0.36586  0.05612  Biso   1.000  C
  C849     1.0000 0.88274  0.36586  0.05608  Biso   1.000  C
  C850     1.0000 0.14943  0.41176  0.92947  Biso   1.000  C
  H872     1.0000 0.15558  0.47600  0.87310  Biso   1.000  H
  C851     1.0000 0.14938  0.41176  0.92947  Biso   1.000  C
  C852     1.0000 0.07053  0.35057  0.91180  Biso   1.000  C
  H873     1.0000 0.02400  0.37310  0.84442  Biso   1.000  H
  C853     1.0000 0.07053  0.35057  0.91176  Biso   1.000  C
  H874     1.0000 0.02400  0.37310  0.84438  Biso   1.000  H
  C854     1.0000 0.07048  0.35057  0.91180  Biso   1.000  C
  C855     1.0000 0.07048  0.35057  0.91176  Biso   1.000  C
  H875     1.0000 0.00532  0.70760  0.09712  Biso   1.000  H
  C856     1.0000 0.07053  0.64938  0.08820  Biso   1.000  C
  H876     1.0000 0.00532  0.70760  0.09708  Biso   1.000  H
  H877     1.0000 0.00528  0.70760  0.09712  Biso   1.000  H
  C857     1.0000 0.07048  0.64938  0.08820  Biso   1.000  C
  H878     1.0000 0.00528  0.70760  0.09708  Biso   1.000  H
  C858     1.0000 0.92947  0.35057  0.08820  Biso   1.000  C
  H879     1.0000 0.87310  0.34438  0.02400  Biso   1.000  H
  C859     1.0000 0.91180  0.42947  0.14943  Biso   1.000  C
  H880     1.0000 0.84442  0.47600  0.12690  Biso   1.000  H
  C860     1.0000 0.91180  0.42947  0.14938  Biso   1.000  C
  C861     1.0000 0.91176  0.42947  0.14943  Biso   1.000  C
  H881     1.0000 0.84438  0.47600  0.12690  Biso   1.000  H
  C862     1.0000 0.91176  0.42947  0.14938  Biso   1.000  C
  C863     1.0000 0.19972  0.42495  0.96252  Biso   1.000  C
  C864     1.0000 0.11722  0.36586  0.94388  Biso   1.000  C
  C865     1.0000 0.03748  0.30023  0.92495  Biso   1.000  C
  C866     1.0000 0.03748  0.30023  0.92491  Biso   1.000  C
  C867     1.0000 0.03744  0.30023  0.92495  Biso   1.000  C
  C868     1.0000 0.03744  0.30023  0.92491  Biso   1.000  C
  C869     1.0000 0.05612  0.61722  0.13414  Biso   1.000  C
  C870     1.0000 0.11722  0.63414  0.05612  Biso   1.000  C
  C871     1.0000 0.11722  0.63414  0.05608  Biso   1.000  C
  C872     1.0000 0.05608  0.61722  0.13414  Biso   1.000  C
  C873     1.0000 0.96252  0.30023  0.07505  Biso   1.000  C
  C874     1.0000 0.94388  0.38274  0.13414  Biso   1.000  C
  C875     1.0000 0.92495  0.46252  0.19972  Biso   1.000  C
  C876     1.0000 0.92491  0.46252  0.19972  Biso   1.000  C
  N162     1.0000 0.23314  0.46453  0.95000  Biso   1.000  N
  H882     1.0000 0.20760  0.40288  0.99468  Biso   1.000  H
  N163     1.0000 0.23310  0.46453  0.95000  Biso   1.000  N
  H883     1.0000 0.12690  0.34438  0.97600  Biso   1.000  H
  N164     1.0000 0.05000  0.26686  0.96453  Biso   1.000  N
  H884     1.0000 0.00532  0.29240  0.90288  Biso   1.000  H
  N165     1.0000 0.04996  0.26686  0.96453  Biso   1.000  N
  H885     1.0000 0.00528  0.29240  0.90288  Biso   1.000  H
  C877     1.0000 0.08820  0.57053  0.14943  Biso   1.000  C
  H886     1.0000 0.02400  0.62690  0.15558  Biso   1.000  H
  C878     1.0000 0.08820  0.57053  0.14938  Biso   1.000  C
  C879     1.0000 0.14943  0.58820  0.07053  Biso   1.000  C
  C880     1.0000 0.14943  0.58820  0.07048  Biso   1.000  C
  C881     1.0000 0.14938  0.58820  0.07053  Biso   1.000  C
  C882     1.0000 0.14938  0.58820  0.07048  Biso   1.000  C
  H887     1.0000 0.12690  0.65558  0.02400  Biso   1.000  H
  N166     1.0000 0.95000  0.26686  0.03547  Biso   1.000  N
  H888     1.0000 0.99468  0.29240  0.09712  Biso   1.000  H
  H889     1.0000 0.99468  0.29240  0.09708  Biso   1.000  H
  H890     1.0000 0.97600  0.37310  0.15558  Biso   1.000  H
  N167     1.0000 0.96453  0.45000  0.23314  Biso   1.000  N
  H891     1.0000 0.90288  0.49468  0.20760  Biso   1.000  H
  N168     1.0000 0.96453  0.45000  0.23310  Biso   1.000  N
  C883     1.0000 0.28202  0.47094  0.98639  Biso   1.000  C
  C884     1.0000 0.01361  0.21798  0.97094  Biso   1.000  C
  C885     1.0000 0.13414  0.55608  0.11722  Biso   1.000  C
  C886     1.0000 0.07505  0.53744  0.19972  Biso   1.000  C
  C887     1.0000 0.19972  0.57505  0.03748  Biso   1.000  C
  C888     1.0000 0.19972  0.57505  0.03744  Biso   1.000  C
  C889     1.0000 0.98639  0.21798  0.02906  Biso   1.000  C
  C890     1.0000 0.98639  0.21798  0.02902  Biso   1.000  C
  C891     1.0000 0.97094  0.48639  0.28202  Biso   1.000  C
  H892     1.0000 0.31669  0.46599  0.96411  Biso   1.000  H
  H893     1.0000 0.31669  0.46599  0.96407  Biso   1.000  H
  C892     1.0000 0.28202  0.52902  0.01361  Biso   1.000  C
  H894     1.0000 0.28139  0.44179  0.01591  Biso   1.000  H
  H895     1.0000 0.28139  0.44179  0.01587  Biso   1.000  H
  H896     1.0000 0.98409  0.21861  0.94179  Biso   1.000  H
  H897     1.0000 0.03589  0.18331  0.96599  Biso   1.000  H
  H898     1.0000 0.15558  0.52400  0.12690  Biso   1.000  H
  N169     1.0000 0.03547  0.55000  0.23314  Biso   1.000  N
  H899     1.0000 0.09712  0.50528  0.20760  Biso   1.000  H
  N170     1.0000 0.03547  0.55000  0.23310  Biso   1.000  N
  H900     1.0000 0.09708  0.50528  0.20760  Biso   1.000  H
  N171     1.0000 0.23314  0.53547  0.05000  Biso   1.000  N
  N172     1.0000 0.23314  0.53547  0.04996  Biso   1.000  N
  N173     1.0000 0.23310  0.53547  0.05000  Biso   1.000  N
  N174     1.0000 0.23310  0.53547  0.04996  Biso   1.000  N
  H901     1.0000 0.20760  0.59708  0.00532  Biso   1.000  H
  H902     1.0000 0.20760  0.59708  0.00528  Biso   1.000  H
  H903     1.0000 0.96411  0.18331  0.03401  Biso   1.000  H
  H904     1.0000 0.96411  0.18331  0.03396  Biso   1.000  H
  H905     1.0000 0.96407  0.18331  0.03401  Biso   1.000  H
  H906     1.0000 0.96407  0.18331  0.03396  Biso   1.000  H
  H907     1.0000 0.01591  0.21861  0.05821  Biso   1.000  H
  H908     1.0000 0.01591  0.21861  0.05817  Biso   1.000  H
  H909     1.0000 0.01587  0.21861  0.05821  Biso   1.000  H
  H910     1.0000 0.01587  0.21861  0.05817  Biso   1.000  H
  C893     1.0000 0.02906  0.51361  0.28202  Biso   1.000  C
  C894     1.0000 0.02902  0.51361  0.28202  Biso   1.000  C
  H911     1.0000 0.96599  0.46411  0.31669  Biso   1.000  H
  H912     1.0000 0.94179  0.51587  0.28139  Biso   1.000  H
  H913     1.0000 0.28139  0.55817  0.98409  Biso   1.000  H
  H914     1.0000 0.31669  0.53401  0.03589  Biso   1.000  H
  H915     1.0000 0.03401  0.53589  0.31669  Biso   1.000  H
  H916     1.0000 0.05821  0.48409  0.28139  Biso   1.000  H
  H917     1.0000 0.03396  0.53589  0.31669  Biso   1.000  H
  H918     1.0000 0.05817  0.48409  0.28139  Biso   1.000  H
  C895     1.0000 0.86586  0.55608  0.88274  Biso   1.000  C
  C896     1.0000 0.85057  0.58820  0.92947  Biso   1.000  C
  C897     1.0000 0.91180  0.57053  0.85057  Biso   1.000  C
  H919     1.0000 0.84442  0.52400  0.87310  Biso   1.000  H
  C898     1.0000 0.91176  0.57053  0.85057  Biso   1.000  C
  H920     1.0000 0.84438  0.52400  0.87310  Biso   1.000  H
  C899     1.0000 0.80028  0.57505  0.96252  Biso   1.000  C
  C900     1.0000 0.80023  0.57505  0.96252  Biso   1.000  C
  C901     1.0000 0.88278  0.63414  0.94388  Biso   1.000  C
  C902     1.0000 0.86586  0.55608  0.88278  Biso   1.000  C
  C903     1.0000 0.88274  0.63414  0.94388  Biso   1.000  C
  C904     1.0000 0.94388  0.61722  0.86586  Biso   1.000  C
  C905     1.0000 0.92495  0.53744  0.80028  Biso   1.000  C
  C906     1.0000 0.92495  0.53744  0.80023  Biso   1.000  C
  C907     1.0000 0.92491  0.53744  0.80028  Biso   1.000  C
  C908     1.0000 0.92491  0.53744  0.80023  Biso   1.000  C
  N175     1.0000 0.76686  0.53547  0.95000  Biso   1.000  N
  H921     1.0000 0.79240  0.59708  0.99468  Biso   1.000  H
  H922     1.0000 0.87310  0.65558  0.97600  Biso   1.000  H
  C909     1.0000 0.92947  0.64938  0.91180  Biso   1.000  C
  C910     1.0000 0.92947  0.64938  0.91176  Biso   1.000  C
  H923     1.0000 0.97600  0.62690  0.84442  Biso   1.000  H
  H924     1.0000 0.97600  0.62690  0.84438  Biso   1.000  H
  N176     1.0000 0.96453  0.55000  0.76686  Biso   1.000  N
  H925     1.0000 0.90288  0.50528  0.79240  Biso   1.000  H
  C911     1.0000 0.71798  0.52902  0.98639  Biso   1.000  C
  C912     1.0000 0.71794  0.52902  0.98639  Biso   1.000  C
  C913     1.0000 0.96252  0.69972  0.92495  Biso   1.000  C
  C914     1.0000 0.96252  0.69972  0.92491  Biso   1.000  C
  C915     1.0000 0.97094  0.51361  0.71798  Biso   1.000  C
  C916     1.0000 0.97094  0.51361  0.71794  Biso   1.000  C
  H926     1.0000 0.68331  0.53401  0.96411  Biso   1.000  H
  H927     1.0000 0.68331  0.53401  0.96407  Biso   1.000  H
  C917     1.0000 0.71798  0.47094  0.01361  Biso   1.000  C
  H928     1.0000 0.71861  0.55817  0.01591  Biso   1.000  H
  H929     1.0000 0.71861  0.55817  0.01587  Biso   1.000  H
  C918     1.0000 0.71794  0.47094  0.01361  Biso   1.000  C
  H930     1.0000 0.71857  0.55817  0.01591  Biso   1.000  H
  H931     1.0000 0.71857  0.55817  0.01587  Biso   1.000  H
  N177     1.0000 0.95000  0.73314  0.96453  Biso   1.000  N
  H932     1.0000 0.99468  0.70760  0.90288  Biso   1.000  H
  H933     1.0000 0.96599  0.53589  0.68331  Biso   1.000  H
  H934     1.0000 0.94179  0.48409  0.71861  Biso   1.000  H
  H935     1.0000 0.94179  0.48409  0.71857  Biso   1.000  H
  C919     1.0000 0.02906  0.48639  0.71798  Biso   1.000  C
  C920     1.0000 0.02906  0.48639  0.71794  Biso   1.000  C
  C921     1.0000 0.02902  0.48639  0.71798  Biso   1.000  C
  C922     1.0000 0.02902  0.48639  0.71794  Biso   1.000  C
  H936     1.0000 0.71861  0.44179  0.98409  Biso   1.000  H
  H937     1.0000 0.71857  0.44179  0.98409  Biso   1.000  H
  N178     1.0000 0.76686  0.46453  0.05000  Biso   1.000  N
  H938     1.0000 0.68331  0.46599  0.03589  Biso   1.000  H
  N179     1.0000 0.76686  0.46453  0.04996  Biso   1.000  N
  C923     1.0000 0.98639  0.78202  0.97094  Biso   1.000  C
  N180     1.0000 0.03547  0.45000  0.76686  Biso   1.000  N
  H939     1.0000 0.03401  0.46411  0.68331  Biso   1.000  H
  H940     1.0000 0.05821  0.51587  0.71861  Biso   1.000  H
  H941     1.0000 0.05821  0.51587  0.71857  Biso   1.000  H
  H942     1.0000 0.03396  0.46411  0.68331  Biso   1.000  H
  H943     1.0000 0.05817  0.51587  0.71861  Biso   1.000  H
  H944     1.0000 0.05817  0.51587  0.71857  Biso   1.000  H
  C924     1.0000 0.80028  0.42495  0.03748  Biso   1.000  C
  C925     1.0000 0.80028  0.42495  0.03744  Biso   1.000  C
  C926     1.0000 0.80023  0.42495  0.03748  Biso   1.000  C
  C927     1.0000 0.80023  0.42495  0.03744  Biso   1.000  C
  H945     1.0000 0.96411  0.81669  0.96599  Biso   1.000  H
  H946     1.0000 0.96407  0.81669  0.96599  Biso   1.000  H
  H947     1.0000 0.01591  0.78139  0.94179  Biso   1.000  H
  H948     1.0000 0.01587  0.78139  0.94179  Biso   1.000  H
  C928     1.0000 0.01361  0.78202  0.02906  Biso   1.000  C
  C929     1.0000 0.01361  0.78202  0.02902  Biso   1.000  C
  C930     1.0000 0.07505  0.46252  0.80028  Biso   1.000  C
  C931     1.0000 0.07505  0.46252  0.80023  Biso   1.000  C
  H949     1.0000 0.79240  0.40288  0.00532  Biso   1.000  H
  C932     1.0000 0.85057  0.41176  0.07053  Biso   1.000  C
  H950     1.0000 0.79240  0.40288  0.00528  Biso   1.000  H
  C933     1.0000 0.85057  0.41176  0.07048  Biso   1.000  C
  H951     1.0000 0.98409  0.78139  0.05821  Biso   1.000  H
  H952     1.0000 0.98409  0.78139  0.05817  Biso   1.000  H
  N181     1.0000 0.05000  0.73314  0.03547  Biso   1.000  N
  H953     1.0000 0.03589  0.81669  0.03401  Biso   1.000  H
  H954     1.0000 0.03589  0.81669  0.03396  Biso   1.000  H
  N182     1.0000 0.04996  0.73314  0.03547  Biso   1.000  N
  H955     1.0000 0.09712  0.49468  0.79240  Biso   1.000  H
  C934     1.0000 0.08820  0.42947  0.85057  Biso   1.000  C
  H956     1.0000 0.09708  0.49468  0.79240  Biso   1.000  H
  C935     1.0000 0.88278  0.36586  0.05612  Biso   1.000  C
  C936     1.0000 0.86586  0.44388  0.11722  Biso   1.000  C
  C937     1.0000 0.88278  0.36586  0.05608  Biso   1.000  C
  C938     1.0000 0.88274  0.36586  0.05612  Biso   1.000  C
  C939     1.0000 0.88274  0.36586  0.05608  Biso   1.000  C
  C940     1.0000 0.03748  0.69972  0.07505  Biso   1.000  C
  C941     1.0000 0.03744  0.69972  0.07505  Biso   1.000  C
  C942     1.0000 0.13414  0.44388  0.88278  Biso   1.000  C
  C943     1.0000 0.05612  0.38274  0.86586  Biso   1.000  C
  C944     1.0000 0.13414  0.44388  0.88274  Biso   1.000  C
  C945     1.0000 0.05608  0.38274  0.86586  Biso   1.000  C
  C946     1.0000 0.92947  0.35057  0.08820  Biso   1.000  C
  H957     1.0000 0.87310  0.34438  0.02400  Biso   1.000  H
  C947     1.0000 0.91180  0.42947  0.14943  Biso   1.000  C
  H958     1.0000 0.84442  0.47600  0.12690  Biso   1.000  H
  C948     1.0000 0.91180  0.42947  0.14938  Biso   1.000  C
  C949     1.0000 0.91176  0.42947  0.14943  Biso   1.000  C
  H959     1.0000 0.84438  0.47600  0.12690  Biso   1.000  H
  C950     1.0000 0.91176  0.42947  0.14938  Biso   1.000  C
  H960     1.0000 0.00532  0.70760  0.09712  Biso   1.000  H
  C951     1.0000 0.07053  0.64938  0.08820  Biso   1.000  C
  H961     1.0000 0.00532  0.70760  0.09708  Biso   1.000  H
  H962     1.0000 0.00528  0.70760  0.09712  Biso   1.000  H
  C952     1.0000 0.07048  0.64938  0.08820  Biso   1.000  C
  H963     1.0000 0.00528  0.70760  0.09708  Biso   1.000  H
  C953     1.0000 0.14943  0.41176  0.92947  Biso   1.000  C
  H964     1.0000 0.15558  0.47600  0.87310  Biso   1.000  H
  C954     1.0000 0.14938  0.41176  0.92947  Biso   1.000  C
  C955     1.0000 0.07053  0.35057  0.91180  Biso   1.000  C
  H965     1.0000 0.02400  0.37310  0.84442  Biso   1.000  H
  C956     1.0000 0.07053  0.35057  0.91176  Biso   1.000  C
  H966     1.0000 0.02400  0.37310  0.84438  Biso   1.000  H
  C957     1.0000 0.07048  0.35057  0.91180  Biso   1.000  C
  C958     1.0000 0.07048  0.35057  0.91176  Biso   1.000  C
  C959     1.0000 0.96252  0.30023  0.07505  Biso   1.000  C
  C960     1.0000 0.94388  0.38274  0.13414  Biso   1.000  C
  C961     1.0000 0.92495  0.46252  0.19972  Biso   1.000  C
  C962     1.0000 0.92491  0.46252  0.19972  Biso   1.000  C
  C963     1.0000 0.05612  0.61722  0.13414  Biso   1.000  C
  C964     1.0000 0.11722  0.63414  0.05612  Biso   1.000  C
  C965     1.0000 0.11722  0.63414  0.05608  Biso   1.000  C
  C966     1.0000 0.05608  0.61722  0.13414  Biso   1.000  C
  C967     1.0000 0.19972  0.42495  0.96252  Biso   1.000  C
  C968     1.0000 0.11722  0.36586  0.94388  Biso   1.000  C
  C969     1.0000 0.03748  0.30023  0.92495  Biso   1.000  C
  C970     1.0000 0.03748  0.30023  0.92491  Biso   1.000  C
  C971     1.0000 0.03744  0.30023  0.92495  Biso   1.000  C
  C972     1.0000 0.03744  0.30023  0.92491  Biso   1.000  C
  N183     1.0000 0.95000  0.26686  0.03547  Biso   1.000  N
  H967     1.0000 0.99468  0.29240  0.09712  Biso   1.000  H
  H968     1.0000 0.99468  0.29240  0.09708  Biso   1.000  H
  H969     1.0000 0.97600  0.37310  0.15558  Biso   1.000  H
  N184     1.0000 0.96453  0.45000  0.23314  Biso   1.000  N
  H970     1.0000 0.90288  0.49468  0.20760  Biso   1.000  H
  N185     1.0000 0.96453  0.45000  0.23310  Biso   1.000  N
  C973     1.0000 0.08820  0.57053  0.14943  Biso   1.000  C
  H971     1.0000 0.02400  0.62690  0.15558  Biso   1.000  H
  C974     1.0000 0.08820  0.57053  0.14938  Biso   1.000  C
  C975     1.0000 0.14943  0.58820  0.07053  Biso   1.000  C
  H972     1.0000 0.12690  0.65558  0.02400  Biso   1.000  H
  C976     1.0000 0.14943  0.58820  0.07048  Biso   1.000  C
  C977     1.0000 0.14938  0.58820  0.07053  Biso   1.000  C
  C978     1.0000 0.14938  0.58820  0.07048  Biso   1.000  C
  N186     1.0000 0.23314  0.46453  0.95000  Biso   1.000  N
  H973     1.0000 0.20760  0.40288  0.99468  Biso   1.000  H
  N187     1.0000 0.23310  0.46453  0.95000  Biso   1.000  N
  H974     1.0000 0.12690  0.34438  0.97600  Biso   1.000  H
  N188     1.0000 0.05000  0.26686  0.96453  Biso   1.000  N
  N189     1.0000 0.04996  0.26686  0.96453  Biso   1.000  N
  H975     1.0000 0.00532  0.29240  0.90288  Biso   1.000  H
  H976     1.0000 0.00528  0.29240  0.90288  Biso   1.000  H
  C979     1.0000 0.98639  0.21798  0.02906  Biso   1.000  C
  C980     1.0000 0.98639  0.21798  0.02902  Biso   1.000  C
  C981     1.0000 0.97094  0.48639  0.28202  Biso   1.000  C
  C982     1.0000 0.07505  0.53744  0.19972  Biso   1.000  C
  C983     1.0000 0.13414  0.55608  0.11722  Biso   1.000  C
  C984     1.0000 0.19972  0.57505  0.03748  Biso   1.000  C
  C985     1.0000 0.19972  0.57505  0.03744  Biso   1.000  C
  C986     1.0000 0.28202  0.47094  0.98639  Biso   1.000  C
  C987     1.0000 0.01361  0.21798  0.97094  Biso   1.000  C
  H977     1.0000 0.96411  0.18331  0.03401  Biso   1.000  H
  H978     1.0000 0.96411  0.18331  0.03396  Biso   1.000  H
  H979     1.0000 0.96407  0.18331  0.03401  Biso   1.000  H
  H980     1.0000 0.96407  0.18331  0.03396  Biso   1.000  H
  H981     1.0000 0.01591  0.21861  0.05821  Biso   1.000  H
  H982     1.0000 0.01591  0.21861  0.05817  Biso   1.000  H
  H983     1.0000 0.01587  0.21861  0.05821  Biso   1.000  H
  H984     1.0000 0.01587  0.21861  0.05817  Biso   1.000  H
  H985     1.0000 0.96599  0.46411  0.31669  Biso   1.000  H
  H986     1.0000 0.94179  0.51587  0.28139  Biso   1.000  H
  C988     1.0000 0.02906  0.51361  0.28202  Biso   1.000  C
  C989     1.0000 0.02902  0.51361  0.28202  Biso   1.000  C
  N190     1.0000 0.03547  0.55000  0.23314  Biso   1.000  N
  N191     1.0000 0.03547  0.55000  0.23310  Biso   1.000  N
  H987     1.0000 0.09712  0.50528  0.20760  Biso   1.000  H
  H988     1.0000 0.09708  0.50528  0.20760  Biso   1.000  H
  H989     1.0000 0.15558  0.52400  0.12690  Biso   1.000  H
  N192     1.0000 0.23314  0.53547  0.05000  Biso   1.000  N
  H990     1.0000 0.20760  0.59708  0.00532  Biso   1.000  H
  N193     1.0000 0.23314  0.53547  0.04996  Biso   1.000  N
  H991     1.0000 0.20760  0.59708  0.00528  Biso   1.000  H
  N194     1.0000 0.23310  0.53547  0.05000  Biso   1.000  N
  N195     1.0000 0.23310  0.53547  0.04996  Biso   1.000  N
  C990     1.0000 0.28202  0.52902  0.01361  Biso   1.000  C
  H992     1.0000 0.31669  0.46599  0.96411  Biso   1.000  H
  H993     1.0000 0.31669  0.46599  0.96407  Biso   1.000  H
  H994     1.0000 0.28139  0.44179  0.01591  Biso   1.000  H
  H995     1.0000 0.28139  0.44179  0.01587  Biso   1.000  H
  H996     1.0000 0.98409  0.21861  0.94179  Biso   1.000  H
  H997     1.0000 0.03589  0.18331  0.96599  Biso   1.000  H
  H998     1.0000 0.03401  0.53589  0.31669  Biso   1.000  H
  H999     1.0000 0.05821  0.48409  0.28139  Biso   1.000  H
  H1000    1.0000 0.03396  0.53589  0.31669  Biso   1.000  H
  H1001    1.0000 0.05817  0.48409  0.28139  Biso   1.000  H
  H1002    1.0000 0.28139  0.55817  0.98409  Biso   1.000  H
  H1003    1.0000 0.31669  0.53401  0.03589  Biso   1.000  H
  C991     1.0000 0.86586  0.55608  0.88274  Biso   1.000  C
  C992     1.0000 0.85057  0.58820  0.92947  Biso   1.000  C
  C993     1.0000 0.91180  0.57053  0.85057  Biso   1.000  C
  H1004    1.0000 0.84442  0.52400  0.87310  Biso   1.000  H
  C994     1.0000 0.91176  0.57053  0.85057  Biso   1.000  C
  H1005    1.0000 0.84438  0.52400  0.87310  Biso   1.000  H
  C995     1.0000 0.80028  0.57505  0.96252  Biso   1.000  C
  C996     1.0000 0.80023  0.57505  0.96252  Biso   1.000  C
  C997     1.0000 0.88278  0.63414  0.94388  Biso   1.000  C
  C998     1.0000 0.86586  0.55608  0.88278  Biso   1.000  C
  C999     1.0000 0.88274  0.63414  0.94388  Biso   1.000  C
  C1000    1.0000 0.94388  0.61722  0.86586  Biso   1.000  C
  C1001    1.0000 0.92495  0.53744  0.80028  Biso   1.000  C
  C1002    1.0000 0.92495  0.53744  0.80023  Biso   1.000  C
  C1003    1.0000 0.92491  0.53744  0.80028  Biso   1.000  C
  C1004    1.0000 0.92491  0.53744  0.80023  Biso   1.000  C
  N196     1.0000 0.76686  0.53547  0.95000  Biso   1.000  N
  H1006    1.0000 0.79240  0.59708  0.99468  Biso   1.000  H
  H1007    1.0000 0.87310  0.65558  0.97600  Biso   1.000  H
  C1005    1.0000 0.92947  0.64938  0.91180  Biso   1.000  C
  C1006    1.0000 0.92947  0.64938  0.91176  Biso   1.000  C
  H1008    1.0000 0.97600  0.62690  0.84442  Biso   1.000  H
  H1009    1.0000 0.97600  0.62690  0.84438  Biso   1.000  H
  N197     1.0000 0.96453  0.55000  0.76686  Biso   1.000  N
  H1010    1.0000 0.90288  0.50528  0.79240  Biso   1.000  H
  C1007    1.0000 0.71798  0.52902  0.98639  Biso   1.000  C
  C1008    1.0000 0.71794  0.52902  0.98639  Biso   1.000  C
  C1009    1.0000 0.96252  0.69972  0.92495  Biso   1.000  C
  C1010    1.0000 0.96252  0.69972  0.92491  Biso   1.000  C
  C1011    1.0000 0.97094  0.51361  0.71798  Biso   1.000  C
  C1012    1.0000 0.97094  0.51361  0.71794  Biso   1.000  C
  H1011    1.0000 0.68331  0.53401  0.96411  Biso   1.000  H
  H1012    1.0000 0.68331  0.53401  0.96407  Biso   1.000  H
  C1013    1.0000 0.71798  0.47094  0.01361  Biso   1.000  C
  H1013    1.0000 0.71861  0.55817  0.01591  Biso   1.000  H
  H1014    1.0000 0.71861  0.55817  0.01587  Biso   1.000  H
  C1014    1.0000 0.71794  0.47094  0.01361  Biso   1.000  C
  H1015    1.0000 0.71857  0.55817  0.01591  Biso   1.000  H
  H1016    1.0000 0.71857  0.55817  0.01587  Biso   1.000  H
  N198     1.0000 0.95000  0.73314  0.96453  Biso   1.000  N
  H1017    1.0000 0.99468  0.70760  0.90288  Biso   1.000  H
  H1018    1.0000 0.96599  0.53589  0.68331  Biso   1.000  H
  H1019    1.0000 0.94179  0.48409  0.71861  Biso   1.000  H
  H1020    1.0000 0.94179  0.48409  0.71857  Biso   1.000  H
  C1015    1.0000 0.02906  0.48639  0.71798  Biso   1.000  C
  C1016    1.0000 0.02906  0.48639  0.71794  Biso   1.000  C
  C1017    1.0000 0.02902  0.48639  0.71798  Biso   1.000  C
  C1018    1.0000 0.02902  0.48639  0.71794  Biso   1.000  C
  H1021    1.0000 0.71861  0.44179  0.98409  Biso   1.000  H
  H1022    1.0000 0.71857  0.44179  0.98409  Biso   1.000  H
  N199     1.0000 0.76686  0.46453  0.05000  Biso   1.000  N
  H1023    1.0000 0.68331  0.46599  0.03589  Biso   1.000  H
  N200     1.0000 0.76686  0.46453  0.04996  Biso   1.000  N
  C1019    1.0000 0.98639  0.78202  0.97094  Biso   1.000  C
  N201     1.0000 0.03547  0.45000  0.76686  Biso   1.000  N
  H1024    1.0000 0.03401  0.46411  0.68331  Biso   1.000  H
  H1025    1.0000 0.05821  0.51587  0.71861  Biso   1.000  H
  H1026    1.0000 0.05821  0.51587  0.71857  Biso   1.000  H
  H1027    1.0000 0.03396  0.46411  0.68331  Biso   1.000  H
  H1028    1.0000 0.05817  0.51587  0.71861  Biso   1.000  H
  H1029    1.0000 0.05817  0.51587  0.71857  Biso   1.000  H
  C1020    1.0000 0.80028  0.42495  0.03748  Biso   1.000  C
  C1021    1.0000 0.80028  0.42495  0.03744  Biso   1.000  C
  C1022    1.0000 0.80023  0.42495  0.03748  Biso   1.000  C
  C1023    1.0000 0.80023  0.42495  0.03744  Biso   1.000  C
  H1030    1.0000 0.96411  0.81669  0.96599  Biso   1.000  H
  H1031    1.0000 0.96407  0.81669  0.96599  Biso   1.000  H
  H1032    1.0000 0.01591  0.78139  0.94179  Biso   1.000  H
  H1033    1.0000 0.01587  0.78139  0.94179  Biso   1.000  H
  C1024    1.0000 0.01361  0.78202  0.02906  Biso   1.000  C
  C1025    1.0000 0.01361  0.78202  0.02902  Biso   1.000  C
  C1026    1.0000 0.07505  0.46252  0.80028  Biso   1.000  C
  C1027    1.0000 0.07505  0.46252  0.80023  Biso   1.000  C
  H1034    1.0000 0.79240  0.40288  0.00532  Biso   1.000  H
  C1028    1.0000 0.85057  0.41176  0.07053  Biso   1.000  C
  H1035    1.0000 0.79240  0.40288  0.00528  Biso   1.000  H
  C1029    1.0000 0.85057  0.41176  0.07048  Biso   1.000  C
  H1036    1.0000 0.98409  0.78139  0.05821  Biso   1.000  H
  H1037    1.0000 0.98409  0.78139  0.05817  Biso   1.000  H
  N202     1.0000 0.05000  0.73314  0.03547  Biso   1.000  N
  H1038    1.0000 0.03589  0.81669  0.03401  Biso   1.000  H
  H1039    1.0000 0.03589  0.81669  0.03396  Biso   1.000  H
  N203     1.0000 0.04996  0.73314  0.03547  Biso   1.000  N
  H1040    1.0000 0.09712  0.49468  0.79240  Biso   1.000  H
  C1030    1.0000 0.08820  0.42947  0.85057  Biso   1.000  C
  H1041    1.0000 0.09708  0.49468  0.79240  Biso   1.000  H
  C1031    1.0000 0.88278  0.36586  0.05612  Biso   1.000  C
  C1032    1.0000 0.86586  0.44388  0.11722  Biso   1.000  C
  C1033    1.0000 0.88278  0.36586  0.05608  Biso   1.000  C
  C1034    1.0000 0.88274  0.36586  0.05612  Biso   1.000  C
  C1035    1.0000 0.88274  0.36586  0.05608  Biso   1.000  C
  C1036    1.0000 0.03748  0.69972  0.07505  Biso   1.000  C
  C1037    1.0000 0.03744  0.69972  0.07505  Biso   1.000  C
  C1038    1.0000 0.13414  0.44388  0.88278  Biso   1.000  C
  C1039    1.0000 0.05612  0.38274  0.86586  Biso   1.000  C
  C1040    1.0000 0.13414  0.44388  0.88274  Biso   1.000  C
  C1041    1.0000 0.05608  0.38274  0.86586  Biso   1.000  C
  C1042    1.0000 0.92947  0.35057  0.08820  Biso   1.000  C
  H1042    1.0000 0.87310  0.34438  0.02400  Biso   1.000  H
  C1043    1.0000 0.91180  0.42947  0.14943  Biso   1.000  C
  H1043    1.0000 0.84442  0.47600  0.12690  Biso   1.000  H
  C1044    1.0000 0.91180  0.42947  0.14938  Biso   1.000  C
  C1045    1.0000 0.91176  0.42947  0.14943  Biso   1.000  C
  H1044    1.0000 0.84438  0.47600  0.12690  Biso   1.000  H
  C1046    1.0000 0.91176  0.42947  0.14938  Biso   1.000  C
  H1045    1.0000 0.00532  0.70760  0.09712  Biso   1.000  H
  C1047    1.0000 0.07053  0.64938  0.08820  Biso   1.000  C
  H1046    1.0000 0.00532  0.70760  0.09708  Biso   1.000  H
  H1047    1.0000 0.00528  0.70760  0.09712  Biso   1.000  H
  C1048    1.0000 0.07048  0.64938  0.08820  Biso   1.000  C
  H1048    1.0000 0.00528  0.70760  0.09708  Biso   1.000  H
  C1049    1.0000 0.14943  0.41176  0.92947  Biso   1.000  C
  H1049    1.0000 0.15558  0.47600  0.87310  Biso   1.000  H
  C1050    1.0000 0.14938  0.41176  0.92947  Biso   1.000  C
  C1051    1.0000 0.07053  0.35057  0.91180  Biso   1.000  C
  H1050    1.0000 0.02400  0.37310  0.84442  Biso   1.000  H
  C1052    1.0000 0.07053  0.35057  0.91176  Biso   1.000  C
  H1051    1.0000 0.02400  0.37310  0.84438  Biso   1.000  H
  C1053    1.0000 0.07048  0.35057  0.91180  Biso   1.000  C
  C1054    1.0000 0.07048  0.35057  0.91176  Biso   1.000  C
  C1055    1.0000 0.96252  0.30023  0.07505  Biso   1.000  C
  C1056    1.0000 0.94388  0.38274  0.13414  Biso   1.000  C
  C1057    1.0000 0.92495  0.46252  0.19972  Biso   1.000  C
  C1058    1.0000 0.92491  0.46252  0.19972  Biso   1.000  C
  C1059    1.0000 0.05612  0.61722  0.13414  Biso   1.000  C
  C1060    1.0000 0.11722  0.63414  0.05612  Biso   1.000  C
  C1061    1.0000 0.11722  0.63414  0.05608  Biso   1.000  C
  C1062    1.0000 0.05608  0.61722  0.13414  Biso   1.000  C
  C1063    1.0000 0.19972  0.42495  0.96252  Biso   1.000  C
  C1064    1.0000 0.11722  0.36586  0.94388  Biso   1.000  C
  C1065    1.0000 0.03748  0.30023  0.92495  Biso   1.000  C
  C1066    1.0000 0.03748  0.30023  0.92491  Biso   1.000  C
  C1067    1.0000 0.03744  0.30023  0.92495  Biso   1.000  C
  C1068    1.0000 0.03744  0.30023  0.92491  Biso   1.000  C
  N204     1.0000 0.95000  0.26686  0.03547  Biso   1.000  N
  H1052    1.0000 0.99468  0.29240  0.09712  Biso   1.000  H
  H1053    1.0000 0.99468  0.29240  0.09708  Biso   1.000  H
  H1054    1.0000 0.97600  0.37310  0.15558  Biso   1.000  H
  N205     1.0000 0.96453  0.45000  0.23314  Biso   1.000  N
  H1055    1.0000 0.90288  0.49468  0.20760  Biso   1.000  H
  N206     1.0000 0.96453  0.45000  0.23310  Biso   1.000  N
  C1069    1.0000 0.08820  0.57053  0.14943  Biso   1.000  C
  H1056    1.0000 0.02400  0.62690  0.15558  Biso   1.000  H
  C1070    1.0000 0.08820  0.57053  0.14938  Biso   1.000  C
  C1071    1.0000 0.14943  0.58820  0.07053  Biso   1.000  C
  H1057    1.0000 0.12690  0.65558  0.02400  Biso   1.000  H
  C1072    1.0000 0.14943  0.58820  0.07048  Biso   1.000  C
  C1073    1.0000 0.14938  0.58820  0.07053  Biso   1.000  C
  C1074    1.0000 0.14938  0.58820  0.07048  Biso   1.000  C
  N207     1.0000 0.23314  0.46453  0.95000  Biso   1.000  N
  H1058    1.0000 0.20760  0.40288  0.99468  Biso   1.000  H
  N208     1.0000 0.23310  0.46453  0.95000  Biso   1.000  N
  H1059    1.0000 0.12690  0.34438  0.97600  Biso   1.000  H
  N209     1.0000 0.05000  0.26686  0.96453  Biso   1.000  N
  N210     1.0000 0.04996  0.26686  0.96453  Biso   1.000  N
  H1060    1.0000 0.00532  0.29240  0.90288  Biso   1.000  H
  H1061    1.0000 0.00528  0.29240  0.90288  Biso   1.000  H
  C1075    1.0000 0.98639  0.21798  0.02906  Biso   1.000  C
  C1076    1.0000 0.98639  0.21798  0.02902  Biso   1.000  C
  C1077    1.0000 0.97094  0.48639  0.28202  Biso   1.000  C
  C1078    1.0000 0.07505  0.53744  0.19972  Biso   1.000  C
  C1079    1.0000 0.13414  0.55608  0.11722  Biso   1.000  C
  C1080    1.0000 0.19972  0.57505  0.03748  Biso   1.000  C
  C1081    1.0000 0.19972  0.57505  0.03744  Biso   1.000  C
  C1082    1.0000 0.28202  0.47094  0.98639  Biso   1.000  C
  C1083    1.0000 0.01361  0.21798  0.97094  Biso   1.000  C
  H1062    1.0000 0.96411  0.18331  0.03401  Biso   1.000  H
  H1063    1.0000 0.96411  0.18331  0.03396  Biso   1.000  H
  H1064    1.0000 0.96407  0.18331  0.03401  Biso   1.000  H
  H1065    1.0000 0.96407  0.18331  0.03396  Biso   1.000  H
  H1066    1.0000 0.01591  0.21861  0.05821  Biso   1.000  H
  H1067    1.0000 0.01591  0.21861  0.05817  Biso   1.000  H
  H1068    1.0000 0.01587  0.21861  0.05821  Biso   1.000  H
  H1069    1.0000 0.01587  0.21861  0.05817  Biso   1.000  H
  H1070    1.0000 0.96599  0.46411  0.31669  Biso   1.000  H
  H1071    1.0000 0.94179  0.51587  0.28139  Biso   1.000  H
  C1084    1.0000 0.02906  0.51361  0.28202  Biso   1.000  C
  C1085    1.0000 0.02902  0.51361  0.28202  Biso   1.000  C
  N211     1.0000 0.03547  0.55000  0.23314  Biso   1.000  N
  N212     1.0000 0.03547  0.55000  0.23310  Biso   1.000  N
  H1072    1.0000 0.09712  0.50528  0.20760  Biso   1.000  H
  H1073    1.0000 0.09708  0.50528  0.20760  Biso   1.000  H
  H1074    1.0000 0.15558  0.52400  0.12690  Biso   1.000  H
  N213     1.0000 0.23314  0.53547  0.05000  Biso   1.000  N
  H1075    1.0000 0.20760  0.59708  0.00532  Biso   1.000  H
  N214     1.0000 0.23314  0.53547  0.04996  Biso   1.000  N
  H1076    1.0000 0.20760  0.59708  0.00528  Biso   1.000  H
  N215     1.0000 0.23310  0.53547  0.05000  Biso   1.000  N
  N216     1.0000 0.23310  0.53547  0.04996  Biso   1.000  N
  C1086    1.0000 0.28202  0.52902  0.01361  Biso   1.000  C
  H1077    1.0000 0.31669  0.46599  0.96411  Biso   1.000  H
  H1078    1.0000 0.31669  0.46599  0.96407  Biso   1.000  H
  H1079    1.0000 0.28139  0.44179  0.01591  Biso   1.000  H
  H1080    1.0000 0.28139  0.44179  0.01587  Biso   1.000  H
  H1081    1.0000 0.98409  0.21861  0.94179  Biso   1.000  H
  H1082    1.0000 0.03589  0.18331  0.96599  Biso   1.000  H
  H1083    1.0000 0.03401  0.53589  0.31669  Biso   1.000  H
  H1084    1.0000 0.05821  0.48409  0.28139  Biso   1.000  H
  H1085    1.0000 0.03396  0.53589  0.31669  Biso   1.000  H
  H1086    1.0000 0.05817  0.48409  0.28139  Biso   1.000  H
  H1087    1.0000 0.28139  0.55817  0.98409  Biso   1.000  H
  H1088    1.0000 0.31669  0.53401  0.03589  Biso   1.000  H
  C1087    1.0000 0.55608  0.88274  0.86586  Biso   1.000  C
  C1088    1.0000 0.57053  0.85057  0.91180  Biso   1.000  C
  C1089    1.0000 0.57053  0.85057  0.91176  Biso   1.000  C
  C1090    1.0000 0.58820  0.92947  0.85057  Biso   1.000  C
  H1089    1.0000 0.52400  0.87310  0.84442  Biso   1.000  H
  H1090    1.0000 0.52400  0.87310  0.84438  Biso   1.000  H
  C1091    1.0000 0.53744  0.80028  0.92495  Biso   1.000  C
  C1092    1.0000 0.53744  0.80028  0.92491  Biso   1.000  C
  C1093    1.0000 0.53744  0.80023  0.92495  Biso   1.000  C
  C1094    1.0000 0.53744  0.80023  0.92491  Biso   1.000  C
  C1095    1.0000 0.55608  0.88278  0.86586  Biso   1.000  C
  C1096    1.0000 0.61722  0.86586  0.94388  Biso   1.000  C
  C1097    1.0000 0.57505  0.96252  0.80028  Biso   1.000  C
  C1098    1.0000 0.63414  0.94388  0.88278  Biso   1.000  C
  C1099    1.0000 0.57505  0.96252  0.80023  Biso   1.000  C
  C1100    1.0000 0.63414  0.94388  0.88274  Biso   1.000  C
  N217     1.0000 0.55000  0.76686  0.96453  Biso   1.000  N
  H1091    1.0000 0.50528  0.79240  0.90288  Biso   1.000  H
  C1101    1.0000 0.64938  0.91180  0.92947  Biso   1.000  C
  H1092    1.0000 0.62690  0.84442  0.97600  Biso   1.000  H
  C1102    1.0000 0.64938  0.91176  0.92947  Biso   1.000  C
  H1093    1.0000 0.62690  0.84438  0.97600  Biso   1.000  H
  N218     1.0000 0.53547  0.95000  0.76686  Biso   1.000  N
  H1094    1.0000 0.59708  0.99468  0.79240  Biso   1.000  H
  H1095    1.0000 0.65558  0.97600  0.87310  Biso   1.000  H
  C1103    1.0000 0.51361  0.71794  0.97094  Biso   1.000  C
  C1104    1.0000 0.51361  0.71798  0.97094  Biso   1.000  C
  C1105    1.0000 0.69972  0.92495  0.96252  Biso   1.000  C
  C1106    1.0000 0.69972  0.92491  0.96252  Biso   1.000  C
  C1107    1.0000 0.52902  0.98639  0.71798  Biso   1.000  C
  C1108    1.0000 0.52902  0.98639  0.71794  Biso   1.000  C
  H1096    1.0000 0.53589  0.68331  0.96599  Biso   1.000  H
  H1097    1.0000 0.48409  0.71861  0.94179  Biso   1.000  H
  H1098    1.0000 0.48409  0.71857  0.94179  Biso   1.000  H
  C1109    1.0000 0.48639  0.71798  0.02906  Biso   1.000  C
  C1110    1.0000 0.48639  0.71798  0.02902  Biso   1.000  C
  C1111    1.0000 0.48639  0.71794  0.02906  Biso   1.000  C
  C1112    1.0000 0.48639  0.71794  0.02902  Biso   1.000  C
  N219     1.0000 0.73314  0.96453  0.95000  Biso   1.000  N
  H1099    1.0000 0.70760  0.90288  0.99468  Biso   1.000  H
  H1100    1.0000 0.53401  0.96411  0.68331  Biso   1.000  H
  H1101    1.0000 0.53401  0.96407  0.68331  Biso   1.000  H
  C1113    1.0000 0.47094  0.01361  0.71798  Biso   1.000  C
  H1102    1.0000 0.55817  0.01591  0.71861  Biso   1.000  H
  C1114    1.0000 0.47094  0.01361  0.71794  Biso   1.000  C
  H1103    1.0000 0.55817  0.01591  0.71857  Biso   1.000  H
  H1104    1.0000 0.55817  0.01587  0.71861  Biso   1.000  H
  H1105    1.0000 0.55817  0.01587  0.71857  Biso   1.000  H
  N220     1.0000 0.45000  0.76686  0.03547  Biso   1.000  N
  H1106    1.0000 0.46411  0.68331  0.03401  Biso   1.000  H
  H1107    1.0000 0.51587  0.71861  0.05821  Biso   1.000  H
  H1108    1.0000 0.46411  0.68331  0.03396  Biso   1.000  H
  H1109    1.0000 0.51587  0.71861  0.05817  Biso   1.000  H
  H1110    1.0000 0.51587  0.71857  0.05821  Biso   1.000  H
  H1111    1.0000 0.51587  0.71857  0.05817  Biso   1.000  H
  C1115    1.0000 0.78202  0.97094  0.98639  Biso   1.000  C
  H1112    1.0000 0.44179  0.98409  0.71861  Biso   1.000  H
  H1113    1.0000 0.44179  0.98409  0.71857  Biso   1.000  H
  N221     1.0000 0.46453  0.05000  0.76686  Biso   1.000  N
  H1114    1.0000 0.46599  0.03589  0.68331  Biso   1.000  H
  N222     1.0000 0.46453  0.04996  0.76686  Biso   1.000  N
  C1116    1.0000 0.46252  0.80028  0.07505  Biso   1.000  C
  C1117    1.0000 0.46252  0.80023  0.07505  Biso   1.000  C
  H1115    1.0000 0.81669  0.96599  0.96411  Biso   1.000  H
  H1116    1.0000 0.81669  0.96599  0.96407  Biso   1.000  H
  H1117    1.0000 0.78139  0.94179  0.01591  Biso   1.000  H
  H1118    1.0000 0.78139  0.94179  0.01587  Biso   1.000  H
  C1118    1.0000 0.78202  0.02906  0.01361  Biso   1.000  C
  C1119    1.0000 0.78202  0.02902  0.01361  Biso   1.000  C
  C1120    1.0000 0.42495  0.03748  0.80028  Biso   1.000  C
  C1121    1.0000 0.42495  0.03748  0.80023  Biso   1.000  C
  C1122    1.0000 0.42495  0.03744  0.80028  Biso   1.000  C
  C1123    1.0000 0.42495  0.03744  0.80023  Biso   1.000  C
  H1119    1.0000 0.49468  0.79240  0.09712  Biso   1.000  H
  C1124    1.0000 0.42947  0.85057  0.08820  Biso   1.000  C
  H1120    1.0000 0.49468  0.79240  0.09708  Biso   1.000  H
  H1121    1.0000 0.78139  0.05821  0.98409  Biso   1.000  H
  H1122    1.0000 0.78139  0.05817  0.98409  Biso   1.000  H
  N223     1.0000 0.73314  0.03547  0.05000  Biso   1.000  N
  H1123    1.0000 0.81669  0.03401  0.03589  Biso   1.000  H
  N224     1.0000 0.73314  0.03547  0.04996  Biso   1.000  N
  H1124    1.0000 0.81669  0.03396  0.03589  Biso   1.000  H
  H1125    1.0000 0.40288  0.00532  0.79240  Biso   1.000  H
  C1125    1.0000 0.41176  0.07053  0.85057  Biso   1.000  C
  H1126    1.0000 0.40288  0.00528  0.79240  Biso   1.000  H
  C1126    1.0000 0.41176  0.07048  0.85057  Biso   1.000  C
  C1127    1.0000 0.44388  0.88278  0.13414  Biso   1.000  C
  C1128    1.0000 0.38274  0.86586  0.05612  Biso   1.000  C
  C1129    1.0000 0.38274  0.86586  0.05608  Biso   1.000  C
  C1130    1.0000 0.44388  0.88274  0.13414  Biso   1.000  C
  C1131    1.0000 0.69972  0.07505  0.03748  Biso   1.000  C
  C1132    1.0000 0.69972  0.07505  0.03744  Biso   1.000  C
  C1133    1.0000 0.36586  0.05612  0.88278  Biso   1.000  C
  C1134    1.0000 0.44388  0.11722  0.86586  Biso   1.000  C
  C1135    1.0000 0.36586  0.05612  0.88274  Biso   1.000  C
  C1136    1.0000 0.36586  0.05608  0.88278  Biso   1.000  C
  C1137    1.0000 0.36586  0.05608  0.88274  Biso   1.000  C
  C1138    1.0000 0.41176  0.92947  0.14943  Biso   1.000  C
  H1127    1.0000 0.47600  0.87310  0.15558  Biso   1.000  H
  C1139    1.0000 0.41176  0.92947  0.14938  Biso   1.000  C
  C1140    1.0000 0.35057  0.91180  0.07053  Biso   1.000  C
  H1128    1.0000 0.37310  0.84442  0.02400  Biso   1.000  H
  C1141    1.0000 0.35057  0.91180  0.07048  Biso   1.000  C
  C1142    1.0000 0.35057  0.91176  0.07053  Biso   1.000  C
  H1129    1.0000 0.37310  0.84438  0.02400  Biso   1.000  H
  C1143    1.0000 0.35057  0.91176  0.07048  Biso   1.000  C
  H1130    1.0000 0.70760  0.09712  0.00532  Biso   1.000  H
  C1144    1.0000 0.64938  0.08820  0.07053  Biso   1.000  C
  H1131    1.0000 0.70760  0.09712  0.00528  Biso   1.000  H
  C1145    1.0000 0.64938  0.08820  0.07048  Biso   1.000  C
  H1132    1.0000 0.70760  0.09708  0.00532  Biso   1.000  H
  H1133    1.0000 0.70760  0.09708  0.00528  Biso   1.000  H
  C1146    1.0000 0.35057  0.08820  0.92947  Biso   1.000  C
  H1134    1.0000 0.34438  0.02400  0.87310  Biso   1.000  H
  C1147    1.0000 0.42947  0.14943  0.91180  Biso   1.000  C
  H1135    1.0000 0.47600  0.12690  0.84442  Biso   1.000  H
  C1148    1.0000 0.42947  0.14943  0.91176  Biso   1.000  C
  H1136    1.0000 0.47600  0.12690  0.84438  Biso   1.000  H
  C1149    1.0000 0.42947  0.14938  0.91180  Biso   1.000  C
  C1150    1.0000 0.42947  0.14938  0.91176  Biso   1.000  C
  C1151    1.0000 0.42495  0.96252  0.19972  Biso   1.000  C
  C1152    1.0000 0.36586  0.94388  0.11722  Biso   1.000  C
  C1153    1.0000 0.30023  0.92495  0.03748  Biso   1.000  C
  C1154    1.0000 0.30023  0.92495  0.03744  Biso   1.000  C
  C1155    1.0000 0.30023  0.92491  0.03748  Biso   1.000  C
  C1156    1.0000 0.30023  0.92491  0.03744  Biso   1.000  C
  C1157    1.0000 0.61722  0.13414  0.05612  Biso   1.000  C
  C1158    1.0000 0.63414  0.05612  0.11722  Biso   1.000  C
  C1159    1.0000 0.61722  0.13414  0.05608  Biso   1.000  C
  C1160    1.0000 0.63414  0.05608  0.11722  Biso   1.000  C
  C1161    1.0000 0.30023  0.07505  0.96252  Biso   1.000  C
  C1162    1.0000 0.38274  0.13414  0.94388  Biso   1.000  C
  C1163    1.0000 0.46252  0.19972  0.92495  Biso   1.000  C
  C1164    1.0000 0.46252  0.19972  0.92491  Biso   1.000  C
  N225     1.0000 0.46453  0.95000  0.23314  Biso   1.000  N
  H1137    1.0000 0.40288  0.99468  0.20760  Biso   1.000  H
  N226     1.0000 0.46453  0.95000  0.23310  Biso   1.000  N
  H1138    1.0000 0.34438  0.97600  0.12690  Biso   1.000  H
  N227     1.0000 0.26686  0.96453  0.05000  Biso   1.000  N
  H1139    1.0000 0.29240  0.90288  0.00532  Biso   1.000  H
  N228     1.0000 0.26686  0.96453  0.04996  Biso   1.000  N
  H1140    1.0000 0.29240  0.90288  0.00528  Biso   1.000  H
  C1165    1.0000 0.57053  0.14943  0.08820  Biso   1.000  C
  H1141    1.0000 0.62690  0.15558  0.02400  Biso   1.000  H
  C1166    1.0000 0.57053  0.14938  0.08820  Biso   1.000  C
  C1167    1.0000 0.58820  0.07053  0.14943  Biso   1.000  C
  C1168    1.0000 0.58820  0.07053  0.14938  Biso   1.000  C
  C1169    1.0000 0.58820  0.07048  0.14943  Biso   1.000  C
  C1170    1.0000 0.58820  0.07048  0.14938  Biso   1.000  C
  H1142    1.0000 0.65558  0.02400  0.12690  Biso   1.000  H
  N229     1.0000 0.26686  0.03547  0.95000  Biso   1.000  N
  H1143    1.0000 0.29240  0.09712  0.99468  Biso   1.000  H
  H1144    1.0000 0.29240  0.09708  0.99468  Biso   1.000  H
  H1145    1.0000 0.37310  0.15558  0.97600  Biso   1.000  H
  N230     1.0000 0.45000  0.23314  0.96453  Biso   1.000  N
  H1146    1.0000 0.49468  0.20760  0.90288  Biso   1.000  H
  N231     1.0000 0.45000  0.23310  0.96453  Biso   1.000  N
  C1171    1.0000 0.47094  0.98639  0.28202  Biso   1.000  C
  C1172    1.0000 0.21798  0.97094  0.01361  Biso   1.000  C
  C1173    1.0000 0.55608  0.11722  0.13414  Biso   1.000  C
  C1174    1.0000 0.53744  0.19972  0.07505  Biso   1.000  C
  C1175    1.0000 0.57505  0.03748  0.19972  Biso   1.000  C
  C1176    1.0000 0.57505  0.03744  0.19972  Biso   1.000  C
  C1177    1.0000 0.21798  0.02906  0.98639  Biso   1.000  C
  C1178    1.0000 0.21798  0.02902  0.98639  Biso   1.000  C
  C1179    1.0000 0.48639  0.28202  0.97094  Biso   1.000  C
  H1147    1.0000 0.46599  0.96411  0.31669  Biso   1.000  H
  H1148    1.0000 0.46599  0.96407  0.31669  Biso   1.000  H
  C1180    1.0000 0.52902  0.01361  0.28202  Biso   1.000  C
  H1149    1.0000 0.44179  0.01591  0.28139  Biso   1.000  H
  H1150    1.0000 0.44179  0.01587  0.28139  Biso   1.000  H
  H1151    1.0000 0.21861  0.94179  0.98409  Biso   1.000  H
  H1152    1.0000 0.18331  0.96599  0.03589  Biso   1.000  H
  H1153    1.0000 0.52400  0.12690  0.15558  Biso   1.000  H
  N232     1.0000 0.55000  0.23314  0.03547  Biso   1.000  N
  H1154    1.0000 0.50528  0.20760  0.09712  Biso   1.000  H
  H1155    1.0000 0.50528  0.20760  0.09708  Biso   1.000  H
  N233     1.0000 0.55000  0.23310  0.03547  Biso   1.000  N
  N234     1.0000 0.53547  0.05000  0.23314  Biso   1.000  N
  N235     1.0000 0.53547  0.05000  0.23310  Biso   1.000  N
  N236     1.0000 0.53547  0.04996  0.23314  Biso   1.000  N
  N237     1.0000 0.53547  0.04996  0.23310  Biso   1.000  N
  H1156    1.0000 0.59708  0.00532  0.20760  Biso   1.000  H
  H1157    1.0000 0.59708  0.00528  0.20760  Biso   1.000  H
  H1158    1.0000 0.18331  0.03401  0.96411  Biso   1.000  H
  H1159    1.0000 0.18331  0.03401  0.96407  Biso   1.000  H
  H1160    1.0000 0.18331  0.03396  0.96411  Biso   1.000  H
  H1161    1.0000 0.18331  0.03396  0.96407  Biso   1.000  H
  H1162    1.0000 0.21861  0.05821  0.01591  Biso   1.000  H
  H1163    1.0000 0.21861  0.05821  0.01587  Biso   1.000  H
  H1164    1.0000 0.21861  0.05817  0.01591  Biso   1.000  H
  H1165    1.0000 0.21861  0.05817  0.01587  Biso   1.000  H
  C1181    1.0000 0.51361  0.28202  0.02906  Biso   1.000  C
  C1182    1.0000 0.51361  0.28202  0.02902  Biso   1.000  C
  H1166    1.0000 0.46411  0.31669  0.96599  Biso   1.000  H
  H1167    1.0000 0.51587  0.28139  0.94179  Biso   1.000  H
  H1168    1.0000 0.55817  0.98409  0.28139  Biso   1.000  H
  H1169    1.0000 0.53401  0.03589  0.31669  Biso   1.000  H
  H1170    1.0000 0.53589  0.31669  0.03401  Biso   1.000  H
  H1171    1.0000 0.48409  0.28139  0.05821  Biso   1.000  H
  H1172    1.0000 0.53589  0.31669  0.03396  Biso   1.000  H
  H1173    1.0000 0.48409  0.28139  0.05817  Biso   1.000  H
  C1183    1.0000 0.55608  0.88274  0.86586  Biso   1.000  C
  C1184    1.0000 0.57053  0.85057  0.91180  Biso   1.000  C
  C1185    1.0000 0.57053  0.85057  0.91176  Biso   1.000  C
  C1186    1.0000 0.58820  0.92947  0.85057  Biso   1.000  C
  H1174    1.0000 0.52400  0.87310  0.84442  Biso   1.000  H
  H1175    1.0000 0.52400  0.87310  0.84438  Biso   1.000  H
  C1187    1.0000 0.53744  0.80028  0.92495  Biso   1.000  C
  C1188    1.0000 0.53744  0.80028  0.92491  Biso   1.000  C
  C1189    1.0000 0.53744  0.80023  0.92495  Biso   1.000  C
  C1190    1.0000 0.53744  0.80023  0.92491  Biso   1.000  C
  C1191    1.0000 0.55608  0.88278  0.86586  Biso   1.000  C
  C1192    1.0000 0.61722  0.86586  0.94388  Biso   1.000  C
  C1193    1.0000 0.57505  0.96252  0.80028  Biso   1.000  C
  C1194    1.0000 0.63414  0.94388  0.88278  Biso   1.000  C
  C1195    1.0000 0.57505  0.96252  0.80023  Biso   1.000  C
  C1196    1.0000 0.63414  0.94388  0.88274  Biso   1.000  C
  N238     1.0000 0.55000  0.76686  0.96453  Biso   1.000  N
  H1176    1.0000 0.50528  0.79240  0.90288  Biso   1.000  H
  C1197    1.0000 0.64938  0.91180  0.92947  Biso   1.000  C
  H1177    1.0000 0.62690  0.84442  0.97600  Biso   1.000  H
  C1198    1.0000 0.64938  0.91176  0.92947  Biso   1.000  C
  H1178    1.0000 0.62690  0.84438  0.97600  Biso   1.000  H
  N239     1.0000 0.53547  0.95000  0.76686  Biso   1.000  N
  H1179    1.0000 0.59708  0.99468  0.79240  Biso   1.000  H
  H1180    1.0000 0.65558  0.97600  0.87310  Biso   1.000  H
  C1199    1.0000 0.51361  0.71794  0.97094  Biso   1.000  C
  C1200    1.0000 0.51361  0.71798  0.97094  Biso   1.000  C
  C1201    1.0000 0.69972  0.92495  0.96252  Biso   1.000  C
  C1202    1.0000 0.69972  0.92491  0.96252  Biso   1.000  C
  C1203    1.0000 0.52902  0.98639  0.71798  Biso   1.000  C
  C1204    1.0000 0.52902  0.98639  0.71794  Biso   1.000  C
  H1181    1.0000 0.53589  0.68331  0.96599  Biso   1.000  H
  H1182    1.0000 0.48409  0.71861  0.94179  Biso   1.000  H
  H1183    1.0000 0.48409  0.71857  0.94179  Biso   1.000  H
  C1205    1.0000 0.48639  0.71798  0.02906  Biso   1.000  C
  C1206    1.0000 0.48639  0.71798  0.02902  Biso   1.000  C
  C1207    1.0000 0.48639  0.71794  0.02906  Biso   1.000  C
  C1208    1.0000 0.48639  0.71794  0.02902  Biso   1.000  C
  N240     1.0000 0.73314  0.96453  0.95000  Biso   1.000  N
  H1184    1.0000 0.70760  0.90288  0.99468  Biso   1.000  H
  H1185    1.0000 0.53401  0.96411  0.68331  Biso   1.000  H
  H1186    1.0000 0.53401  0.96407  0.68331  Biso   1.000  H
  C1209    1.0000 0.47094  0.01361  0.71798  Biso   1.000  C
  H1187    1.0000 0.55817  0.01591  0.71861  Biso   1.000  H
  C1210    1.0000 0.47094  0.01361  0.71794  Biso   1.000  C
  H1188    1.0000 0.55817  0.01591  0.71857  Biso   1.000  H
  H1189    1.0000 0.55817  0.01587  0.71861  Biso   1.000  H
  H1190    1.0000 0.55817  0.01587  0.71857  Biso   1.000  H
  N241     1.0000 0.45000  0.76686  0.03547  Biso   1.000  N
  H1191    1.0000 0.46411  0.68331  0.03401  Biso   1.000  H
  H1192    1.0000 0.51587  0.71861  0.05821  Biso   1.000  H
  H1193    1.0000 0.46411  0.68331  0.03396  Biso   1.000  H
  H1194    1.0000 0.51587  0.71861  0.05817  Biso   1.000  H
  H1195    1.0000 0.51587  0.71857  0.05821  Biso   1.000  H
  H1196    1.0000 0.51587  0.71857  0.05817  Biso   1.000  H
  C1211    1.0000 0.78202  0.97094  0.98639  Biso   1.000  C
  H1197    1.0000 0.44179  0.98409  0.71861  Biso   1.000  H
  H1198    1.0000 0.44179  0.98409  0.71857  Biso   1.000  H
  N242     1.0000 0.46453  0.05000  0.76686  Biso   1.000  N
  H1199    1.0000 0.46599  0.03589  0.68331  Biso   1.000  H
  N243     1.0000 0.46453  0.04996  0.76686  Biso   1.000  N
  C1212    1.0000 0.46252  0.80028  0.07505  Biso   1.000  C
  C1213    1.0000 0.46252  0.80023  0.07505  Biso   1.000  C
  H1200    1.0000 0.81669  0.96599  0.96411  Biso   1.000  H
  H1201    1.0000 0.81669  0.96599  0.96407  Biso   1.000  H
  H1202    1.0000 0.78139  0.94179  0.01591  Biso   1.000  H
  H1203    1.0000 0.78139  0.94179  0.01587  Biso   1.000  H
  C1214    1.0000 0.78202  0.02906  0.01361  Biso   1.000  C
  C1215    1.0000 0.78202  0.02902  0.01361  Biso   1.000  C
  C1216    1.0000 0.42495  0.03748  0.80028  Biso   1.000  C
  C1217    1.0000 0.42495  0.03748  0.80023  Biso   1.000  C
  C1218    1.0000 0.42495  0.03744  0.80028  Biso   1.000  C
  C1219    1.0000 0.42495  0.03744  0.80023  Biso   1.000  C
  H1204    1.0000 0.49468  0.79240  0.09712  Biso   1.000  H
  C1220    1.0000 0.42947  0.85057  0.08820  Biso   1.000  C
  H1205    1.0000 0.49468  0.79240  0.09708  Biso   1.000  H
  H1206    1.0000 0.78139  0.05821  0.98409  Biso   1.000  H
  H1207    1.0000 0.78139  0.05817  0.98409  Biso   1.000  H
  N244     1.0000 0.73314  0.03547  0.05000  Biso   1.000  N
  H1208    1.0000 0.81669  0.03401  0.03589  Biso   1.000  H
  N245     1.0000 0.73314  0.03547  0.04996  Biso   1.000  N
  H1209    1.0000 0.81669  0.03396  0.03589  Biso   1.000  H
  H1210    1.0000 0.40288  0.00532  0.79240  Biso   1.000  H
  C1221    1.0000 0.41176  0.07053  0.85057  Biso   1.000  C
  H1211    1.0000 0.40288  0.00528  0.79240  Biso   1.000  H
  C1222    1.0000 0.41176  0.07048  0.85057  Biso   1.000  C
  C1223    1.0000 0.44388  0.88278  0.13414  Biso   1.000  C
  C1224    1.0000 0.38274  0.86586  0.05612  Biso   1.000  C
  C1225    1.0000 0.38274  0.86586  0.05608  Biso   1.000  C
  C1226    1.0000 0.44388  0.88274  0.13414  Biso   1.000  C
  C1227    1.0000 0.69972  0.07505  0.03748  Biso   1.000  C
  C1228    1.0000 0.69972  0.07505  0.03744  Biso   1.000  C
  C1229    1.0000 0.36586  0.05612  0.88278  Biso   1.000  C
  C1230    1.0000 0.44388  0.11722  0.86586  Biso   1.000  C
  C1231    1.0000 0.36586  0.05612  0.88274  Biso   1.000  C
  C1232    1.0000 0.36586  0.05608  0.88278  Biso   1.000  C
  C1233    1.0000 0.36586  0.05608  0.88274  Biso   1.000  C
  C1234    1.0000 0.41176  0.92947  0.14943  Biso   1.000  C
  H1212    1.0000 0.47600  0.87310  0.15558  Biso   1.000  H
  C1235    1.0000 0.41176  0.92947  0.14938  Biso   1.000  C
  C1236    1.0000 0.35057  0.91180  0.07053  Biso   1.000  C
  H1213    1.0000 0.37310  0.84442  0.02400  Biso   1.000  H
  C1237    1.0000 0.35057  0.91180  0.07048  Biso   1.000  C
  C1238    1.0000 0.35057  0.91176  0.07053  Biso   1.000  C
  H1214    1.0000 0.37310  0.84438  0.02400  Biso   1.000  H
  C1239    1.0000 0.35057  0.91176  0.07048  Biso   1.000  C
  H1215    1.0000 0.70760  0.09712  0.00532  Biso   1.000  H
  C1240    1.0000 0.64938  0.08820  0.07053  Biso   1.000  C
  H1216    1.0000 0.70760  0.09712  0.00528  Biso   1.000  H
  C1241    1.0000 0.64938  0.08820  0.07048  Biso   1.000  C
  H1217    1.0000 0.70760  0.09708  0.00532  Biso   1.000  H
  H1218    1.0000 0.70760  0.09708  0.00528  Biso   1.000  H
  C1242    1.0000 0.35057  0.08820  0.92947  Biso   1.000  C
  H1219    1.0000 0.34438  0.02400  0.87310  Biso   1.000  H
  C1243    1.0000 0.42947  0.14943  0.91180  Biso   1.000  C
  H1220    1.0000 0.47600  0.12690  0.84442  Biso   1.000  H
  C1244    1.0000 0.42947  0.14943  0.91176  Biso   1.000  C
  H1221    1.0000 0.47600  0.12690  0.84438  Biso   1.000  H
  C1245    1.0000 0.42947  0.14938  0.91180  Biso   1.000  C
  C1246    1.0000 0.42947  0.14938  0.91176  Biso   1.000  C
  C1247    1.0000 0.42495  0.96252  0.19972  Biso   1.000  C
  C1248    1.0000 0.36586  0.94388  0.11722  Biso   1.000  C
  C1249    1.0000 0.30023  0.92495  0.03748  Biso   1.000  C
  C1250    1.0000 0.30023  0.92495  0.03744  Biso   1.000  C
  C1251    1.0000 0.30023  0.92491  0.03748  Biso   1.000  C
  C1252    1.0000 0.30023  0.92491  0.03744  Biso   1.000  C
  C1253    1.0000 0.61722  0.13414  0.05612  Biso   1.000  C
  C1254    1.0000 0.63414  0.05612  0.11722  Biso   1.000  C
  C1255    1.0000 0.61722  0.13414  0.05608  Biso   1.000  C
  C1256    1.0000 0.63414  0.05608  0.11722  Biso   1.000  C
  C1257    1.0000 0.30023  0.07505  0.96252  Biso   1.000  C
  C1258    1.0000 0.38274  0.13414  0.94388  Biso   1.000  C
  C1259    1.0000 0.46252  0.19972  0.92495  Biso   1.000  C
  C1260    1.0000 0.46252  0.19972  0.92491  Biso   1.000  C
  N246     1.0000 0.46453  0.95000  0.23314  Biso   1.000  N
  H1222    1.0000 0.40288  0.99468  0.20760  Biso   1.000  H
  N247     1.0000 0.46453  0.95000  0.23310  Biso   1.000  N
  H1223    1.0000 0.34438  0.97600  0.12690  Biso   1.000  H
  N248     1.0000 0.26686  0.96453  0.05000  Biso   1.000  N
  H1224    1.0000 0.29240  0.90288  0.00532  Biso   1.000  H
  N249     1.0000 0.26686  0.96453  0.04996  Biso   1.000  N
  H1225    1.0000 0.29240  0.90288  0.00528  Biso   1.000  H
  C1261    1.0000 0.57053  0.14943  0.08820  Biso   1.000  C
  H1226    1.0000 0.62690  0.15558  0.02400  Biso   1.000  H
  C1262    1.0000 0.57053  0.14938  0.08820  Biso   1.000  C
  C1263    1.0000 0.58820  0.07053  0.14943  Biso   1.000  C
  C1264    1.0000 0.58820  0.07053  0.14938  Biso   1.000  C
  C1265    1.0000 0.58820  0.07048  0.14943  Biso   1.000  C
  C1266    1.0000 0.58820  0.07048  0.14938  Biso   1.000  C
  H1227    1.0000 0.65558  0.02400  0.12690  Biso   1.000  H
  N250     1.0000 0.26686  0.03547  0.95000  Biso   1.000  N
  H1228    1.0000 0.29240  0.09712  0.99468  Biso   1.000  H
  H1229    1.0000 0.29240  0.09708  0.99468  Biso   1.000  H
  H1230    1.0000 0.37310  0.15558  0.97600  Biso   1.000  H
  N251     1.0000 0.45000  0.23314  0.96453  Biso   1.000  N
  H1231    1.0000 0.49468  0.20760  0.90288  Biso   1.000  H
  N252     1.0000 0.45000  0.23310  0.96453  Biso   1.000  N
  C1267    1.0000 0.47094  0.98639  0.28202  Biso   1.000  C
  C1268    1.0000 0.21798  0.97094  0.01361  Biso   1.000  C
  C1269    1.0000 0.55608  0.11722  0.13414  Biso   1.000  C
  C1270    1.0000 0.53744  0.19972  0.07505  Biso   1.000  C
  C1271    1.0000 0.57505  0.03748  0.19972  Biso   1.000  C
  C1272    1.0000 0.57505  0.03744  0.19972  Biso   1.000  C
  C1273    1.0000 0.21798  0.02906  0.98639  Biso   1.000  C
  C1274    1.0000 0.21798  0.02902  0.98639  Biso   1.000  C
  C1275    1.0000 0.48639  0.28202  0.97094  Biso   1.000  C
  H1232    1.0000 0.46599  0.96411  0.31669  Biso   1.000  H
  H1233    1.0000 0.46599  0.96407  0.31669  Biso   1.000  H
  C1276    1.0000 0.52902  0.01361  0.28202  Biso   1.000  C
  H1234    1.0000 0.44179  0.01591  0.28139  Biso   1.000  H
  H1235    1.0000 0.44179  0.01587  0.28139  Biso   1.000  H
  H1236    1.0000 0.21861  0.94179  0.98409  Biso   1.000  H
  H1237    1.0000 0.18331  0.96599  0.03589  Biso   1.000  H
  H1238    1.0000 0.52400  0.12690  0.15558  Biso   1.000  H
  N253     1.0000 0.55000  0.23314  0.03547  Biso   1.000  N
  H1239    1.0000 0.50528  0.20760  0.09712  Biso   1.000  H
  H1240    1.0000 0.50528  0.20760  0.09708  Biso   1.000  H
  N254     1.0000 0.55000  0.23310  0.03547  Biso   1.000  N
  N255     1.0000 0.53547  0.05000  0.23314  Biso   1.000  N
  N256     1.0000 0.53547  0.05000  0.23310  Biso   1.000  N
  N257     1.0000 0.53547  0.04996  0.23314  Biso   1.000  N
  N258     1.0000 0.53547  0.04996  0.23310  Biso   1.000  N
  H1241    1.0000 0.59708  0.00532  0.20760  Biso   1.000  H
  H1242    1.0000 0.59708  0.00528  0.20760  Biso   1.000  H
  H1243    1.0000 0.18331  0.03401  0.96411  Biso   1.000  H
  H1244    1.0000 0.18331  0.03401  0.96407  Biso   1.000  H
  H1245    1.0000 0.18331  0.03396  0.96411  Biso   1.000  H
  H1246    1.0000 0.18331  0.03396  0.96407  Biso   1.000  H
  H1247    1.0000 0.21861  0.05821  0.01591  Biso   1.000  H
  H1248    1.0000 0.21861  0.05821  0.01587  Biso   1.000  H
  H1249    1.0000 0.21861  0.05817  0.01591  Biso   1.000  H
  H1250    1.0000 0.21861  0.05817  0.01587  Biso   1.000  H
  C1277    1.0000 0.51361  0.28202  0.02906  Biso   1.000  C
  C1278    1.0000 0.51361  0.28202  0.02902  Biso   1.000  C
  H1251    1.0000 0.46411  0.31669  0.96599  Biso   1.000  H
  H1252    1.0000 0.51587  0.28139  0.94179  Biso   1.000  H
  H1253    1.0000 0.55817  0.98409  0.28139  Biso   1.000  H
  H1254    1.0000 0.53401  0.03589  0.31669  Biso   1.000  H
  H1255    1.0000 0.53589  0.31669  0.03401  Biso   1.000  H
  H1256    1.0000 0.48409  0.28139  0.05821  Biso   1.000  H
  H1257    1.0000 0.53589  0.31669  0.03396  Biso   1.000  H
  H1258    1.0000 0.48409  0.28139  0.05817  Biso   1.000  H
  C1279    1.0000 0.55608  0.88274  0.86586  Biso   1.000  C
  C1280    1.0000 0.58820  0.92947  0.85057  Biso   1.000  C
  C1281    1.0000 0.57053  0.85057  0.91180  Biso   1.000  C
  H1259    1.0000 0.52400  0.87310  0.84442  Biso   1.000  H
  C1282    1.0000 0.57053  0.85057  0.91176  Biso   1.000  C
  H1260    1.0000 0.52400  0.87310  0.84438  Biso   1.000  H
  C1283    1.0000 0.57505  0.96252  0.80028  Biso   1.000  C
  C1284    1.0000 0.57505  0.96252  0.80023  Biso   1.000  C
  C1285    1.0000 0.63414  0.94388  0.88278  Biso   1.000  C
  C1286    1.0000 0.55608  0.88278  0.86586  Biso   1.000  C
  C1287    1.0000 0.63414  0.94388  0.88274  Biso   1.000  C
  C1288    1.0000 0.61722  0.86586  0.94388  Biso   1.000  C
  C1289    1.0000 0.53744  0.80028  0.92495  Biso   1.000  C
  C1290    1.0000 0.53744  0.80028  0.92491  Biso   1.000  C
  C1291    1.0000 0.53744  0.80023  0.92495  Biso   1.000  C
  C1292    1.0000 0.53744  0.80023  0.92491  Biso   1.000  C
  N259     1.0000 0.53547  0.95000  0.76686  Biso   1.000  N
  H1261    1.0000 0.59708  0.99468  0.79240  Biso   1.000  H
  H1262    1.0000 0.65558  0.97600  0.87310  Biso   1.000  H
  C1293    1.0000 0.64938  0.91180  0.92947  Biso   1.000  C
  C1294    1.0000 0.64938  0.91176  0.92947  Biso   1.000  C
  H1263    1.0000 0.62690  0.84442  0.97600  Biso   1.000  H
  H1264    1.0000 0.62690  0.84438  0.97600  Biso   1.000  H
  N260     1.0000 0.55000  0.76686  0.96453  Biso   1.000  N
  H1265    1.0000 0.50528  0.79240  0.90288  Biso   1.000  H
  C1295    1.0000 0.52902  0.98639  0.71798  Biso   1.000  C
  C1296    1.0000 0.52902  0.98639  0.71794  Biso   1.000  C
  C1297    1.0000 0.69972  0.92495  0.96252  Biso   1.000  C
  C1298    1.0000 0.69972  0.92491  0.96252  Biso   1.000  C
  C1299    1.0000 0.51361  0.71798  0.97094  Biso   1.000  C
  C1300    1.0000 0.51361  0.71794  0.97094  Biso   1.000  C
  H1266    1.0000 0.53401  0.96411  0.68331  Biso   1.000  H
  H1267    1.0000 0.53401  0.96407  0.68331  Biso   1.000  H
  C1301    1.0000 0.47094  0.01361  0.71798  Biso   1.000  C
  H1268    1.0000 0.55817  0.01591  0.71861  Biso   1.000  H
  C1302    1.0000 0.47094  0.01361  0.71794  Biso   1.000  C
  H1269    1.0000 0.55817  0.01591  0.71857  Biso   1.000  H
  H1270    1.0000 0.55817  0.01587  0.71861  Biso   1.000  H
  H1271    1.0000 0.55817  0.01587  0.71857  Biso   1.000  H
  N261     1.0000 0.73314  0.96453  0.95000  Biso   1.000  N
  H1272    1.0000 0.70760  0.90288  0.99468  Biso   1.000  H
  H1273    1.0000 0.53589  0.68331  0.96599  Biso   1.000  H
  H1274    1.0000 0.48409  0.71861  0.94179  Biso   1.000  H
  H1275    1.0000 0.48409  0.71857  0.94179  Biso   1.000  H
  C1303    1.0000 0.48639  0.71798  0.02906  Biso   1.000  C
  C1304    1.0000 0.48639  0.71798  0.02902  Biso   1.000  C
  C1305    1.0000 0.48639  0.71794  0.02906  Biso   1.000  C
  C1306    1.0000 0.48639  0.71794  0.02902  Biso   1.000  C
  H1276    1.0000 0.44179  0.98409  0.71861  Biso   1.000  H
  H1277    1.0000 0.44179  0.98409  0.71857  Biso   1.000  H
  N262     1.0000 0.46453  0.05000  0.76686  Biso   1.000  N
  H1278    1.0000 0.46599  0.03589  0.68331  Biso   1.000  H
  N263     1.0000 0.46453  0.04996  0.76686  Biso   1.000  N
  C1307    1.0000 0.78202  0.97094  0.98639  Biso   1.000  C
  N264     1.0000 0.45000  0.76686  0.03547  Biso   1.000  N
  H1279    1.0000 0.46411  0.68331  0.03401  Biso   1.000  H
  H1280    1.0000 0.51587  0.71861  0.05821  Biso   1.000  H
  H1281    1.0000 0.46411  0.68331  0.03396  Biso   1.000  H
  H1282    1.0000 0.51587  0.71861  0.05817  Biso   1.000  H
  H1283    1.0000 0.51587  0.71857  0.05821  Biso   1.000  H
  H1284    1.0000 0.51587  0.71857  0.05817  Biso   1.000  H
  C1308    1.0000 0.42495  0.03748  0.80028  Biso   1.000  C
  C1309    1.0000 0.42495  0.03748  0.80023  Biso   1.000  C
  C1310    1.0000 0.42495  0.03744  0.80028  Biso   1.000  C
  C1311    1.0000 0.42495  0.03744  0.80023  Biso   1.000  C
  H1285    1.0000 0.81669  0.96599  0.96411  Biso   1.000  H
  H1286    1.0000 0.81669  0.96599  0.96407  Biso   1.000  H
  H1287    1.0000 0.78139  0.94179  0.01591  Biso   1.000  H
  H1288    1.0000 0.78139  0.94179  0.01587  Biso   1.000  H
  C1312    1.0000 0.78202  0.02906  0.01361  Biso   1.000  C
  C1313    1.0000 0.78202  0.02902  0.01361  Biso   1.000  C
  C1314    1.0000 0.46252  0.80028  0.07505  Biso   1.000  C
  C1315    1.0000 0.46252  0.80023  0.07505  Biso   1.000  C
  H1289    1.0000 0.40288  0.00532  0.79240  Biso   1.000  H
  C1316    1.0000 0.41176  0.07053  0.85057  Biso   1.000  C
  H1290    1.0000 0.40288  0.00528  0.79240  Biso   1.000  H
  C1317    1.0000 0.41176  0.07048  0.85057  Biso   1.000  C
  H1291    1.0000 0.78139  0.05821  0.98409  Biso   1.000  H
  H1292    1.0000 0.78139  0.05817  0.98409  Biso   1.000  H
  N265     1.0000 0.73314  0.03547  0.05000  Biso   1.000  N
  H1293    1.0000 0.81669  0.03401  0.03589  Biso   1.000  H
  N266     1.0000 0.73314  0.03547  0.04996  Biso   1.000  N
  H1294    1.0000 0.81669  0.03396  0.03589  Biso   1.000  H
  H1295    1.0000 0.49468  0.79240  0.09712  Biso   1.000  H
  C1318    1.0000 0.42947  0.85057  0.08820  Biso   1.000  C
  H1296    1.0000 0.49468  0.79240  0.09708  Biso   1.000  H
  C1319    1.0000 0.36586  0.05612  0.88278  Biso   1.000  C
  C1320    1.0000 0.44388  0.11722  0.86586  Biso   1.000  C
  C1321    1.0000 0.36586  0.05612  0.88274  Biso   1.000  C
  C1322    1.0000 0.36586  0.05608  0.88278  Biso   1.000  C
  C1323    1.0000 0.36586  0.05608  0.88274  Biso   1.000  C
  C1324    1.0000 0.69972  0.07505  0.03748  Biso   1.000  C
  C1325    1.0000 0.69972  0.07505  0.03744  Biso   1.000  C
  C1326    1.0000 0.44388  0.88278  0.13414  Biso   1.000  C
  C1327    1.0000 0.38274  0.86586  0.05612  Biso   1.000  C
  C1328    1.0000 0.38274  0.86586  0.05608  Biso   1.000  C
  C1329    1.0000 0.44388  0.88274  0.13414  Biso   1.000  C
  C1330    1.0000 0.35057  0.08820  0.92947  Biso   1.000  C
  H1297    1.0000 0.34438  0.02400  0.87310  Biso   1.000  H
  C1331    1.0000 0.42947  0.14943  0.91180  Biso   1.000  C
  H1298    1.0000 0.47600  0.12690  0.84442  Biso   1.000  H
  C1332    1.0000 0.42947  0.14943  0.91176  Biso   1.000  C
  H1299    1.0000 0.47600  0.12690  0.84438  Biso   1.000  H
  C1333    1.0000 0.42947  0.14938  0.91180  Biso   1.000  C
  C1334    1.0000 0.42947  0.14938  0.91176  Biso   1.000  C
  H1300    1.0000 0.70760  0.09712  0.00532  Biso   1.000  H
  C1335    1.0000 0.64938  0.08820  0.07053  Biso   1.000  C
  H1301    1.0000 0.70760  0.09712  0.00528  Biso   1.000  H
  C1336    1.0000 0.64938  0.08820  0.07048  Biso   1.000  C
  H1302    1.0000 0.70760  0.09708  0.00532  Biso   1.000  H
  H1303    1.0000 0.70760  0.09708  0.00528  Biso   1.000  H
  C1337    1.0000 0.41176  0.92947  0.14943  Biso   1.000  C
  H1304    1.0000 0.47600  0.87310  0.15558  Biso   1.000  H
  C1338    1.0000 0.41176  0.92947  0.14938  Biso   1.000  C
  C1339    1.0000 0.35057  0.91180  0.07053  Biso   1.000  C
  H1305    1.0000 0.37310  0.84442  0.02400  Biso   1.000  H
  C1340    1.0000 0.35057  0.91180  0.07048  Biso   1.000  C
  C1341    1.0000 0.35057  0.91176  0.07053  Biso   1.000  C
  H1306    1.0000 0.37310  0.84438  0.02400  Biso   1.000  H
  C1342    1.0000 0.35057  0.91176  0.07048  Biso   1.000  C
  C1343    1.0000 0.30023  0.07505  0.96252  Biso   1.000  C
  C1344    1.0000 0.38274  0.13414  0.94388  Biso   1.000  C
  C1345    1.0000 0.46252  0.19972  0.92495  Biso   1.000  C
  C1346    1.0000 0.46252  0.19972  0.92491  Biso   1.000  C
  C1347    1.0000 0.61722  0.13414  0.05612  Biso   1.000  C
  C1348    1.0000 0.63414  0.05612  0.11722  Biso   1.000  C
  C1349    1.0000 0.61722  0.13414  0.05608  Biso   1.000  C
  C1350    1.0000 0.63414  0.05608  0.11722  Biso   1.000  C
  C1351    1.0000 0.42495  0.96252  0.19972  Biso   1.000  C
  C1352    1.0000 0.36586  0.94388  0.11722  Biso   1.000  C
  C1353    1.0000 0.30023  0.92495  0.03748  Biso   1.000  C
  C1354    1.0000 0.30023  0.92495  0.03744  Biso   1.000  C
  C1355    1.0000 0.30023  0.92491  0.03748  Biso   1.000  C
  C1356    1.0000 0.30023  0.92491  0.03744  Biso   1.000  C
  N267     1.0000 0.26686  0.03547  0.95000  Biso   1.000  N
  H1307    1.0000 0.29240  0.09712  0.99468  Biso   1.000  H
  H1308    1.0000 0.29240  0.09708  0.99468  Biso   1.000  H
  H1309    1.0000 0.37310  0.15558  0.97600  Biso   1.000  H
  N268     1.0000 0.45000  0.23314  0.96453  Biso   1.000  N
  H1310    1.0000 0.49468  0.20760  0.90288  Biso   1.000  H
  N269     1.0000 0.45000  0.23310  0.96453  Biso   1.000  N
  C1357    1.0000 0.57053  0.14943  0.08820  Biso   1.000  C
  H1311    1.0000 0.62690  0.15558  0.02400  Biso   1.000  H
  C1358    1.0000 0.57053  0.14938  0.08820  Biso   1.000  C
  C1359    1.0000 0.58820  0.07053  0.14943  Biso   1.000  C
  H1312    1.0000 0.65558  0.02400  0.12690  Biso   1.000  H
  C1360    1.0000 0.58820  0.07053  0.14938  Biso   1.000  C
  C1361    1.0000 0.58820  0.07048  0.14943  Biso   1.000  C
  C1362    1.0000 0.58820  0.07048  0.14938  Biso   1.000  C
  N270     1.0000 0.46453  0.95000  0.23314  Biso   1.000  N
  H1313    1.0000 0.40288  0.99468  0.20760  Biso   1.000  H
  N271     1.0000 0.46453  0.95000  0.23310  Biso   1.000  N
  H1314    1.0000 0.34438  0.97600  0.12690  Biso   1.000  H
  N272     1.0000 0.26686  0.96453  0.05000  Biso   1.000  N
  N273     1.0000 0.26686  0.96453  0.04996  Biso   1.000  N
  H1315    1.0000 0.29240  0.90288  0.00532  Biso   1.000  H
  H1316    1.0000 0.29240  0.90288  0.00528  Biso   1.000  H
  C1363    1.0000 0.21798  0.02906  0.98639  Biso   1.000  C
  C1364    1.0000 0.21798  0.02902  0.98639  Biso   1.000  C
  C1365    1.0000 0.48639  0.28202  0.97094  Biso   1.000  C
  C1366    1.0000 0.53744  0.19972  0.07505  Biso   1.000  C
  C1367    1.0000 0.55608  0.11722  0.13414  Biso   1.000  C
  C1368    1.0000 0.57505  0.03748  0.19972  Biso   1.000  C
  C1369    1.0000 0.57505  0.03744  0.19972  Biso   1.000  C
  C1370    1.0000 0.47094  0.98639  0.28202  Biso   1.000  C
  C1371    1.0000 0.21798  0.97094  0.01361  Biso   1.000  C
  H1317    1.0000 0.18331  0.03401  0.96411  Biso   1.000  H
  H1318    1.0000 0.18331  0.03401  0.96407  Biso   1.000  H
  H1319    1.0000 0.18331  0.03396  0.96411  Biso   1.000  H
  H1320    1.0000 0.18331  0.03396  0.96407  Biso   1.000  H
  H1321    1.0000 0.21861  0.05821  0.01591  Biso   1.000  H
  H1322    1.0000 0.21861  0.05821  0.01587  Biso   1.000  H
  H1323    1.0000 0.21861  0.05817  0.01591  Biso   1.000  H
  H1324    1.0000 0.21861  0.05817  0.01587  Biso   1.000  H
  H1325    1.0000 0.46411  0.31669  0.96599  Biso   1.000  H
  H1326    1.0000 0.51587  0.28139  0.94179  Biso   1.000  H
  C1372    1.0000 0.51361  0.28202  0.02906  Biso   1.000  C
  C1373    1.0000 0.51361  0.28202  0.02902  Biso   1.000  C
  N274     1.0000 0.55000  0.23314  0.03547  Biso   1.000  N
  N275     1.0000 0.55000  0.23310  0.03547  Biso   1.000  N
  H1327    1.0000 0.50528  0.20760  0.09712  Biso   1.000  H
  H1328    1.0000 0.50528  0.20760  0.09708  Biso   1.000  H
  H1329    1.0000 0.52400  0.12690  0.15558  Biso   1.000  H
  N276     1.0000 0.53547  0.05000  0.23314  Biso   1.000  N
  H1330    1.0000 0.59708  0.00532  0.20760  Biso   1.000  H
  N277     1.0000 0.53547  0.05000  0.23310  Biso   1.000  N
  N278     1.0000 0.53547  0.04996  0.23314  Biso   1.000  N
  H1331    1.0000 0.59708  0.00528  0.20760  Biso   1.000  H
  N279     1.0000 0.53547  0.04996  0.23310  Biso   1.000  N
  C1374    1.0000 0.52902  0.01361  0.28202  Biso   1.000  C
  H1332    1.0000 0.46599  0.96411  0.31669  Biso   1.000  H
  H1333    1.0000 0.46599  0.96407  0.31669  Biso   1.000  H
  H1334    1.0000 0.44179  0.01591  0.28139  Biso   1.000  H
  H1335    1.0000 0.44179  0.01587  0.28139  Biso   1.000  H
  H1336    1.0000 0.21861  0.94179  0.98409  Biso   1.000  H
  H1337    1.0000 0.18331  0.96599  0.03589  Biso   1.000  H
  H1338    1.0000 0.53589  0.31669  0.03401  Biso   1.000  H
  H1339    1.0000 0.48409  0.28139  0.05821  Biso   1.000  H
  H1340    1.0000 0.53589  0.31669  0.03396  Biso   1.000  H
  H1341    1.0000 0.48409  0.28139  0.05817  Biso   1.000  H
  H1342    1.0000 0.55817  0.98409  0.28139  Biso   1.000  H
  H1343    1.0000 0.53401  0.03589  0.31669  Biso   1.000  H
  C1375    1.0000 0.55608  0.88274  0.86586  Biso   1.000  C
  C1376    1.0000 0.58820  0.92947  0.85057  Biso   1.000  C
  C1377    1.0000 0.57053  0.85057  0.91180  Biso   1.000  C
  H1344    1.0000 0.52400  0.87310  0.84442  Biso   1.000  H
  C1378    1.0000 0.57053  0.85057  0.91176  Biso   1.000  C
  H1345    1.0000 0.52400  0.87310  0.84438  Biso   1.000  H
  C1379    1.0000 0.57505  0.96252  0.80028  Biso   1.000  C
  C1380    1.0000 0.57505  0.96252  0.80023  Biso   1.000  C
  C1381    1.0000 0.63414  0.94388  0.88278  Biso   1.000  C
  C1382    1.0000 0.55608  0.88278  0.86586  Biso   1.000  C
  C1383    1.0000 0.63414  0.94388  0.88274  Biso   1.000  C
  C1384    1.0000 0.61722  0.86586  0.94388  Biso   1.000  C
  C1385    1.0000 0.53744  0.80028  0.92495  Biso   1.000  C
  C1386    1.0000 0.53744  0.80028  0.92491  Biso   1.000  C
  C1387    1.0000 0.53744  0.80023  0.92495  Biso   1.000  C
  C1388    1.0000 0.53744  0.80023  0.92491  Biso   1.000  C
  N280     1.0000 0.53547  0.95000  0.76686  Biso   1.000  N
  H1346    1.0000 0.59708  0.99468  0.79240  Biso   1.000  H
  H1347    1.0000 0.65558  0.97600  0.87310  Biso   1.000  H
  C1389    1.0000 0.64938  0.91180  0.92947  Biso   1.000  C
  C1390    1.0000 0.64938  0.91176  0.92947  Biso   1.000  C
  H1348    1.0000 0.62690  0.84442  0.97600  Biso   1.000  H
  H1349    1.0000 0.62690  0.84438  0.97600  Biso   1.000  H
  N281     1.0000 0.55000  0.76686  0.96453  Biso   1.000  N
  H1350    1.0000 0.50528  0.79240  0.90288  Biso   1.000  H
  C1391    1.0000 0.52902  0.98639  0.71798  Biso   1.000  C
  C1392    1.0000 0.52902  0.98639  0.71794  Biso   1.000  C
  C1393    1.0000 0.69972  0.92495  0.96252  Biso   1.000  C
  C1394    1.0000 0.69972  0.92491  0.96252  Biso   1.000  C
  C1395    1.0000 0.51361  0.71798  0.97094  Biso   1.000  C
  C1396    1.0000 0.51361  0.71794  0.97094  Biso   1.000  C
  H1351    1.0000 0.53401  0.96411  0.68331  Biso   1.000  H
  H1352    1.0000 0.53401  0.96407  0.68331  Biso   1.000  H
  C1397    1.0000 0.47094  0.01361  0.71798  Biso   1.000  C
  H1353    1.0000 0.55817  0.01591  0.71861  Biso   1.000  H
  C1398    1.0000 0.47094  0.01361  0.71794  Biso   1.000  C
  H1354    1.0000 0.55817  0.01591  0.71857  Biso   1.000  H
  H1355    1.0000 0.55817  0.01587  0.71861  Biso   1.000  H
  H1356    1.0000 0.55817  0.01587  0.71857  Biso   1.000  H
  N282     1.0000 0.73314  0.96453  0.95000  Biso   1.000  N
  H1357    1.0000 0.70760  0.90288  0.99468  Biso   1.000  H
  H1358    1.0000 0.53589  0.68331  0.96599  Biso   1.000  H
  H1359    1.0000 0.48409  0.71861  0.94179  Biso   1.000  H
  H1360    1.0000 0.48409  0.71857  0.94179  Biso   1.000  H
  C1399    1.0000 0.48639  0.71798  0.02906  Biso   1.000  C
  C1400    1.0000 0.48639  0.71798  0.02902  Biso   1.000  C
  C1401    1.0000 0.48639  0.71794  0.02906  Biso   1.000  C
  C1402    1.0000 0.48639  0.71794  0.02902  Biso   1.000  C
  H1361    1.0000 0.44179  0.98409  0.71861  Biso   1.000  H
  H1362    1.0000 0.44179  0.98409  0.71857  Biso   1.000  H
  N283     1.0000 0.46453  0.05000  0.76686  Biso   1.000  N
  H1363    1.0000 0.46599  0.03589  0.68331  Biso   1.000  H
  N284     1.0000 0.46453  0.04996  0.76686  Biso   1.000  N
  C1403    1.0000 0.78202  0.97094  0.98639  Biso   1.000  C
  N285     1.0000 0.45000  0.76686  0.03547  Biso   1.000  N
  H1364    1.0000 0.46411  0.68331  0.03401  Biso   1.000  H
  H1365    1.0000 0.51587  0.71861  0.05821  Biso   1.000  H
  H1366    1.0000 0.46411  0.68331  0.03396  Biso   1.000  H
  H1367    1.0000 0.51587  0.71861  0.05817  Biso   1.000  H
  H1368    1.0000 0.51587  0.71857  0.05821  Biso   1.000  H
  H1369    1.0000 0.51587  0.71857  0.05817  Biso   1.000  H
  C1404    1.0000 0.42495  0.03748  0.80028  Biso   1.000  C
  C1405    1.0000 0.42495  0.03748  0.80023  Biso   1.000  C
  C1406    1.0000 0.42495  0.03744  0.80028  Biso   1.000  C
  C1407    1.0000 0.42495  0.03744  0.80023  Biso   1.000  C
  H1370    1.0000 0.81669  0.96599  0.96411  Biso   1.000  H
  H1371    1.0000 0.81669  0.96599  0.96407  Biso   1.000  H
  H1372    1.0000 0.78139  0.94179  0.01591  Biso   1.000  H
  H1373    1.0000 0.78139  0.94179  0.01587  Biso   1.000  H
  C1408    1.0000 0.78202  0.02906  0.01361  Biso   1.000  C
  C1409    1.0000 0.78202  0.02902  0.01361  Biso   1.000  C
  C1410    1.0000 0.46252  0.80028  0.07505  Biso   1.000  C
  C1411    1.0000 0.46252  0.80023  0.07505  Biso   1.000  C
  H1374    1.0000 0.40288  0.00532  0.79240  Biso   1.000  H
  C1412    1.0000 0.41176  0.07053  0.85057  Biso   1.000  C
  H1375    1.0000 0.40288  0.00528  0.79240  Biso   1.000  H
  C1413    1.0000 0.41176  0.07048  0.85057  Biso   1.000  C
  H1376    1.0000 0.78139  0.05821  0.98409  Biso   1.000  H
  H1377    1.0000 0.78139  0.05817  0.98409  Biso   1.000  H
  N286     1.0000 0.73314  0.03547  0.05000  Biso   1.000  N
  H1378    1.0000 0.81669  0.03401  0.03589  Biso   1.000  H
  N287     1.0000 0.73314  0.03547  0.04996  Biso   1.000  N
  H1379    1.0000 0.81669  0.03396  0.03589  Biso   1.000  H
  H1380    1.0000 0.49468  0.79240  0.09712  Biso   1.000  H
  C1414    1.0000 0.42947  0.85057  0.08820  Biso   1.000  C
  H1381    1.0000 0.49468  0.79240  0.09708  Biso   1.000  H
  C1415    1.0000 0.36586  0.05612  0.88278  Biso   1.000  C
  C1416    1.0000 0.44388  0.11722  0.86586  Biso   1.000  C
  C1417    1.0000 0.36586  0.05612  0.88274  Biso   1.000  C
  C1418    1.0000 0.36586  0.05608  0.88278  Biso   1.000  C
  C1419    1.0000 0.36586  0.05608  0.88274  Biso   1.000  C
  C1420    1.0000 0.69972  0.07505  0.03748  Biso   1.000  C
  C1421    1.0000 0.69972  0.07505  0.03744  Biso   1.000  C
  C1422    1.0000 0.44388  0.88278  0.13414  Biso   1.000  C
  C1423    1.0000 0.38274  0.86586  0.05612  Biso   1.000  C
  C1424    1.0000 0.38274  0.86586  0.05608  Biso   1.000  C
  C1425    1.0000 0.44388  0.88274  0.13414  Biso   1.000  C
  C1426    1.0000 0.35057  0.08820  0.92947  Biso   1.000  C
  H1382    1.0000 0.34438  0.02400  0.87310  Biso   1.000  H
  C1427    1.0000 0.42947  0.14943  0.91180  Biso   1.000  C
  H1383    1.0000 0.47600  0.12690  0.84442  Biso   1.000  H
  C1428    1.0000 0.42947  0.14943  0.91176  Biso   1.000  C
  H1384    1.0000 0.47600  0.12690  0.84438  Biso   1.000  H
  C1429    1.0000 0.42947  0.14938  0.91180  Biso   1.000  C
  C1430    1.0000 0.42947  0.14938  0.91176  Biso   1.000  C
  H1385    1.0000 0.70760  0.09712  0.00532  Biso   1.000  H
  C1431    1.0000 0.64938  0.08820  0.07053  Biso   1.000  C
  H1386    1.0000 0.70760  0.09712  0.00528  Biso   1.000  H
  C1432    1.0000 0.64938  0.08820  0.07048  Biso   1.000  C
  H1387    1.0000 0.70760  0.09708  0.00532  Biso   1.000  H
  H1388    1.0000 0.70760  0.09708  0.00528  Biso   1.000  H
  C1433    1.0000 0.41176  0.92947  0.14943  Biso   1.000  C
  H1389    1.0000 0.47600  0.87310  0.15558  Biso   1.000  H
  C1434    1.0000 0.41176  0.92947  0.14938  Biso   1.000  C
  C1435    1.0000 0.35057  0.91180  0.07053  Biso   1.000  C
  H1390    1.0000 0.37310  0.84442  0.02400  Biso   1.000  H
  C1436    1.0000 0.35057  0.91180  0.07048  Biso   1.000  C
  C1437    1.0000 0.35057  0.91176  0.07053  Biso   1.000  C
  H1391    1.0000 0.37310  0.84438  0.02400  Biso   1.000  H
  C1438    1.0000 0.35057  0.91176  0.07048  Biso   1.000  C
  C1439    1.0000 0.30023  0.07505  0.96252  Biso   1.000  C
  C1440    1.0000 0.38274  0.13414  0.94388  Biso   1.000  C
  C1441    1.0000 0.46252  0.19972  0.92495  Biso   1.000  C
  C1442    1.0000 0.46252  0.19972  0.92491  Biso   1.000  C
  C1443    1.0000 0.61722  0.13414  0.05612  Biso   1.000  C
  C1444    1.0000 0.63414  0.05612  0.11722  Biso   1.000  C
  C1445    1.0000 0.61722  0.13414  0.05608  Biso   1.000  C
  C1446    1.0000 0.63414  0.05608  0.11722  Biso   1.000  C
  C1447    1.0000 0.42495  0.96252  0.19972  Biso   1.000  C
  C1448    1.0000 0.36586  0.94388  0.11722  Biso   1.000  C
  C1449    1.0000 0.30023  0.92495  0.03748  Biso   1.000  C
  C1450    1.0000 0.30023  0.92495  0.03744  Biso   1.000  C
  C1451    1.0000 0.30023  0.92491  0.03748  Biso   1.000  C
  C1452    1.0000 0.30023  0.92491  0.03744  Biso   1.000  C
  N288     1.0000 0.26686  0.03547  0.95000  Biso   1.000  N
  H1392    1.0000 0.29240  0.09712  0.99468  Biso   1.000  H
  H1393    1.0000 0.29240  0.09708  0.99468  Biso   1.000  H
  H1394    1.0000 0.37310  0.15558  0.97600  Biso   1.000  H
  N289     1.0000 0.45000  0.23314  0.96453  Biso   1.000  N
  H1395    1.0000 0.49468  0.20760  0.90288  Biso   1.000  H
  N290     1.0000 0.45000  0.23310  0.96453  Biso   1.000  N
  C1453    1.0000 0.57053  0.14943  0.08820  Biso   1.000  C
  H1396    1.0000 0.62690  0.15558  0.02400  Biso   1.000  H
  C1454    1.0000 0.57053  0.14938  0.08820  Biso   1.000  C
  C1455    1.0000 0.58820  0.07053  0.14943  Biso   1.000  C
  H1397    1.0000 0.65558  0.02400  0.12690  Biso   1.000  H
  C1456    1.0000 0.58820  0.07053  0.14938  Biso   1.000  C
  C1457    1.0000 0.58820  0.07048  0.14943  Biso   1.000  C
  C1458    1.0000 0.58820  0.07048  0.14938  Biso   1.000  C
  N291     1.0000 0.46453  0.95000  0.23314  Biso   1.000  N
  H1398    1.0000 0.40288  0.99468  0.20760  Biso   1.000  H
  N292     1.0000 0.46453  0.95000  0.23310  Biso   1.000  N
  H1399    1.0000 0.34438  0.97600  0.12690  Biso   1.000  H
  N293     1.0000 0.26686  0.96453  0.05000  Biso   1.000  N
  N294     1.0000 0.26686  0.96453  0.04996  Biso   1.000  N
  H1400    1.0000 0.29240  0.90288  0.00532  Biso   1.000  H
  H1401    1.0000 0.29240  0.90288  0.00528  Biso   1.000  H
  C1459    1.0000 0.21798  0.02906  0.98639  Biso   1.000  C
  C1460    1.0000 0.21798  0.02902  0.98639  Biso   1.000  C
  C1461    1.0000 0.48639  0.28202  0.97094  Biso   1.000  C
  C1462    1.0000 0.53744  0.19972  0.07505  Biso   1.000  C
  C1463    1.0000 0.55608  0.11722  0.13414  Biso   1.000  C
  C1464    1.0000 0.57505  0.03748  0.19972  Biso   1.000  C
  C1465    1.0000 0.57505  0.03744  0.19972  Biso   1.000  C
  C1466    1.0000 0.47094  0.98639  0.28202  Biso   1.000  C
  C1467    1.0000 0.21798  0.97094  0.01361  Biso   1.000  C
  H1402    1.0000 0.18331  0.03401  0.96411  Biso   1.000  H
  H1403    1.0000 0.18331  0.03401  0.96407  Biso   1.000  H
  H1404    1.0000 0.18331  0.03396  0.96411  Biso   1.000  H
  H1405    1.0000 0.18331  0.03396  0.96407  Biso   1.000  H
  H1406    1.0000 0.21861  0.05821  0.01591  Biso   1.000  H
  H1407    1.0000 0.21861  0.05821  0.01587  Biso   1.000  H
  H1408    1.0000 0.21861  0.05817  0.01591  Biso   1.000  H
  H1409    1.0000 0.21861  0.05817  0.01587  Biso   1.000  H
  H1410    1.0000 0.46411  0.31669  0.96599  Biso   1.000  H
  H1411    1.0000 0.51587  0.28139  0.94179  Biso   1.000  H
  C1468    1.0000 0.51361  0.28202  0.02906  Biso   1.000  C
  C1469    1.0000 0.51361  0.28202  0.02902  Biso   1.000  C
  N295     1.0000 0.55000  0.23314  0.03547  Biso   1.000  N
  N296     1.0000 0.55000  0.23310  0.03547  Biso   1.000  N
  H1412    1.0000 0.50528  0.20760  0.09712  Biso   1.000  H
  H1413    1.0000 0.50528  0.20760  0.09708  Biso   1.000  H
  H1414    1.0000 0.52400  0.12690  0.15558  Biso   1.000  H
  N297     1.0000 0.53547  0.05000  0.23314  Biso   1.000  N
  H1415    1.0000 0.59708  0.00532  0.20760  Biso   1.000  H
  N298     1.0000 0.53547  0.05000  0.23310  Biso   1.000  N
  N299     1.0000 0.53547  0.04996  0.23314  Biso   1.000  N
  H1416    1.0000 0.59708  0.00528  0.20760  Biso   1.000  H
  N300     1.0000 0.53547  0.04996  0.23310  Biso   1.000  N
  C1470    1.0000 0.52902  0.01361  0.28202  Biso   1.000  C
  H1417    1.0000 0.46599  0.96411  0.31669  Biso   1.000  H
  H1418    1.0000 0.46599  0.96407  0.31669  Biso   1.000  H
  H1419    1.0000 0.44179  0.01591  0.28139  Biso   1.000  H
  H1420    1.0000 0.44179  0.01587  0.28139  Biso   1.000  H
  H1421    1.0000 0.21861  0.94179  0.98409  Biso   1.000  H
  H1422    1.0000 0.18331  0.96599  0.03589  Biso   1.000  H
  H1423    1.0000 0.53589  0.31669  0.03401  Biso   1.000  H
  H1424    1.0000 0.48409  0.28139  0.05821  Biso   1.000  H
  H1425    1.0000 0.53589  0.31669  0.03396  Biso   1.000  H
  H1426    1.0000 0.48409  0.28139  0.05817  Biso   1.000  H
  H1427    1.0000 0.55817  0.98409  0.28139  Biso   1.000  H
  H1428    1.0000 0.53401  0.03589  0.31669  Biso   1.000  H
  C1471    1.0000 0.63360  0.29148  0.22799  Biso   1.000  C
  C1472    1.0000 0.58874  0.28474  0.21229  Biso   1.000  C
  C1473    1.0000 0.57890  0.30241  0.19629  Biso   1.000  C
  C1474    1.0000 0.63033  0.24998  0.24998  Biso   1.000  C
  H1429    1.0000 0.60047  0.32448  0.21078  Biso   1.000  H
  H1430    1.0000 0.65428  0.27490  0.27289  Biso   1.000  H
  H1431    1.0000 0.66551  0.29090  0.20148  Biso   1.000  H
  H1432    1.0000 0.64017  0.32159  0.25572  Biso   1.000  H
  C1475    1.0000 0.53057  0.27971  0.23876  Biso   1.000  C
  H1433    1.0000 0.58828  0.26970  0.17372  Biso   1.000  H
  H1434    1.0000 0.57811  0.28160  0.16040  Biso   1.000  H
  H1435    1.0000 0.57400  0.34291  0.18850  Biso   1.000  H
  C1476    1.0000 0.58874  0.21522  0.28771  Biso   1.000  C
  C1477    1.0000 0.63360  0.20848  0.27201  Biso   1.000  C
  H1436    1.0000 0.65428  0.22510  0.22711  Biso   1.000  H
  C1478    1.0000 0.53057  0.22029  0.26124  Biso   1.000  C
  N301     1.0000 0.48404  0.28905  0.20077  Biso   1.000  N
  H1437    1.0000 0.52768  0.30647  0.27079  Biso   1.000  H
  H1438    1.0000 0.60047  0.17552  0.28918  Biso   1.000  H
  H1439    1.0000 0.58828  0.23030  0.32628  Biso   1.000  H
  H1440    1.0000 0.57811  0.21840  0.33960  Biso   1.000  H
  C1479    1.0000 0.57890  0.19759  0.30371  Biso   1.000  C
  H1441    1.0000 0.66551  0.20910  0.29848  Biso   1.000  H
  H1442    1.0000 0.64017  0.17841  0.24428  Biso   1.000  H
  N302     1.0000 0.48404  0.21095  0.29923  Biso   1.000  N
  H1443    1.0000 0.52768  0.19348  0.22921  Biso   1.000  H
  C1480    1.0000 0.44991  0.32725  0.21317  Biso   1.000  C
  H1444    1.0000 0.57400  0.15709  0.31150  Biso   1.000  H
  C1481    1.0000 0.44991  0.17271  0.28683  Biso   1.000  C
  H1445    1.0000 0.45640  0.34869  0.24600  Biso   1.000  H
  C1482    1.0000 0.40045  0.34015  0.17904  Biso   1.000  C
  C1483    1.0000 0.40045  0.15985  0.32096  Biso   1.000  C
  H1446    1.0000 0.45640  0.15131  0.25400  Biso   1.000  H
  C1484    1.0000 0.38630  0.30765  0.13242  Biso   1.000  C
  C1485    1.0000 0.36753  0.38630  0.19235  Biso   1.000  C
  C1486    1.0000 0.38630  0.19235  0.36753  Biso   1.000  C
  C1487    1.0000 0.36753  0.11370  0.30765  Biso   1.000  C
  C1488    1.0000 0.34015  0.32096  0.09955  Biso   1.000  C
  H1447    1.0000 0.40849  0.27599  0.12308  Biso   1.000  H
  C1489    1.0000 0.32096  0.40045  0.15985  Biso   1.000  C
  H1448    1.0000 0.37687  0.40849  0.22401  Biso   1.000  H
  C1490    1.0000 0.34015  0.17904  0.40045  Biso   1.000  C
  H1449    1.0000 0.40849  0.22401  0.37687  Biso   1.000  H
  C1491    1.0000 0.32096  0.09955  0.34015  Biso   1.000  C
  H1450    1.0000 0.37687  0.09151  0.27599  Biso   1.000  H
  C1492    1.0000 0.32725  0.28683  0.05009  Biso   1.000  C
  C1493    1.0000 0.30765  0.36753  0.11370  Biso   1.000  C
  C1494    1.0000 0.28683  0.44991  0.17271  Biso   1.000  C
  C1495    1.0000 0.32725  0.21317  0.44991  Biso   1.000  C
  C1496    1.0000 0.30765  0.13242  0.38630  Biso   1.000  C
  C1497    1.0000 0.28683  0.05009  0.32725  Biso   1.000  C
  N303     1.0000 0.28905  0.29923  0.01596  Biso   1.000  N
  H1451    1.0000 0.34869  0.25400  0.04360  Biso   1.000  H
  H1452    1.0000 0.27599  0.37687  0.09151  Biso   1.000  H
  N304     1.0000 0.29923  0.48404  0.21095  Biso   1.000  N
  H1453    1.0000 0.25400  0.45640  0.15131  Biso   1.000  H
  N305     1.0000 0.28905  0.20077  0.48404  Biso   1.000  N
  H1454    1.0000 0.34869  0.24600  0.45640  Biso   1.000  H
  H1455    1.0000 0.27599  0.12308  0.40849  Biso   1.000  H
  N306     1.0000 0.29923  0.01596  0.28905  Biso   1.000  N
  H1456    1.0000 0.25400  0.04360  0.34869  Biso   1.000  H
  C1498    1.0000 0.27971  0.26124  0.96943  Biso   1.000  C
  C1499    1.0000 0.26124  0.53057  0.22029  Biso   1.000  C
  C1500    1.0000 0.27971  0.23876  0.53057  Biso   1.000  C
  C1501    1.0000 0.26124  0.96943  0.27971  Biso   1.000  C
  C1502    1.0000 0.22029  0.23876  0.96943  Biso   1.000  C
  H1457    1.0000 0.30647  0.22921  0.97232  Biso   1.000  H
  C1503    1.0000 0.28474  0.28771  0.91126  Biso   1.000  C
  C1504    1.0000 0.30241  0.30371  0.92110  Biso   1.000  C
  C1505    1.0000 0.23876  0.53057  0.27971  Biso   1.000  C
  H1458    1.0000 0.22921  0.52768  0.19348  Biso   1.000  H
  C1506    1.0000 0.28771  0.58874  0.21522  Biso   1.000  C
  C1507    1.0000 0.30371  0.57890  0.19759  Biso   1.000  C
  C1508    1.0000 0.22029  0.26124  0.53057  Biso   1.000  C
  H1459    1.0000 0.30647  0.27079  0.52768  Biso   1.000  H
  C1509    1.0000 0.28474  0.21229  0.58874  Biso   1.000  C
  C1510    1.0000 0.30241  0.19629  0.57890  Biso   1.000  C
  C1511    1.0000 0.23876  0.96943  0.22029  Biso   1.000  C
  H1460    1.0000 0.22921  0.97232  0.30647  Biso   1.000  H
  C1512    1.0000 0.28771  0.91126  0.28474  Biso   1.000  C
  C1513    1.0000 0.30371  0.92110  0.30241  Biso   1.000  C
  N307     1.0000 0.21095  0.20077  0.01596  Biso   1.000  N
  H1461    1.0000 0.19348  0.27079  0.97232  Biso   1.000  H
  C1514    1.0000 0.21522  0.21229  0.91126  Biso   1.000  C
  C1515    1.0000 0.19759  0.19629  0.92110  Biso   1.000  C
  H1462    1.0000 0.32448  0.28918  0.89949  Biso   1.000  H
  H1463    1.0000 0.26970  0.32628  0.91172  Biso   1.000  H
  C1516    1.0000 0.24998  0.24998  0.86967  Biso   1.000  C
  H1464    1.0000 0.28160  0.33960  0.92189  Biso   1.000  H
  C1517    1.0000 0.29148  0.27201  0.86640  Biso   1.000  C
  H1465    1.0000 0.34291  0.31150  0.92600  Biso   1.000  H
  N308     1.0000 0.20077  0.48404  0.28905  Biso   1.000  N
  H1466    1.0000 0.27079  0.52768  0.30647  Biso   1.000  H
  C1518    1.0000 0.21229  0.58874  0.28474  Biso   1.000  C
  C1519    1.0000 0.19629  0.57890  0.30241  Biso   1.000  C
  H1467    1.0000 0.28918  0.60047  0.17552  Biso   1.000  H
  H1468    1.0000 0.32628  0.58828  0.23030  Biso   1.000  H
  C1520    1.0000 0.24998  0.63033  0.24998  Biso   1.000  C
  H1469    1.0000 0.33960  0.57811  0.21840  Biso   1.000  H
  C1521    1.0000 0.27201  0.63360  0.20848  Biso   1.000  C
  H1470    1.0000 0.31150  0.57400  0.15709  Biso   1.000  H
  N309     1.0000 0.21095  0.29923  0.48404  Biso   1.000  N
  H1471    1.0000 0.19348  0.22921  0.52768  Biso   1.000  H
  C1522    1.0000 0.21522  0.28771  0.58874  Biso   1.000  C
  C1523    1.0000 0.19759  0.30371  0.57890  Biso   1.000  C
  H1472    1.0000 0.32448  0.21078  0.60047  Biso   1.000  H
  H1473    1.0000 0.26970  0.17372  0.58828  Biso   1.000  H
  C1524    1.0000 0.24998  0.24998  0.63033  Biso   1.000  C
  H1474    1.0000 0.28160  0.16040  0.57811  Biso   1.000  H
  C1525    1.0000 0.29148  0.22799  0.63360  Biso   1.000  C
  H1475    1.0000 0.34291  0.18850  0.57400  Biso   1.000  H
  N310     1.0000 0.20077  0.01596  0.21095  Biso   1.000  N
  H1476    1.0000 0.27079  0.97232  0.19348  Biso   1.000  H
  C1526    1.0000 0.21229  0.91126  0.21522  Biso   1.000  C
  C1527    1.0000 0.19629  0.92110  0.19759  Biso   1.000  C
  H1477    1.0000 0.28918  0.89949  0.32448  Biso   1.000  H
  H1478    1.0000 0.32628  0.91172  0.26970  Biso   1.000  H
  C1528    1.0000 0.24998  0.86967  0.24998  Biso   1.000  C
  H1479    1.0000 0.33960  0.92189  0.28160  Biso   1.000  H
  C1529    1.0000 0.27201  0.86640  0.29148  Biso   1.000  C
  H1480    1.0000 0.31150  0.92600  0.34291  Biso   1.000  H
  C1530    1.0000 0.17271  0.21317  0.05009  Biso   1.000  C
  H1481    1.0000 0.17552  0.21078  0.89949  Biso   1.000  H
  H1482    1.0000 0.23030  0.17372  0.91172  Biso   1.000  H
  H1483    1.0000 0.21840  0.16040  0.92189  Biso   1.000  H
  C1531    1.0000 0.20848  0.22799  0.86640  Biso   1.000  C
  H1484    1.0000 0.15709  0.18850  0.92600  Biso   1.000  H
  H1485    1.0000 0.27490  0.22711  0.84572  Biso   1.000  H
  H1486    1.0000 0.22510  0.27289  0.84572  Biso   1.000  H
  H1487    1.0000 0.29090  0.29848  0.83449  Biso   1.000  H
  H1488    1.0000 0.32159  0.24428  0.85979  Biso   1.000  H
  C1532    1.0000 0.21317  0.44991  0.32725  Biso   1.000  C
  H1489    1.0000 0.21078  0.60047  0.32448  Biso   1.000  H
  H1490    1.0000 0.17372  0.58828  0.26970  Biso   1.000  H
  H1491    1.0000 0.16040  0.57811  0.28160  Biso   1.000  H
  C1533    1.0000 0.22799  0.63360  0.29148  Biso   1.000  C
  H1492    1.0000 0.18850  0.57400  0.34291  Biso   1.000  H
  H1493    1.0000 0.22711  0.65428  0.22510  Biso   1.000  H
  H1494    1.0000 0.27289  0.65428  0.27490  Biso   1.000  H
  H1495    1.0000 0.29848  0.66551  0.20910  Biso   1.000  H
  H1496    1.0000 0.24428  0.64017  0.17841  Biso   1.000  H
  C1534    1.0000 0.17271  0.28683  0.44991  Biso   1.000  C
  H1497    1.0000 0.17552  0.28918  0.60047  Biso   1.000  H
  H1498    1.0000 0.23030  0.32628  0.58828  Biso   1.000  H
  H1499    1.0000 0.21840  0.33960  0.57811  Biso   1.000  H
  C1535    1.0000 0.20848  0.27201  0.63360  Biso   1.000  C
  H1500    1.0000 0.15709  0.31150  0.57400  Biso   1.000  H
  H1501    1.0000 0.27490  0.27289  0.65428  Biso   1.000  H
  H1502    1.0000 0.22510  0.22711  0.65428  Biso   1.000  H
  H1503    1.0000 0.29090  0.20148  0.66551  Biso   1.000  H
  H1504    1.0000 0.32159  0.25572  0.64017  Biso   1.000  H
  C1536    1.0000 0.21317  0.05009  0.17271  Biso   1.000  C
  H1505    1.0000 0.21078  0.89949  0.17552  Biso   1.000  H
  H1506    1.0000 0.17372  0.91172  0.23030  Biso   1.000  H
  H1507    1.0000 0.16040  0.92189  0.21840  Biso   1.000  H
  C1537    1.0000 0.22799  0.86640  0.20848  Biso   1.000  C
  H1508    1.0000 0.18850  0.92600  0.15709  Biso   1.000  H
  H1509    1.0000 0.22711  0.84572  0.27490  Biso   1.000  H
  H1510    1.0000 0.27289  0.84572  0.22510  Biso   1.000  H
  H1511    1.0000 0.29848  0.83449  0.29090  Biso   1.000  H
  H1512    1.0000 0.24428  0.85979  0.32159  Biso   1.000  H
  C1538    1.0000 0.15985  0.17904  0.09955  Biso   1.000  C
  H1513    1.0000 0.15131  0.24600  0.04360  Biso   1.000  H
  H1514    1.0000 0.20910  0.20148  0.83449  Biso   1.000  H
  H1515    1.0000 0.17841  0.25572  0.85979  Biso   1.000  H
  C1539    1.0000 0.17904  0.40045  0.34015  Biso   1.000  C
  H1516    1.0000 0.24600  0.45640  0.34869  Biso   1.000  H
  H1517    1.0000 0.20148  0.66551  0.29090  Biso   1.000  H
  H1518    1.0000 0.25572  0.64017  0.32159  Biso   1.000  H
  H1519    1.0000 0.15131  0.25400  0.45640  Biso   1.000  H
  C1540    1.0000 0.15985  0.32096  0.40045  Biso   1.000  C
  H1520    1.0000 0.20910  0.29848  0.66551  Biso   1.000  H
  H1521    1.0000 0.17841  0.24428  0.64017  Biso   1.000  H
  H1522    1.0000 0.24600  0.04360  0.15131  Biso   1.000  H
  C1541    1.0000 0.17904  0.09955  0.15985  Biso   1.000  C
  H1523    1.0000 0.20148  0.83449  0.20910  Biso   1.000  H
  H1524    1.0000 0.25572  0.85979  0.17841  Biso   1.000  H
  C1542    1.0000 0.19235  0.13242  0.11370  Biso   1.000  C
  C1543    1.0000 0.11370  0.19235  0.13242  Biso   1.000  C
  C1544    1.0000 0.19235  0.36753  0.38630  Biso   1.000  C
  C1545    1.0000 0.13242  0.38630  0.30765  Biso   1.000  C
  C1546    1.0000 0.11370  0.30765  0.36753  Biso   1.000  C
  C1547    1.0000 0.13242  0.11370  0.19235  Biso   1.000  C
  H1525    1.0000 0.22401  0.12308  0.09151  Biso   1.000  H
  C1548    1.0000 0.09955  0.15985  0.17904  Biso   1.000  C
  H1526    1.0000 0.09151  0.22401  0.12308  Biso   1.000  H
  H1527    1.0000 0.22401  0.37687  0.40849  Biso   1.000  H
  C1549    1.0000 0.09955  0.34015  0.32096  Biso   1.000  C
  H1528    1.0000 0.12308  0.40849  0.27599  Biso   1.000  H
  H1529    1.0000 0.09151  0.27599  0.37687  Biso   1.000  H
  H1530    1.0000 0.12308  0.09151  0.22401  Biso   1.000  H
  C1550    1.0000 0.05009  0.17271  0.21317  Biso   1.000  C
  C1551    1.0000 0.05009  0.32725  0.28683  Biso   1.000  C
  N311     1.0000 0.01596  0.21095  0.20077  Biso   1.000  N
  H1531    1.0000 0.04360  0.15131  0.24600  Biso   1.000  H
  N312     1.0000 0.01596  0.28905  0.29923  Biso   1.000  N
  H1532    1.0000 0.04360  0.34869  0.25400  Biso   1.000  H
  C1552    1.0000 0.96943  0.22029  0.23876  Biso   1.000  C
  C1553    1.0000 0.96943  0.27971  0.26124  Biso   1.000  C
  H1533    1.0000 0.97232  0.19348  0.27079  Biso   1.000  H
  C1554    1.0000 0.91126  0.21522  0.21229  Biso   1.000  C
  C1555    1.0000 0.92110  0.19759  0.19629  Biso   1.000  C
  H1534    1.0000 0.97232  0.30647  0.22921  Biso   1.000  H
  C1556    1.0000 0.91126  0.28474  0.28771  Biso   1.000  C
  C1557    1.0000 0.92110  0.30241  0.30371  Biso   1.000  C
  C1558    1.0000 0.86967  0.24998  0.24998  Biso   1.000  C
  H1535    1.0000 0.89949  0.17552  0.21078  Biso   1.000  H
  H1536    1.0000 0.91172  0.23030  0.17372  Biso   1.000  H
  H1537    1.0000 0.92189  0.21840  0.16040  Biso   1.000  H
  C1559    1.0000 0.86640  0.20848  0.22799  Biso   1.000  C
  H1538    1.0000 0.92600  0.15709  0.18850  Biso   1.000  H
  H1539    1.0000 0.89949  0.32448  0.28918  Biso   1.000  H
  H1540    1.0000 0.91172  0.26970  0.32628  Biso   1.000  H
  H1541    1.0000 0.92189  0.28160  0.33960  Biso   1.000  H
  C1560    1.0000 0.86640  0.29148  0.27201  Biso   1.000  C
  H1542    1.0000 0.92600  0.34291  0.31150  Biso   1.000  H
  H1543    1.0000 0.84572  0.27490  0.22711  Biso   1.000  H
  H1544    1.0000 0.84572  0.22510  0.27289  Biso   1.000  H
  H1545    1.0000 0.83449  0.20910  0.20148  Biso   1.000  H
  H1546    1.0000 0.85979  0.17841  0.25572  Biso   1.000  H
  H1547    1.0000 0.83449  0.29090  0.29848  Biso   1.000  H
  H1548    1.0000 0.85979  0.32159  0.24428  Biso   1.000  H
