data_image0
_cell_length_a       23.76
_cell_length_b       23.76
_cell_length_c       23.76
_cell_angle_alpha    90
_cell_angle_beta     90
_cell_angle_gamma    90

_symmetry_space_group_name_H-M    "P 1"
_symmetry_int_tables_number       1

loop_
  _symmetry_equiv_pos_as_xyz
  'x, y, z'

loop_
  _atom_site_label
  _atom_site_occupancy
  _atom_site_fract_x
  _atom_site_fract_y
  _atom_site_fract_z
  _atom_site_thermal_displace_type
  _atom_site_B_iso_or_equiv
  _atom_site_type_symbol
  C1       1.0000 0.55560  0.38274  0.36587  Biso   1.000  C
  C2       1.0000 0.57020  0.35046  0.41221  Biso   1.000  C
  C3       1.0000 0.58784  0.42980  0.35046  Biso   1.000  C
  H1       1.0000 0.52340  0.37290  0.34432  Biso   1.000  H
  C4       1.0000 0.53733  0.29949  0.42513  Biso   1.000  C
  C5       1.0000 0.61726  0.36587  0.44440  Biso   1.000  C
  C6       1.0000 0.63413  0.44440  0.38274  Biso   1.000  C
  C7       1.0000 0.57492  0.46267  0.29949  Biso   1.000  C
  N1       1.0000 0.55034  0.26599  0.46481  Biso   1.000  N
  H2       1.0000 0.50509  0.29129  0.40290  Biso   1.000  H
  C8       1.0000 0.64958  0.41221  0.42980  Biso   1.000  C
  H3       1.0000 0.62710  0.34432  0.47660  Biso   1.000  H
  H4       1.0000 0.65572  0.47660  0.37290  Biso   1.000  H
  N2       1.0000 0.53519  0.44966  0.26599  Biso   1.000  N
  H5       1.0000 0.59710  0.49491  0.29129  Biso   1.000  H
  C9       1.0000 0.51414  0.21662  0.47109  Biso   1.000  C
  C10      1.0000 0.70051  0.42513  0.46267  Biso   1.000  C
  C11      1.0000 0.52896  0.48586  0.21662  Biso   1.000  C
  C12      1.0000 0.48586  0.21662  0.52896  Biso   1.000  C
  H6       1.0000 0.53691  0.18199  0.46671  Biso   1.000  H
  H7       1.0000 0.48502  0.21679  0.44129  Biso   1.000  H
  N3       1.0000 0.73401  0.46481  0.44966  Biso   1.000  N
  H8       1.0000 0.70871  0.40290  0.49491  Biso   1.000  H
  C13      1.0000 0.47109  0.51414  0.21662  Biso   1.000  C
  H9       1.0000 0.53329  0.46309  0.18199  Biso   1.000  H
  H10      1.0000 0.55871  0.51503  0.21679  Biso   1.000  H
  N4       1.0000 0.44966  0.26599  0.53519  Biso   1.000  N
  H11      1.0000 0.46309  0.18199  0.53329  Biso   1.000  H
  H12      1.0000 0.51503  0.21679  0.55871  Biso   1.000  H
  C14      1.0000 0.78338  0.47109  0.48586  Biso   1.000  C
  N5       1.0000 0.46481  0.55034  0.26599  Biso   1.000  N
  H13      1.0000 0.46671  0.53691  0.18199  Biso   1.000  H
  H14      1.0000 0.44129  0.48502  0.21679  Biso   1.000  H
  C15      1.0000 0.46267  0.29949  0.57492  Biso   1.000  C
  C16      1.0000 0.78338  0.52896  0.51414  Biso   1.000  C
  H15      1.0000 0.81801  0.46671  0.46309  Biso   1.000  H
  H16      1.0000 0.78321  0.44129  0.51503  Biso   1.000  H
  C17      1.0000 0.42513  0.53733  0.29949  Biso   1.000  C
  H17      1.0000 0.49491  0.29129  0.59710  Biso   1.000  H
  C18      1.0000 0.42980  0.35046  0.58784  Biso   1.000  C
  N6       1.0000 0.73401  0.53519  0.55034  Biso   1.000  N
  H18      1.0000 0.81801  0.53329  0.53691  Biso   1.000  H
  H19      1.0000 0.78321  0.55871  0.48502  Biso   1.000  H
  H20      1.0000 0.40290  0.50509  0.29129  Biso   1.000  H
  C19      1.0000 0.41221  0.57020  0.35046  Biso   1.000  C
  C20      1.0000 0.38274  0.36587  0.55560  Biso   1.000  C
  C21      1.0000 0.44440  0.38274  0.63413  Biso   1.000  C
  C22      1.0000 0.70051  0.57492  0.53733  Biso   1.000  C
  C23      1.0000 0.44440  0.61726  0.36587  Biso   1.000  C
  C24      1.0000 0.36587  0.55560  0.38274  Biso   1.000  C
  C25      1.0000 0.35046  0.41221  0.57020  Biso   1.000  C
  H21      1.0000 0.37290  0.34432  0.52340  Biso   1.000  H
  C26      1.0000 0.41221  0.42980  0.64958  Biso   1.000  C
  H22      1.0000 0.47660  0.37290  0.65572  Biso   1.000  H
  H23      1.0000 0.70871  0.59710  0.50509  Biso   1.000  H
  C27      1.0000 0.64958  0.58784  0.57020  Biso   1.000  C
  C28      1.0000 0.42980  0.64958  0.41221  Biso   1.000  C
  H24      1.0000 0.47660  0.62710  0.34432  Biso   1.000  H
  C29      1.0000 0.35046  0.58784  0.42980  Biso   1.000  C
  H25      1.0000 0.34432  0.52340  0.37290  Biso   1.000  H
  C30      1.0000 0.29949  0.42513  0.53733  Biso   1.000  C
  C31      1.0000 0.36587  0.44440  0.61726  Biso   1.000  C
  C32      1.0000 0.42513  0.46267  0.70051  Biso   1.000  C
  C33      1.0000 0.61726  0.63413  0.55560  Biso   1.000  C
  C34      1.0000 0.63413  0.55560  0.61726  Biso   1.000  C
  C35      1.0000 0.46267  0.70051  0.42513  Biso   1.000  C
  C36      1.0000 0.38274  0.63413  0.44440  Biso   1.000  C
  C37      1.0000 0.29949  0.57492  0.46267  Biso   1.000  C
  N7       1.0000 0.26599  0.46481  0.55034  Biso   1.000  N
  H26      1.0000 0.29129  0.40290  0.50509  Biso   1.000  H
  H27      1.0000 0.34432  0.47660  0.62710  Biso   1.000  H
  N8       1.0000 0.46481  0.44966  0.73401  Biso   1.000  N
  H28      1.0000 0.40290  0.49491  0.70871  Biso   1.000  H
  C38      1.0000 0.57020  0.64958  0.58784  Biso   1.000  C
  H29      1.0000 0.62710  0.65572  0.52340  Biso   1.000  H
  C39      1.0000 0.58784  0.57020  0.64958  Biso   1.000  C
  H30      1.0000 0.65572  0.52340  0.62710  Biso   1.000  H
  N9       1.0000 0.44966  0.73401  0.46481  Biso   1.000  N
  H31      1.0000 0.49491  0.70871  0.40290  Biso   1.000  H
  H32      1.0000 0.37290  0.65572  0.47660  Biso   1.000  H
  N10      1.0000 0.26599  0.53519  0.44966  Biso   1.000  N
  H33      1.0000 0.29129  0.59710  0.49491  Biso   1.000  H
  C40      1.0000 0.21662  0.47109  0.51414  Biso   1.000  C
  C41      1.0000 0.47109  0.48586  0.78338  Biso   1.000  C
  C42      1.0000 0.53733  0.70051  0.57492  Biso   1.000  C
  C43      1.0000 0.55560  0.61726  0.63413  Biso   1.000  C
  C44      1.0000 0.57492  0.53733  0.70051  Biso   1.000  C
  C45      1.0000 0.48586  0.78338  0.47109  Biso   1.000  C
  C46      1.0000 0.21662  0.52896  0.48586  Biso   1.000  C
  H34      1.0000 0.18199  0.46671  0.53691  Biso   1.000  H
  H35      1.0000 0.21679  0.44129  0.48502  Biso   1.000  H
  C47      1.0000 0.52896  0.51414  0.78338  Biso   1.000  C
  H36      1.0000 0.46671  0.46309  0.81801  Biso   1.000  H
  H37      1.0000 0.44129  0.51503  0.78321  Biso   1.000  H
  N11      1.0000 0.55034  0.73401  0.53519  Biso   1.000  N
  H38      1.0000 0.50509  0.70871  0.59710  Biso   1.000  H
  H39      1.0000 0.52340  0.62710  0.65572  Biso   1.000  H
  N12      1.0000 0.53519  0.55034  0.73401  Biso   1.000  N
  H40      1.0000 0.59710  0.50509  0.70871  Biso   1.000  H
  C48      1.0000 0.51414  0.78338  0.52896  Biso   1.000  C
  H41      1.0000 0.46309  0.81801  0.46671  Biso   1.000  H
  H42      1.0000 0.51503  0.78321  0.44129  Biso   1.000  H
  H43      1.0000 0.18199  0.53329  0.46309  Biso   1.000  H
  H44      1.0000 0.21679  0.55871  0.51503  Biso   1.000  H
  H45      1.0000 0.53329  0.53691  0.81801  Biso   1.000  H
  H46      1.0000 0.55871  0.48502  0.78321  Biso   1.000  H
  H47      1.0000 0.53691  0.81801  0.53329  Biso   1.000  H
  H48      1.0000 0.48502  0.78321  0.55871  Biso   1.000  H
  C49      1.0000 0.45093  0.32715  0.21296  Biso   1.000  C
  N13      1.0000 0.48565  0.28906  0.20017  Biso   1.000  N
  H49      1.0000 0.45732  0.34832  0.24630  Biso   1.000  H
  C50      1.0000 0.40105  0.34040  0.17870  Biso   1.000  C
  C51      1.0000 0.53224  0.27988  0.23859  Biso   1.000  C
  C52      1.0000 0.36810  0.38657  0.19230  Biso   1.000  C
  C53      1.0000 0.38657  0.30770  0.13190  Biso   1.000  C
  C54      1.0000 0.53224  0.22012  0.26141  Biso   1.000  C
  H50      1.0000 0.52929  0.30699  0.27071  Biso   1.000  H
  C55      1.0000 0.58969  0.28657  0.21040  Biso   1.000  C
  C56      1.0000 0.32130  0.40105  0.15964  Biso   1.000  C
  H51      1.0000 0.37740  0.40871  0.22420  Biso   1.000  H
  C57      1.0000 0.34040  0.32130  0.09899  Biso   1.000  C
  H52      1.0000 0.40871  0.27580  0.12260  Biso   1.000  H
  N14      1.0000 0.48565  0.21094  0.29987  Biso   1.000  N
  H53      1.0000 0.52929  0.19301  0.22929  Biso   1.000  H
  C58      1.0000 0.58969  0.21343  0.28960  Biso   1.000  C
  C59      1.0000 0.62950  0.25000  0.25000  Biso   1.000  C
  H54      1.0000 0.60160  0.32652  0.20960  Biso   1.000  H
  H55      1.0000 0.58923  0.27172  0.17151  Biso   1.000  H
  C60      1.0000 0.63662  0.28051  0.23918  Biso   1.000  C
  C61      1.0000 0.28704  0.45093  0.17285  Biso   1.000  C
  C62      1.0000 0.30770  0.36810  0.11343  Biso   1.000  C
  C63      1.0000 0.32715  0.28704  0.04907  Biso   1.000  C
  C64      1.0000 0.45093  0.17285  0.28704  Biso   1.000  C
  H56      1.0000 0.60160  0.17348  0.29040  Biso   1.000  H
  H57      1.0000 0.58923  0.22828  0.32849  Biso   1.000  H
  C65      1.0000 0.63662  0.21949  0.26082  Biso   1.000  C
  H58      1.0000 0.65379  0.22508  0.22710  Biso   1.000  H
  H59      1.0000 0.65379  0.27492  0.27290  Biso   1.000  H
  H60      1.0000 0.63779  0.30732  0.27109  Biso   1.000  H
  H61      1.0000 0.66970  0.28729  0.21481  Biso   1.000  H
  N15      1.0000 0.29987  0.48565  0.21094  Biso   1.000  N
  H62      1.0000 0.25370  0.45732  0.15168  Biso   1.000  H
  H63      1.0000 0.27580  0.37740  0.09129  Biso   1.000  H
  N16      1.0000 0.28906  0.29987  0.01435  Biso   1.000  N
  H64      1.0000 0.34832  0.25370  0.04272  Biso   1.000  H
  C66      1.0000 0.40105  0.15964  0.32130  Biso   1.000  C
  H65      1.0000 0.45732  0.15168  0.25370  Biso   1.000  H
  H66      1.0000 0.63779  0.19272  0.22891  Biso   1.000  H
  H67      1.0000 0.66970  0.21271  0.28519  Biso   1.000  H
  C67      1.0000 0.26141  0.53224  0.22012  Biso   1.000  C
  C68      1.0000 0.27988  0.26141  0.96776  Biso   1.000  C
  C69      1.0000 0.36810  0.11343  0.30770  Biso   1.000  C
  C70      1.0000 0.38657  0.19230  0.36810  Biso   1.000  C
  C71      1.0000 0.23859  0.53224  0.27988  Biso   1.000  C
  H68      1.0000 0.22929  0.52929  0.19301  Biso   1.000  H
  C72      1.0000 0.28960  0.58969  0.21343  Biso   1.000  C
  C73      1.0000 0.22012  0.23859  0.96776  Biso   1.000  C
  H69      1.0000 0.30699  0.22929  0.97071  Biso   1.000  H
  C74      1.0000 0.28657  0.28960  0.91035  Biso   1.000  C
  C75      1.0000 0.32130  0.09899  0.34040  Biso   1.000  C
  H70      1.0000 0.37740  0.09129  0.27580  Biso   1.000  H
  C76      1.0000 0.34040  0.17870  0.40105  Biso   1.000  C
  H71      1.0000 0.40871  0.22420  0.37740  Biso   1.000  H
  N17      1.0000 0.20017  0.48565  0.28906  Biso   1.000  N
  H72      1.0000 0.27071  0.52929  0.30699  Biso   1.000  H
  C77      1.0000 0.21040  0.58969  0.28657  Biso   1.000  C
  H73      1.0000 0.29040  0.60160  0.17348  Biso   1.000  H
  H74      1.0000 0.32849  0.58923  0.22828  Biso   1.000  H
  C78      1.0000 0.25000  0.62950  0.25000  Biso   1.000  C
  C79      1.0000 0.26082  0.63662  0.21949  Biso   1.000  C
  N18      1.0000 0.21094  0.20017  0.01435  Biso   1.000  N
  H75      1.0000 0.19301  0.27071  0.97071  Biso   1.000  H
  C80      1.0000 0.21343  0.21040  0.91035  Biso   1.000  C
  H76      1.0000 0.32652  0.29040  0.89840  Biso   1.000  H
  H77      1.0000 0.27172  0.32849  0.91082  Biso   1.000  H
  C81      1.0000 0.25000  0.25000  0.87054  Biso   1.000  C
  C82      1.0000 0.28051  0.26082  0.86343  Biso   1.000  C
  C83      1.0000 0.28704  0.04907  0.32715  Biso   1.000  C
  C84      1.0000 0.30770  0.13190  0.38657  Biso   1.000  C
  C85      1.0000 0.32715  0.21296  0.45093  Biso   1.000  C
  C86      1.0000 0.21296  0.45093  0.32715  Biso   1.000  C
  H78      1.0000 0.20960  0.60160  0.32652  Biso   1.000  H
  H79      1.0000 0.17151  0.58923  0.27172  Biso   1.000  H
  C87      1.0000 0.23918  0.63662  0.28051  Biso   1.000  C
  H80      1.0000 0.27290  0.65379  0.27492  Biso   1.000  H
  H81      1.0000 0.22710  0.65379  0.22508  Biso   1.000  H
  H82      1.0000 0.22891  0.63779  0.19272  Biso   1.000  H
  H83      1.0000 0.28519  0.66970  0.21271  Biso   1.000  H
  C88      1.0000 0.17285  0.21296  0.04907  Biso   1.000  C
  H84      1.0000 0.17348  0.20960  0.89840  Biso   1.000  H
  H85      1.0000 0.22828  0.17151  0.91082  Biso   1.000  H
  C89      1.0000 0.21949  0.23918  0.86343  Biso   1.000  C
  H86      1.0000 0.22508  0.27290  0.84621  Biso   1.000  H
  H87      1.0000 0.27492  0.22710  0.84621  Biso   1.000  H
  H88      1.0000 0.30732  0.22891  0.86221  Biso   1.000  H
  H89      1.0000 0.28729  0.28519  0.83030  Biso   1.000  H
  N19      1.0000 0.29987  0.01435  0.28906  Biso   1.000  N
  H90      1.0000 0.25370  0.04272  0.34832  Biso   1.000  H
  H91      1.0000 0.27580  0.12260  0.40871  Biso   1.000  H
  N20      1.0000 0.28906  0.20017  0.48565  Biso   1.000  N
  H92      1.0000 0.34832  0.24630  0.45732  Biso   1.000  H
  C90      1.0000 0.17870  0.40105  0.34040  Biso   1.000  C
  H93      1.0000 0.24630  0.45732  0.34832  Biso   1.000  H
  H94      1.0000 0.27109  0.63779  0.30732  Biso   1.000  H
  H95      1.0000 0.21481  0.66970  0.28729  Biso   1.000  H
  C91      1.0000 0.15964  0.17870  0.09899  Biso   1.000  C
  H96      1.0000 0.15168  0.24630  0.04272  Biso   1.000  H
  H97      1.0000 0.19272  0.27109  0.86221  Biso   1.000  H
  H98      1.0000 0.21271  0.21481  0.83030  Biso   1.000  H
  C92      1.0000 0.26141  0.96776  0.27988  Biso   1.000  C
  C93      1.0000 0.27988  0.23859  0.53224  Biso   1.000  C
  C94      1.0000 0.19230  0.36810  0.38657  Biso   1.000  C
  C95      1.0000 0.13190  0.38657  0.30770  Biso   1.000  C
  C96      1.0000 0.19230  0.13190  0.11343  Biso   1.000  C
  C97      1.0000 0.11343  0.19230  0.13190  Biso   1.000  C
  C98      1.0000 0.23859  0.96776  0.22012  Biso   1.000  C
  H99      1.0000 0.22929  0.97071  0.30699  Biso   1.000  H
  C99      1.0000 0.28960  0.91035  0.28657  Biso   1.000  C
  C100     1.0000 0.22012  0.26141  0.53224  Biso   1.000  C
  H100     1.0000 0.30699  0.27071  0.52929  Biso   1.000  H
  C101     1.0000 0.28657  0.21040  0.58969  Biso   1.000  C
  C102     1.0000 0.15964  0.32130  0.40105  Biso   1.000  C
  H101     1.0000 0.22420  0.37740  0.40871  Biso   1.000  H
  C103     1.0000 0.09899  0.34040  0.32130  Biso   1.000  C
  H102     1.0000 0.12260  0.40871  0.27580  Biso   1.000  H
  C104     1.0000 0.17870  0.09899  0.15964  Biso   1.000  C
  H103     1.0000 0.22420  0.12260  0.09129  Biso   1.000  H
  C105     1.0000 0.09899  0.15964  0.17870  Biso   1.000  C
  H104     1.0000 0.09129  0.22420  0.12260  Biso   1.000  H
  N21      1.0000 0.20017  0.01435  0.21094  Biso   1.000  N
  H105     1.0000 0.27071  0.97071  0.19301  Biso   1.000  H
  C106     1.0000 0.21040  0.91035  0.21343  Biso   1.000  C
  H106     1.0000 0.29040  0.89840  0.32652  Biso   1.000  H
  H107     1.0000 0.32849  0.91082  0.27172  Biso   1.000  H
  C107     1.0000 0.25000  0.87054  0.25000  Biso   1.000  C
  C108     1.0000 0.26082  0.86343  0.28051  Biso   1.000  C
  N22      1.0000 0.21094  0.29987  0.48565  Biso   1.000  N
  H108     1.0000 0.19301  0.22929  0.52929  Biso   1.000  H
  C109     1.0000 0.21343  0.28960  0.58969  Biso   1.000  C
  H109     1.0000 0.32652  0.20960  0.60160  Biso   1.000  H
  H110     1.0000 0.27172  0.17151  0.58923  Biso   1.000  H
  C110     1.0000 0.25000  0.25000  0.62950  Biso   1.000  C
  C111     1.0000 0.28051  0.23918  0.63662  Biso   1.000  C
  C112     1.0000 0.17285  0.28704  0.45093  Biso   1.000  C
  C113     1.0000 0.11343  0.30770  0.36810  Biso   1.000  C
  C114     1.0000 0.04907  0.32715  0.28704  Biso   1.000  C
  C115     1.0000 0.21296  0.04907  0.17285  Biso   1.000  C
  C116     1.0000 0.13190  0.11343  0.19230  Biso   1.000  C
  C117     1.0000 0.04907  0.17285  0.21296  Biso   1.000  C
  H111     1.0000 0.20960  0.89840  0.17348  Biso   1.000  H
  H112     1.0000 0.17151  0.91082  0.22828  Biso   1.000  H
  C118     1.0000 0.23918  0.86343  0.21949  Biso   1.000  C
  H113     1.0000 0.27290  0.84621  0.22508  Biso   1.000  H
  H114     1.0000 0.22710  0.84621  0.27492  Biso   1.000  H
  H115     1.0000 0.22891  0.86221  0.30732  Biso   1.000  H
  H116     1.0000 0.28519  0.83030  0.28729  Biso   1.000  H
  H117     1.0000 0.17348  0.29040  0.60160  Biso   1.000  H
  H118     1.0000 0.22828  0.32849  0.58923  Biso   1.000  H
  C119     1.0000 0.21949  0.26082  0.63662  Biso   1.000  C
  H119     1.0000 0.22508  0.22710  0.65379  Biso   1.000  H
  H120     1.0000 0.27492  0.27290  0.65379  Biso   1.000  H
  H121     1.0000 0.30732  0.27109  0.63779  Biso   1.000  H
  H122     1.0000 0.28729  0.21481  0.66970  Biso   1.000  H
  H123     1.0000 0.15168  0.25370  0.45732  Biso   1.000  H
  H124     1.0000 0.09129  0.27580  0.37740  Biso   1.000  H
  N23      1.0000 0.01435  0.28906  0.29987  Biso   1.000  N
  H125     1.0000 0.04272  0.34832  0.25370  Biso   1.000  H
  H126     1.0000 0.24630  0.04272  0.15168  Biso   1.000  H
  H127     1.0000 0.12260  0.09129  0.22420  Biso   1.000  H
  N24      1.0000 0.01435  0.21094  0.20017  Biso   1.000  N
  H128     1.0000 0.04272  0.15168  0.24630  Biso   1.000  H
  H129     1.0000 0.27109  0.86221  0.19272  Biso   1.000  H
  H130     1.0000 0.21481  0.83030  0.21271  Biso   1.000  H
  H131     1.0000 0.19272  0.22891  0.63779  Biso   1.000  H
  H132     1.0000 0.21271  0.28519  0.66970  Biso   1.000  H
  C120     1.0000 0.96776  0.27988  0.26141  Biso   1.000  C
  C121     1.0000 0.96776  0.22012  0.23859  Biso   1.000  C
  H133     1.0000 0.97071  0.30699  0.22929  Biso   1.000  H
  C122     1.0000 0.91035  0.28657  0.28960  Biso   1.000  C
  H134     1.0000 0.97071  0.19301  0.27071  Biso   1.000  H
  C123     1.0000 0.91035  0.21343  0.21040  Biso   1.000  C
  C124     1.0000 0.87054  0.25000  0.25000  Biso   1.000  C
  H135     1.0000 0.89840  0.32652  0.29040  Biso   1.000  H
  H136     1.0000 0.91082  0.27172  0.32849  Biso   1.000  H
  C125     1.0000 0.86343  0.28051  0.26082  Biso   1.000  C
  H137     1.0000 0.89840  0.17348  0.20960  Biso   1.000  H
  H138     1.0000 0.91082  0.22828  0.17151  Biso   1.000  H
  C126     1.0000 0.86343  0.21949  0.23918  Biso   1.000  C
  H139     1.0000 0.84621  0.22508  0.27290  Biso   1.000  H
  H140     1.0000 0.84621  0.27492  0.22710  Biso   1.000  H
  H141     1.0000 0.86221  0.30732  0.22891  Biso   1.000  H
  H142     1.0000 0.83030  0.28729  0.28519  Biso   1.000  H
  H143     1.0000 0.86221  0.19272  0.27109  Biso   1.000  H
  H144     1.0000 0.83030  0.21271  0.21481  Biso   1.000  H
  C127     1.0000 0.71953  0.23918  0.36338  Biso   1.000  C
  C128     1.0000 0.71343  0.21040  0.41035  Biso   1.000  C
  H145     1.0000 0.72513  0.27290  0.34621  Biso   1.000  H
  C129     1.0000 0.78051  0.26082  0.36338  Biso   1.000  C
  H146     1.0000 0.69272  0.27109  0.36221  Biso   1.000  H
  H147     1.0000 0.71271  0.21481  0.33030  Biso   1.000  H
  C130     1.0000 0.72012  0.23859  0.46776  Biso   1.000  C
  H148     1.0000 0.67353  0.20960  0.39840  Biso   1.000  H
  H149     1.0000 0.72832  0.17151  0.41082  Biso   1.000  H
  C131     1.0000 0.75000  0.25000  0.37054  Biso   1.000  C
  C132     1.0000 0.78657  0.28960  0.41035  Biso   1.000  C
  H150     1.0000 0.77492  0.22710  0.34621  Biso   1.000  H
  H151     1.0000 0.80732  0.22891  0.36221  Biso   1.000  H
  H152     1.0000 0.78729  0.28519  0.33030  Biso   1.000  H
  N25      1.0000 0.71094  0.20017  0.51439  Biso   1.000  N
  C133     1.0000 0.77988  0.26141  0.46776  Biso   1.000  C
  H153     1.0000 0.69301  0.27071  0.47071  Biso   1.000  H
  H154     1.0000 0.82652  0.29040  0.39840  Biso   1.000  H
  H155     1.0000 0.77172  0.32849  0.41082  Biso   1.000  H
  C134     1.0000 0.67285  0.21296  0.54912  Biso   1.000  C
  N26      1.0000 0.78910  0.29987  0.51439  Biso   1.000  N
  H156     1.0000 0.80703  0.22929  0.47071  Biso   1.000  H
  H157     1.0000 0.65173  0.24630  0.54272  Biso   1.000  H
  C135     1.0000 0.65964  0.17870  0.59899  Biso   1.000  C
  C136     1.0000 0.82715  0.28704  0.54912  Biso   1.000  C
  C137     1.0000 0.69230  0.13190  0.61347  Biso   1.000  C
  C138     1.0000 0.61347  0.19230  0.63190  Biso   1.000  C
  H158     1.0000 0.84832  0.25370  0.54272  Biso   1.000  H
  C139     1.0000 0.84040  0.32130  0.59899  Biso   1.000  C
  C140     1.0000 0.67870  0.09899  0.65964  Biso   1.000  C
  H159     1.0000 0.72420  0.12260  0.59129  Biso   1.000  H
  C141     1.0000 0.59899  0.15964  0.67870  Biso   1.000  C
  H160     1.0000 0.59129  0.22420  0.62260  Biso   1.000  H
  C142     1.0000 0.80770  0.36810  0.61347  Biso   1.000  C
  C143     1.0000 0.88657  0.30770  0.63190  Biso   1.000  C
  C144     1.0000 0.71296  0.04907  0.67285  Biso   1.000  C
  C145     1.0000 0.63190  0.11343  0.69230  Biso   1.000  C
  C146     1.0000 0.54912  0.17285  0.71296  Biso   1.000  C
  C147     1.0000 0.82130  0.40105  0.65964  Biso   1.000  C
  H161     1.0000 0.77580  0.37740  0.59129  Biso   1.000  H
  C148     1.0000 0.90105  0.34040  0.67870  Biso   1.000  C
  H162     1.0000 0.90871  0.27580  0.62260  Biso   1.000  H
  N27      1.0000 0.70017  0.01435  0.71094  Biso   1.000  N
  H163     1.0000 0.74630  0.04272  0.65173  Biso   1.000  H
  H164     1.0000 0.62260  0.09129  0.72420  Biso   1.000  H
  N28      1.0000 0.51439  0.21094  0.70017  Biso   1.000  N
  H165     1.0000 0.54272  0.15168  0.74630  Biso   1.000  H
  C149     1.0000 0.78704  0.45093  0.67285  Biso   1.000  C
  C150     1.0000 0.86810  0.38657  0.69230  Biso   1.000  C
  C151     1.0000 0.95093  0.32715  0.71296  Biso   1.000  C
  C152     1.0000 0.73859  0.96776  0.72012  Biso   1.000  C
  C153     1.0000 0.46776  0.22012  0.73859  Biso   1.000  C
  N29      1.0000 0.79987  0.48565  0.71094  Biso   1.000  N
  H166     1.0000 0.75370  0.45732  0.65173  Biso   1.000  H
  H167     1.0000 0.87740  0.40871  0.72420  Biso   1.000  H
  N30      1.0000 0.98565  0.28906  0.70017  Biso   1.000  N
  H168     1.0000 0.95732  0.34832  0.74630  Biso   1.000  H
  C154     1.0000 0.76141  0.96776  0.77988  Biso   1.000  C
  H169     1.0000 0.77071  0.97071  0.69301  Biso   1.000  H
  C155     1.0000 0.71040  0.91035  0.71343  Biso   1.000  C
  C156     1.0000 0.46776  0.27988  0.76141  Biso   1.000  C
  H170     1.0000 0.47071  0.19301  0.77071  Biso   1.000  H
  C157     1.0000 0.41035  0.21343  0.71040  Biso   1.000  C
  C158     1.0000 0.76141  0.53224  0.72012  Biso   1.000  C
  C159     1.0000 0.03224  0.27988  0.73859  Biso   1.000  C
  N31      1.0000 0.79987  0.01435  0.78910  Biso   1.000  N
  H171     1.0000 0.72929  0.97071  0.80703  Biso   1.000  H
  C160     1.0000 0.78960  0.91035  0.78657  Biso   1.000  C
  H172     1.0000 0.70960  0.89840  0.67353  Biso   1.000  H
  H173     1.0000 0.67151  0.91082  0.72832  Biso   1.000  H
  C161     1.0000 0.75000  0.87054  0.75000  Biso   1.000  C
  C162     1.0000 0.73923  0.86343  0.71953  Biso   1.000  C
  N32      1.0000 0.51439  0.28906  0.79987  Biso   1.000  N
  H174     1.0000 0.47071  0.30699  0.72929  Biso   1.000  H
  C163     1.0000 0.41035  0.28657  0.78960  Biso   1.000  C
  H175     1.0000 0.39840  0.17348  0.70960  Biso   1.000  H
  H176     1.0000 0.41082  0.22828  0.67151  Biso   1.000  H
  C164     1.0000 0.37054  0.25000  0.75000  Biso   1.000  C
  C165     1.0000 0.36338  0.21949  0.73923  Biso   1.000  C
  C166     1.0000 0.73859  0.53224  0.77988  Biso   1.000  C
  H177     1.0000 0.72929  0.52929  0.69301  Biso   1.000  H
  C167     1.0000 0.78960  0.58969  0.71343  Biso   1.000  C
  C168     1.0000 0.03224  0.22012  0.76141  Biso   1.000  C
  H178     1.0000 0.02929  0.30699  0.77071  Biso   1.000  H
  C169     1.0000 0.08969  0.28657  0.71040  Biso   1.000  C
  C170     1.0000 0.78704  0.04907  0.82715  Biso   1.000  C
  H179     1.0000 0.79040  0.89840  0.82652  Biso   1.000  H
  H180     1.0000 0.82849  0.91082  0.77172  Biso   1.000  H
  C171     1.0000 0.76082  0.86343  0.78051  Biso   1.000  C
  H181     1.0000 0.72710  0.84621  0.77492  Biso   1.000  H
  H182     1.0000 0.77290  0.84621  0.72513  Biso   1.000  H
  H183     1.0000 0.77113  0.86221  0.69272  Biso   1.000  H
  H184     1.0000 0.71481  0.83030  0.71271  Biso   1.000  H
  C172     1.0000 0.54912  0.32715  0.78704  Biso   1.000  C
  H185     1.0000 0.39840  0.32652  0.79040  Biso   1.000  H
  H186     1.0000 0.41082  0.27172  0.82849  Biso   1.000  H
  C173     1.0000 0.36338  0.28051  0.76082  Biso   1.000  C
  H187     1.0000 0.34621  0.22508  0.77290  Biso   1.000  H
  H188     1.0000 0.34621  0.27492  0.72710  Biso   1.000  H
  H189     1.0000 0.36221  0.19272  0.77113  Biso   1.000  H
  H190     1.0000 0.33030  0.21271  0.71481  Biso   1.000  H
  N33      1.0000 0.70017  0.48565  0.78910  Biso   1.000  N
  H191     1.0000 0.77071  0.52929  0.80703  Biso   1.000  H
  C174     1.0000 0.71040  0.58969  0.78657  Biso   1.000  C
  H192     1.0000 0.79040  0.60160  0.67353  Biso   1.000  H
  H193     1.0000 0.82849  0.58923  0.72832  Biso   1.000  H
  C175     1.0000 0.75000  0.62950  0.75000  Biso   1.000  C
  C176     1.0000 0.76082  0.63662  0.71953  Biso   1.000  C
  N34      1.0000 0.98565  0.21094  0.79987  Biso   1.000  N
  H194     1.0000 0.02929  0.19301  0.72929  Biso   1.000  H
  C177     1.0000 0.08969  0.21343  0.78960  Biso   1.000  C
  H195     1.0000 0.10160  0.32652  0.70960  Biso   1.000  H
  H196     1.0000 0.08918  0.27172  0.67151  Biso   1.000  H
  C178     1.0000 0.12946  0.25000  0.75000  Biso   1.000  C
  C179     1.0000 0.13662  0.28051  0.73923  Biso   1.000  C
  H197     1.0000 0.75370  0.04272  0.84832  Biso   1.000  H
  C180     1.0000 0.82130  0.09899  0.84040  Biso   1.000  C
  H198     1.0000 0.72891  0.86221  0.80732  Biso   1.000  H
  H199     1.0000 0.78523  0.83030  0.78729  Biso   1.000  H
  H200     1.0000 0.54272  0.34832  0.75370  Biso   1.000  H
  C181     1.0000 0.59899  0.34040  0.82130  Biso   1.000  C
  H201     1.0000 0.36221  0.30732  0.72891  Biso   1.000  H
  H202     1.0000 0.33030  0.28729  0.78523  Biso   1.000  H
  C182     1.0000 0.71296  0.45093  0.82715  Biso   1.000  C
  H203     1.0000 0.70960  0.60160  0.82652  Biso   1.000  H
  H204     1.0000 0.67151  0.58923  0.77172  Biso   1.000  H
  C183     1.0000 0.73923  0.63662  0.78051  Biso   1.000  C
  H205     1.0000 0.72710  0.65379  0.72513  Biso   1.000  H
  H206     1.0000 0.77290  0.65379  0.77492  Biso   1.000  H
  H207     1.0000 0.72891  0.63779  0.69272  Biso   1.000  H
  H208     1.0000 0.78523  0.66970  0.71271  Biso   1.000  H
  C184     1.0000 0.95093  0.17285  0.78704  Biso   1.000  C
  H209     1.0000 0.10160  0.17348  0.79040  Biso   1.000  H
  H210     1.0000 0.08918  0.22828  0.82849  Biso   1.000  H
  C185     1.0000 0.13662  0.21949  0.76082  Biso   1.000  C
  H211     1.0000 0.15379  0.22508  0.72710  Biso   1.000  H
  H212     1.0000 0.15379  0.27492  0.77290  Biso   1.000  H
  H213     1.0000 0.13779  0.30732  0.77113  Biso   1.000  H
  H214     1.0000 0.16970  0.28729  0.71481  Biso   1.000  H
  C186     1.0000 0.86810  0.11343  0.80770  Biso   1.000  C
  C187     1.0000 0.80770  0.13190  0.88657  Biso   1.000  C
  C188     1.0000 0.63190  0.38657  0.80770  Biso   1.000  C
  C189     1.0000 0.61347  0.30770  0.86810  Biso   1.000  C
  H215     1.0000 0.74630  0.45732  0.84832  Biso   1.000  H
  C190     1.0000 0.67870  0.40105  0.84040  Biso   1.000  C
  H216     1.0000 0.77113  0.63779  0.80732  Biso   1.000  H
  H217     1.0000 0.71481  0.66970  0.78729  Biso   1.000  H
  H218     1.0000 0.95732  0.15168  0.75370  Biso   1.000  H
  C191     1.0000 0.90105  0.15964  0.82130  Biso   1.000  C
  H219     1.0000 0.13779  0.19272  0.72891  Biso   1.000  H
  H220     1.0000 0.16970  0.21271  0.78523  Biso   1.000  H
  H221     1.0000 0.87740  0.09129  0.77580  Biso   1.000  H
  C192     1.0000 0.84040  0.17870  0.90105  Biso   1.000  C
  H222     1.0000 0.77580  0.12260  0.90871  Biso   1.000  H
  H223     1.0000 0.62260  0.40871  0.77580  Biso   1.000  H
  C193     1.0000 0.65964  0.32130  0.90105  Biso   1.000  C
  H224     1.0000 0.59129  0.27580  0.87740  Biso   1.000  H
  C194     1.0000 0.69230  0.36810  0.88657  Biso   1.000  C
  C195     1.0000 0.88657  0.19230  0.86810  Biso   1.000  C
  C196     1.0000 0.82715  0.21296  0.95093  Biso   1.000  C
  C197     1.0000 0.67285  0.28704  0.95093  Biso   1.000  C
  H225     1.0000 0.72420  0.37740  0.90871  Biso   1.000  H
  H226     1.0000 0.90871  0.22420  0.87740  Biso   1.000  H
  N35      1.0000 0.78910  0.20017  0.98565  Biso   1.000  N
  H227     1.0000 0.84832  0.24630  0.95732  Biso   1.000  H
  N36      1.0000 0.71094  0.29987  0.98565  Biso   1.000  N
  H228     1.0000 0.65173  0.25370  0.95732  Biso   1.000  H
  C198     1.0000 0.77988  0.23859  0.03224  Biso   1.000  C
  C199     1.0000 0.72012  0.26141  0.03224  Biso   1.000  C
  H229     1.0000 0.80703  0.27071  0.02929  Biso   1.000  H
  C200     1.0000 0.78657  0.21040  0.08969  Biso   1.000  C
  H230     1.0000 0.69301  0.22929  0.02929  Biso   1.000  H
  C201     1.0000 0.71343  0.28960  0.08969  Biso   1.000  C
  H231     1.0000 0.82652  0.20960  0.10160  Biso   1.000  H
  H232     1.0000 0.77172  0.17151  0.08918  Biso   1.000  H
  C202     1.0000 0.75000  0.25000  0.12946  Biso   1.000  C
  C203     1.0000 0.78051  0.23918  0.13662  Biso   1.000  C
  H233     1.0000 0.67353  0.29040  0.10160  Biso   1.000  H
  H234     1.0000 0.72832  0.32849  0.08918  Biso   1.000  H
  C204     1.0000 0.71953  0.26082  0.13662  Biso   1.000  C
  H235     1.0000 0.77492  0.27290  0.15379  Biso   1.000  H
  H236     1.0000 0.72513  0.22710  0.15379  Biso   1.000  H
  H237     1.0000 0.80732  0.27109  0.13779  Biso   1.000  H
  H238     1.0000 0.78729  0.21481  0.16970  Biso   1.000  H
  H239     1.0000 0.69272  0.22891  0.13779  Biso   1.000  H
  H240     1.0000 0.71271  0.28519  0.16970  Biso   1.000  H
  C205     1.0000 0.36338  0.71953  0.23918  Biso   1.000  C
  C206     1.0000 0.41035  0.71343  0.21040  Biso   1.000  C
  C207     1.0000 0.36338  0.78051  0.26082  Biso   1.000  C
  H241     1.0000 0.34621  0.72513  0.27290  Biso   1.000  H
  H242     1.0000 0.36221  0.69272  0.27109  Biso   1.000  H
  H243     1.0000 0.33030  0.71271  0.21481  Biso   1.000  H
  C208     1.0000 0.46776  0.72012  0.23859  Biso   1.000  C
  H244     1.0000 0.39840  0.67353  0.20960  Biso   1.000  H
  H245     1.0000 0.41082  0.72832  0.17151  Biso   1.000  H
  C209     1.0000 0.37054  0.75000  0.25000  Biso   1.000  C
  C210     1.0000 0.41035  0.78657  0.28960  Biso   1.000  C
  H246     1.0000 0.34621  0.77492  0.22710  Biso   1.000  H
  H247     1.0000 0.36221  0.80732  0.22891  Biso   1.000  H
  H248     1.0000 0.33030  0.78729  0.28519  Biso   1.000  H
  N37      1.0000 0.51439  0.71094  0.20017  Biso   1.000  N
  C211     1.0000 0.46776  0.77988  0.26141  Biso   1.000  C
  H249     1.0000 0.47071  0.69301  0.27071  Biso   1.000  H
  H250     1.0000 0.39840  0.82652  0.29040  Biso   1.000  H
  H251     1.0000 0.41082  0.77172  0.32849  Biso   1.000  H
  C212     1.0000 0.54912  0.67285  0.21296  Biso   1.000  C
  N38      1.0000 0.51439  0.78910  0.29987  Biso   1.000  N
  H252     1.0000 0.47071  0.80703  0.22929  Biso   1.000  H
  C213     1.0000 0.59899  0.65964  0.17870  Biso   1.000  C
  H253     1.0000 0.54272  0.65173  0.24630  Biso   1.000  H
  C214     1.0000 0.54912  0.82715  0.28704  Biso   1.000  C
  C215     1.0000 0.63190  0.61347  0.19230  Biso   1.000  C
  C216     1.0000 0.61347  0.69230  0.13190  Biso   1.000  C
  H254     1.0000 0.54272  0.84832  0.25370  Biso   1.000  H
  C217     1.0000 0.59899  0.84040  0.32130  Biso   1.000  C
  C218     1.0000 0.67870  0.59899  0.15964  Biso   1.000  C
  H255     1.0000 0.62260  0.59129  0.22420  Biso   1.000  H
  C219     1.0000 0.65964  0.67870  0.09899  Biso   1.000  C
  H256     1.0000 0.59129  0.72420  0.12260  Biso   1.000  H
  C220     1.0000 0.63190  0.88657  0.30770  Biso   1.000  C
  C221     1.0000 0.61347  0.80770  0.36810  Biso   1.000  C
  C222     1.0000 0.71296  0.54912  0.17285  Biso   1.000  C
  C223     1.0000 0.69230  0.63190  0.11343  Biso   1.000  C
  C224     1.0000 0.67285  0.71296  0.04907  Biso   1.000  C
  C225     1.0000 0.67870  0.90105  0.34040  Biso   1.000  C
  H257     1.0000 0.62260  0.90871  0.27580  Biso   1.000  H
  C226     1.0000 0.65964  0.82130  0.40105  Biso   1.000  C
  H258     1.0000 0.59129  0.77580  0.37740  Biso   1.000  H
  N39      1.0000 0.70017  0.51439  0.21094  Biso   1.000  N
  H259     1.0000 0.74630  0.54272  0.15168  Biso   1.000  H
  H260     1.0000 0.72420  0.62260  0.09129  Biso   1.000  H
  N40      1.0000 0.71094  0.70017  0.01435  Biso   1.000  N
  H261     1.0000 0.65173  0.74630  0.04272  Biso   1.000  H
  C227     1.0000 0.69230  0.86810  0.38657  Biso   1.000  C
  C228     1.0000 0.71296  0.95093  0.32715  Biso   1.000  C
  C229     1.0000 0.67285  0.78704  0.45093  Biso   1.000  C
  C230     1.0000 0.73859  0.46776  0.22012  Biso   1.000  C
  C231     1.0000 0.72012  0.73859  0.96776  Biso   1.000  C
  H262     1.0000 0.72420  0.87740  0.40871  Biso   1.000  H
  N41      1.0000 0.70017  0.98565  0.28906  Biso   1.000  N
  H263     1.0000 0.74630  0.95732  0.34832  Biso   1.000  H
  N42      1.0000 0.71094  0.79987  0.48565  Biso   1.000  N
  H264     1.0000 0.65173  0.75370  0.45732  Biso   1.000  H
  C232     1.0000 0.71040  0.41035  0.21343  Biso   1.000  C
  C233     1.0000 0.76141  0.46776  0.27988  Biso   1.000  C
  H265     1.0000 0.77071  0.47071  0.19301  Biso   1.000  H
  C234     1.0000 0.77988  0.76141  0.96776  Biso   1.000  C
  H266     1.0000 0.69301  0.77071  0.97071  Biso   1.000  H
  C235     1.0000 0.71343  0.71040  0.91035  Biso   1.000  C
  C236     1.0000 0.73859  0.03224  0.27988  Biso   1.000  C
  C237     1.0000 0.72012  0.76141  0.53224  Biso   1.000  C
  H267     1.0000 0.70960  0.39840  0.17348  Biso   1.000  H
  H268     1.0000 0.67151  0.41082  0.22828  Biso   1.000  H
  C238     1.0000 0.75000  0.37054  0.25000  Biso   1.000  C
  C239     1.0000 0.73923  0.36338  0.21949  Biso   1.000  C
  C240     1.0000 0.78960  0.41035  0.28657  Biso   1.000  C
  N43      1.0000 0.79987  0.51439  0.28906  Biso   1.000  N
  H269     1.0000 0.72929  0.47071  0.30699  Biso   1.000  H
  N44      1.0000 0.78910  0.79987  0.01435  Biso   1.000  N
  H270     1.0000 0.80703  0.72929  0.97071  Biso   1.000  H
  C241     1.0000 0.78657  0.78960  0.91035  Biso   1.000  C
  H271     1.0000 0.67353  0.70960  0.89840  Biso   1.000  H
  H272     1.0000 0.72832  0.67151  0.91082  Biso   1.000  H
  C242     1.0000 0.75000  0.75000  0.87054  Biso   1.000  C
  C243     1.0000 0.71953  0.73923  0.86343  Biso   1.000  C
  C244     1.0000 0.76141  0.03224  0.22012  Biso   1.000  C
  H273     1.0000 0.77071  0.02929  0.30699  Biso   1.000  H
  C245     1.0000 0.71040  0.08969  0.28657  Biso   1.000  C
  C246     1.0000 0.77988  0.73859  0.53224  Biso   1.000  C
  H274     1.0000 0.69301  0.72929  0.52929  Biso   1.000  H
  C247     1.0000 0.71343  0.78960  0.58969  Biso   1.000  C
  H275     1.0000 0.72710  0.34621  0.27492  Biso   1.000  H
  H276     1.0000 0.77290  0.34621  0.22508  Biso   1.000  H
  C248     1.0000 0.76082  0.36338  0.28051  Biso   1.000  C
  H277     1.0000 0.77113  0.36221  0.19272  Biso   1.000  H
  H278     1.0000 0.71481  0.33030  0.21271  Biso   1.000  H
  H279     1.0000 0.79040  0.39840  0.32652  Biso   1.000  H
  H280     1.0000 0.82849  0.41082  0.27172  Biso   1.000  H
  C249     1.0000 0.78704  0.54912  0.32715  Biso   1.000  C
  C250     1.0000 0.82715  0.78704  0.04907  Biso   1.000  C
  H281     1.0000 0.82652  0.79040  0.89840  Biso   1.000  H
  H282     1.0000 0.77172  0.82849  0.91082  Biso   1.000  H
  C251     1.0000 0.78051  0.76082  0.86343  Biso   1.000  C
  H283     1.0000 0.77492  0.72710  0.84621  Biso   1.000  H
  H284     1.0000 0.72513  0.77290  0.84621  Biso   1.000  H
  H285     1.0000 0.69272  0.77113  0.86221  Biso   1.000  H
  H286     1.0000 0.71271  0.71481  0.83030  Biso   1.000  H
  N45      1.0000 0.79987  0.98565  0.21094  Biso   1.000  N
  H287     1.0000 0.72929  0.02929  0.19301  Biso   1.000  H
  C252     1.0000 0.78960  0.08969  0.21343  Biso   1.000  C
  H288     1.0000 0.70960  0.10160  0.32652  Biso   1.000  H
  H289     1.0000 0.67151  0.08918  0.27172  Biso   1.000  H
  C253     1.0000 0.75000  0.12946  0.25000  Biso   1.000  C
  C254     1.0000 0.73923  0.13662  0.28051  Biso   1.000  C
  N46      1.0000 0.78910  0.70017  0.48565  Biso   1.000  N
  H290     1.0000 0.80703  0.77071  0.52929  Biso   1.000  H
  C255     1.0000 0.78657  0.71040  0.58969  Biso   1.000  C
  C256     1.0000 0.75000  0.75000  0.62950  Biso   1.000  C
  H291     1.0000 0.67353  0.79040  0.60160  Biso   1.000  H
  H292     1.0000 0.72832  0.82849  0.58923  Biso   1.000  H
  C257     1.0000 0.71953  0.76082  0.63662  Biso   1.000  C
  H293     1.0000 0.72891  0.36221  0.30732  Biso   1.000  H
  H294     1.0000 0.78523  0.33030  0.28729  Biso   1.000  H
  H295     1.0000 0.75370  0.54272  0.34832  Biso   1.000  H
  C258     1.0000 0.82130  0.59899  0.34040  Biso   1.000  C
  H296     1.0000 0.84832  0.75370  0.04272  Biso   1.000  H
  C259     1.0000 0.84040  0.82130  0.09899  Biso   1.000  C
  H297     1.0000 0.80732  0.72891  0.86221  Biso   1.000  H
  H298     1.0000 0.78729  0.78523  0.83030  Biso   1.000  H
  C260     1.0000 0.78704  0.95093  0.17285  Biso   1.000  C
  H299     1.0000 0.79040  0.10160  0.17348  Biso   1.000  H
  H300     1.0000 0.82849  0.08918  0.22828  Biso   1.000  H
  C261     1.0000 0.76082  0.13662  0.21949  Biso   1.000  C
  H301     1.0000 0.72710  0.15379  0.22508  Biso   1.000  H
  H302     1.0000 0.77290  0.15379  0.27492  Biso   1.000  H
  H303     1.0000 0.77113  0.13779  0.30732  Biso   1.000  H
  H304     1.0000 0.71481  0.16970  0.28729  Biso   1.000  H
  C262     1.0000 0.82715  0.71296  0.45093  Biso   1.000  C
  H305     1.0000 0.82652  0.70960  0.60160  Biso   1.000  H
  H306     1.0000 0.77172  0.67151  0.58923  Biso   1.000  H
  C263     1.0000 0.78051  0.73923  0.63662  Biso   1.000  C
  H307     1.0000 0.77492  0.77290  0.65379  Biso   1.000  H
  H308     1.0000 0.72513  0.72710  0.65379  Biso   1.000  H
  H309     1.0000 0.69272  0.72891  0.63779  Biso   1.000  H
  H310     1.0000 0.71271  0.78523  0.66970  Biso   1.000  H
  C264     1.0000 0.86810  0.61347  0.30770  Biso   1.000  C
  C265     1.0000 0.80770  0.63190  0.38657  Biso   1.000  C
  C266     1.0000 0.80770  0.86810  0.11343  Biso   1.000  C
  C267     1.0000 0.88657  0.80770  0.13190  Biso   1.000  C
  C268     1.0000 0.82130  0.90105  0.15964  Biso   1.000  C
  H311     1.0000 0.75370  0.95732  0.15168  Biso   1.000  H
  H312     1.0000 0.72891  0.13779  0.19272  Biso   1.000  H
  H313     1.0000 0.78523  0.16970  0.21271  Biso   1.000  H
  C269     1.0000 0.84040  0.67870  0.40105  Biso   1.000  C
  H314     1.0000 0.84832  0.74630  0.45732  Biso   1.000  H
  H315     1.0000 0.80732  0.77113  0.63779  Biso   1.000  H
  H316     1.0000 0.78729  0.71481  0.66970  Biso   1.000  H
  C270     1.0000 0.90105  0.65964  0.32130  Biso   1.000  C
  H317     1.0000 0.87740  0.59129  0.27580  Biso   1.000  H
  H318     1.0000 0.77580  0.62260  0.40871  Biso   1.000  H
  H319     1.0000 0.77580  0.87740  0.09129  Biso   1.000  H
  C271     1.0000 0.90105  0.84040  0.17870  Biso   1.000  C
  H320     1.0000 0.90871  0.77580  0.12260  Biso   1.000  H
  C272     1.0000 0.86810  0.88657  0.19230  Biso   1.000  C
  C273     1.0000 0.88657  0.69230  0.36810  Biso   1.000  C
  C274     1.0000 0.95093  0.67285  0.28704  Biso   1.000  C
  C275     1.0000 0.95093  0.82715  0.21296  Biso   1.000  C
  H321     1.0000 0.87740  0.90871  0.22420  Biso   1.000  H
  H322     1.0000 0.90871  0.72420  0.37740  Biso   1.000  H
  N47      1.0000 0.98565  0.71094  0.29987  Biso   1.000  N
  H323     1.0000 0.95732  0.65173  0.25370  Biso   1.000  H
  N48      1.0000 0.98565  0.78910  0.20017  Biso   1.000  N
  H324     1.0000 0.95732  0.84832  0.24630  Biso   1.000  H
  C276     1.0000 0.03224  0.72012  0.26141  Biso   1.000  C
  C277     1.0000 0.03224  0.77988  0.23859  Biso   1.000  C
  H325     1.0000 0.02929  0.69301  0.22929  Biso   1.000  H
  C278     1.0000 0.08969  0.71343  0.28960  Biso   1.000  C
  H326     1.0000 0.02929  0.80703  0.27071  Biso   1.000  H
  C279     1.0000 0.08969  0.78657  0.21040  Biso   1.000  C
  H327     1.0000 0.10160  0.67353  0.29040  Biso   1.000  H
  H328     1.0000 0.08918  0.72832  0.32849  Biso   1.000  H
  C280     1.0000 0.12946  0.75000  0.25000  Biso   1.000  C
  C281     1.0000 0.13662  0.71953  0.26082  Biso   1.000  C
  H329     1.0000 0.10160  0.82652  0.20960  Biso   1.000  H
  H330     1.0000 0.08918  0.77172  0.17151  Biso   1.000  H
  C282     1.0000 0.13662  0.78051  0.23918  Biso   1.000  C
  H331     1.0000 0.15379  0.77492  0.27290  Biso   1.000  H
  H332     1.0000 0.15379  0.72513  0.22710  Biso   1.000  H
  H333     1.0000 0.13779  0.69272  0.22891  Biso   1.000  H
  H334     1.0000 0.16970  0.71271  0.28519  Biso   1.000  H
  H335     1.0000 0.13779  0.80732  0.27109  Biso   1.000  H
  H336     1.0000 0.16970  0.78729  0.21481  Biso   1.000  H
  C283     1.0000 0.23918  0.36338  0.71953  Biso   1.000  C
  C284     1.0000 0.21040  0.41035  0.71343  Biso   1.000  C
  H337     1.0000 0.27290  0.34621  0.72513  Biso   1.000  H
  C285     1.0000 0.26082  0.36338  0.78051  Biso   1.000  C
  H338     1.0000 0.27109  0.36221  0.69272  Biso   1.000  H
  H339     1.0000 0.21481  0.33030  0.71271  Biso   1.000  H
  C286     1.0000 0.23859  0.46776  0.72012  Biso   1.000  C
  H340     1.0000 0.20960  0.39840  0.67353  Biso   1.000  H
  H341     1.0000 0.17151  0.41082  0.72832  Biso   1.000  H
  C287     1.0000 0.25000  0.37054  0.75000  Biso   1.000  C
  C288     1.0000 0.28960  0.41035  0.78657  Biso   1.000  C
  H342     1.0000 0.22710  0.34621  0.77492  Biso   1.000  H
  H343     1.0000 0.22891  0.36221  0.80732  Biso   1.000  H
  H344     1.0000 0.28519  0.33030  0.78729  Biso   1.000  H
  N49      1.0000 0.20017  0.51439  0.71094  Biso   1.000  N
  C289     1.0000 0.26141  0.46776  0.77988  Biso   1.000  C
  H345     1.0000 0.27071  0.47071  0.69301  Biso   1.000  H
  H346     1.0000 0.29040  0.39840  0.82652  Biso   1.000  H
  H347     1.0000 0.32849  0.41082  0.77172  Biso   1.000  H
  C290     1.0000 0.21296  0.54912  0.67285  Biso   1.000  C
  N50      1.0000 0.29987  0.51439  0.78910  Biso   1.000  N
  H348     1.0000 0.22929  0.47071  0.80703  Biso   1.000  H
  H349     1.0000 0.24630  0.54272  0.65173  Biso   1.000  H
  C291     1.0000 0.17870  0.59899  0.65964  Biso   1.000  C
  C292     1.0000 0.28704  0.54912  0.82715  Biso   1.000  C
  C293     1.0000 0.13190  0.61347  0.69230  Biso   1.000  C
  C294     1.0000 0.19230  0.63190  0.61347  Biso   1.000  C
  H350     1.0000 0.25370  0.54272  0.84832  Biso   1.000  H
  C295     1.0000 0.32130  0.59899  0.84040  Biso   1.000  C
  C296     1.0000 0.09899  0.65964  0.67870  Biso   1.000  C
  H351     1.0000 0.12260  0.59129  0.72420  Biso   1.000  H
  C297     1.0000 0.15964  0.67870  0.59899  Biso   1.000  C
  H352     1.0000 0.22420  0.62260  0.59129  Biso   1.000  H
  C298     1.0000 0.36810  0.61347  0.80770  Biso   1.000  C
  C299     1.0000 0.30770  0.63190  0.88657  Biso   1.000  C
  C300     1.0000 0.04907  0.67285  0.71296  Biso   1.000  C
  C301     1.0000 0.11343  0.69230  0.63190  Biso   1.000  C
  C302     1.0000 0.17285  0.71296  0.54912  Biso   1.000  C
  C303     1.0000 0.40105  0.65964  0.82130  Biso   1.000  C
  H353     1.0000 0.37740  0.59129  0.77580  Biso   1.000  H
  C304     1.0000 0.34040  0.67870  0.90105  Biso   1.000  C
  H354     1.0000 0.27580  0.62260  0.90871  Biso   1.000  H
  N51      1.0000 0.01435  0.71094  0.70017  Biso   1.000  N
  H355     1.0000 0.04272  0.65173  0.74630  Biso   1.000  H
  H356     1.0000 0.09129  0.72420  0.62260  Biso   1.000  H
  N52      1.0000 0.21094  0.70017  0.51439  Biso   1.000  N
  H357     1.0000 0.15168  0.74630  0.54272  Biso   1.000  H
  C305     1.0000 0.45093  0.67285  0.78704  Biso   1.000  C
  C306     1.0000 0.38657  0.69230  0.86810  Biso   1.000  C
  C307     1.0000 0.32715  0.71296  0.95093  Biso   1.000  C
  C308     1.0000 0.96776  0.72012  0.73859  Biso   1.000  C
  C309     1.0000 0.22012  0.73859  0.46776  Biso   1.000  C
  N53      1.0000 0.48565  0.71094  0.79987  Biso   1.000  N
  H358     1.0000 0.45732  0.65173  0.75370  Biso   1.000  H
  H359     1.0000 0.40871  0.72420  0.87740  Biso   1.000  H
  N54      1.0000 0.28906  0.70017  0.98565  Biso   1.000  N
  H360     1.0000 0.34832  0.74630  0.95732  Biso   1.000  H
  C310     1.0000 0.96776  0.77988  0.76141  Biso   1.000  C
  H361     1.0000 0.97071  0.69301  0.77071  Biso   1.000  H
  C311     1.0000 0.91035  0.71343  0.71040  Biso   1.000  C
  C312     1.0000 0.27988  0.76141  0.46776  Biso   1.000  C
  H362     1.0000 0.19301  0.77071  0.47071  Biso   1.000  H
  C313     1.0000 0.21343  0.71040  0.41035  Biso   1.000  C
  C314     1.0000 0.53224  0.72012  0.76141  Biso   1.000  C
  C315     1.0000 0.27988  0.73859  0.03224  Biso   1.000  C
  N55      1.0000 0.01435  0.78910  0.79987  Biso   1.000  N
  H363     1.0000 0.97071  0.80703  0.72929  Biso   1.000  H
  C316     1.0000 0.91035  0.78657  0.78960  Biso   1.000  C
  H364     1.0000 0.89840  0.67353  0.70960  Biso   1.000  H
  H365     1.0000 0.91082  0.72832  0.67151  Biso   1.000  H
  C317     1.0000 0.87054  0.75000  0.75000  Biso   1.000  C
  C318     1.0000 0.86343  0.71953  0.73923  Biso   1.000  C
  N56      1.0000 0.28906  0.79987  0.51439  Biso   1.000  N
  H366     1.0000 0.30699  0.72929  0.47071  Biso   1.000  H
  C319     1.0000 0.28657  0.78960  0.41035  Biso   1.000  C
  H367     1.0000 0.17348  0.70960  0.39840  Biso   1.000  H
  H368     1.0000 0.22828  0.67151  0.41082  Biso   1.000  H
  C320     1.0000 0.25000  0.75000  0.37054  Biso   1.000  C
  C321     1.0000 0.21949  0.73923  0.36338  Biso   1.000  C
  C322     1.0000 0.53224  0.77988  0.73859  Biso   1.000  C
  H369     1.0000 0.52929  0.69301  0.72929  Biso   1.000  H
  C323     1.0000 0.58969  0.71343  0.78960  Biso   1.000  C
  C324     1.0000 0.22012  0.76141  0.03224  Biso   1.000  C
  H370     1.0000 0.30699  0.77071  0.02929  Biso   1.000  H
  C325     1.0000 0.28657  0.71040  0.08969  Biso   1.000  C
  C326     1.0000 0.04907  0.82715  0.78704  Biso   1.000  C
  H371     1.0000 0.89840  0.82652  0.79040  Biso   1.000  H
  H372     1.0000 0.91082  0.77172  0.82849  Biso   1.000  H
  C327     1.0000 0.86343  0.78051  0.76082  Biso   1.000  C
  H373     1.0000 0.84621  0.77492  0.72710  Biso   1.000  H
  H374     1.0000 0.84621  0.72513  0.77290  Biso   1.000  H
  H375     1.0000 0.86221  0.69272  0.77113  Biso   1.000  H
  H376     1.0000 0.83030  0.71271  0.71481  Biso   1.000  H
  C328     1.0000 0.32715  0.78704  0.54912  Biso   1.000  C
  H377     1.0000 0.32652  0.79040  0.39840  Biso   1.000  H
  H378     1.0000 0.27172  0.82849  0.41082  Biso   1.000  H
  C329     1.0000 0.28051  0.76082  0.36338  Biso   1.000  C
  H379     1.0000 0.22508  0.77290  0.34621  Biso   1.000  H
  H380     1.0000 0.27492  0.72710  0.34621  Biso   1.000  H
  H381     1.0000 0.19272  0.77113  0.36221  Biso   1.000  H
  H382     1.0000 0.21271  0.71481  0.33030  Biso   1.000  H
  N57      1.0000 0.48565  0.78910  0.70017  Biso   1.000  N
  H383     1.0000 0.52929  0.80703  0.77071  Biso   1.000  H
  C330     1.0000 0.58969  0.78657  0.71040  Biso   1.000  C
  H384     1.0000 0.60160  0.67353  0.79040  Biso   1.000  H
  H385     1.0000 0.58923  0.72832  0.82849  Biso   1.000  H
  C331     1.0000 0.62950  0.75000  0.75000  Biso   1.000  C
  C332     1.0000 0.63662  0.71953  0.76082  Biso   1.000  C
  N58      1.0000 0.21094  0.79987  0.98565  Biso   1.000  N
  H386     1.0000 0.19301  0.72929  0.02929  Biso   1.000  H
  C333     1.0000 0.21343  0.78960  0.08969  Biso   1.000  C
  H387     1.0000 0.32652  0.70960  0.10160  Biso   1.000  H
  H388     1.0000 0.27172  0.67151  0.08918  Biso   1.000  H
  C334     1.0000 0.25000  0.75000  0.12946  Biso   1.000  C
  C335     1.0000 0.28051  0.73923  0.13662  Biso   1.000  C
  H389     1.0000 0.04272  0.84832  0.75370  Biso   1.000  H
  C336     1.0000 0.09899  0.84040  0.82130  Biso   1.000  C
  H390     1.0000 0.86221  0.80732  0.72891  Biso   1.000  H
  H391     1.0000 0.83030  0.78729  0.78523  Biso   1.000  H
  H392     1.0000 0.34832  0.75370  0.54272  Biso   1.000  H
  C337     1.0000 0.34040  0.82130  0.59899  Biso   1.000  C
  H393     1.0000 0.30732  0.72891  0.36221  Biso   1.000  H
  H394     1.0000 0.28729  0.78523  0.33030  Biso   1.000  H
  C338     1.0000 0.45093  0.82715  0.71296  Biso   1.000  C
  H395     1.0000 0.60160  0.82652  0.70960  Biso   1.000  H
  H396     1.0000 0.58923  0.77172  0.67151  Biso   1.000  H
  C339     1.0000 0.63662  0.78051  0.73923  Biso   1.000  C
  H397     1.0000 0.65379  0.77492  0.77290  Biso   1.000  H
  H398     1.0000 0.65379  0.72513  0.72710  Biso   1.000  H
  H399     1.0000 0.63779  0.69272  0.72891  Biso   1.000  H
  H400     1.0000 0.66970  0.71271  0.78523  Biso   1.000  H
  C340     1.0000 0.17285  0.78704  0.95093  Biso   1.000  C
  H401     1.0000 0.17348  0.79040  0.10160  Biso   1.000  H
  H402     1.0000 0.22828  0.82849  0.08918  Biso   1.000  H
  C341     1.0000 0.21949  0.76082  0.13662  Biso   1.000  C
  H403     1.0000 0.22508  0.72710  0.15379  Biso   1.000  H
  H404     1.0000 0.27492  0.77290  0.15379  Biso   1.000  H
  H405     1.0000 0.30732  0.77113  0.13779  Biso   1.000  H
  H406     1.0000 0.28729  0.71481  0.16970  Biso   1.000  H
  C342     1.0000 0.13190  0.88657  0.80770  Biso   1.000  C
  C343     1.0000 0.11343  0.80770  0.86810  Biso   1.000  C
  C344     1.0000 0.30770  0.86810  0.61347  Biso   1.000  C
  C345     1.0000 0.38657  0.80770  0.63190  Biso   1.000  C
  H407     1.0000 0.45732  0.84832  0.74630  Biso   1.000  H
  C346     1.0000 0.40105  0.84040  0.67870  Biso   1.000  C
  H408     1.0000 0.63779  0.80732  0.77113  Biso   1.000  H
  H409     1.0000 0.66970  0.78729  0.71481  Biso   1.000  H
  H410     1.0000 0.15168  0.75370  0.95732  Biso   1.000  H
  C347     1.0000 0.15964  0.82130  0.90105  Biso   1.000  C
  H411     1.0000 0.19272  0.72891  0.13779  Biso   1.000  H
  H412     1.0000 0.21271  0.78523  0.16970  Biso   1.000  H
  C348     1.0000 0.17870  0.90105  0.84040  Biso   1.000  C
  H413     1.0000 0.12260  0.90871  0.77580  Biso   1.000  H
  H414     1.0000 0.09129  0.77580  0.87740  Biso   1.000  H
  C349     1.0000 0.32130  0.90105  0.65964  Biso   1.000  C
  H415     1.0000 0.27580  0.87740  0.59129  Biso   1.000  H
  H416     1.0000 0.40871  0.77580  0.62260  Biso   1.000  H
  C350     1.0000 0.36810  0.88657  0.69230  Biso   1.000  C
  C351     1.0000 0.19230  0.86810  0.88657  Biso   1.000  C
  C352     1.0000 0.21296  0.95093  0.82715  Biso   1.000  C
  C353     1.0000 0.28704  0.95093  0.67285  Biso   1.000  C
  H417     1.0000 0.37740  0.90871  0.72420  Biso   1.000  H
  H418     1.0000 0.22420  0.87740  0.90871  Biso   1.000  H
  N59      1.0000 0.20017  0.98565  0.78910  Biso   1.000  N
  H419     1.0000 0.24630  0.95732  0.84832  Biso   1.000  H
  N60      1.0000 0.29987  0.98565  0.71094  Biso   1.000  N
  H420     1.0000 0.25370  0.95732  0.65173  Biso   1.000  H
  C354     1.0000 0.23859  0.03224  0.77988  Biso   1.000  C
  C355     1.0000 0.26141  0.03224  0.72012  Biso   1.000  C
  H421     1.0000 0.27071  0.02929  0.80703  Biso   1.000  H
  C356     1.0000 0.21040  0.08969  0.78657  Biso   1.000  C
  H422     1.0000 0.22929  0.02929  0.69301  Biso   1.000  H
  C357     1.0000 0.28960  0.08969  0.71343  Biso   1.000  C
  H423     1.0000 0.20960  0.10160  0.82652  Biso   1.000  H
  H424     1.0000 0.17151  0.08918  0.77172  Biso   1.000  H
  C358     1.0000 0.25000  0.12946  0.75000  Biso   1.000  C
  C359     1.0000 0.23918  0.13662  0.78051  Biso   1.000  C
  H425     1.0000 0.29040  0.10160  0.67353  Biso   1.000  H
  H426     1.0000 0.32849  0.08918  0.72832  Biso   1.000  H
  C360     1.0000 0.26082  0.13662  0.71953  Biso   1.000  C
  H427     1.0000 0.27290  0.15379  0.77492  Biso   1.000  H
  H428     1.0000 0.22710  0.15379  0.72513  Biso   1.000  H
  H429     1.0000 0.27109  0.13779  0.80732  Biso   1.000  H
  H430     1.0000 0.21481  0.16970  0.78729  Biso   1.000  H
  H431     1.0000 0.22891  0.13779  0.69272  Biso   1.000  H
  H432     1.0000 0.28519  0.16970  0.71271  Biso   1.000  H
  C361     1.0000 0.51414  0.28338  0.02896  Biso   1.000  C
  N61      1.0000 0.55034  0.23401  0.03519  Biso   1.000  N
  H433     1.0000 0.53691  0.31801  0.03329  Biso   1.000  H
  H434     1.0000 0.48502  0.28321  0.05871  Biso   1.000  H
  C362     1.0000 0.48586  0.28338  0.97109  Biso   1.000  C
  C363     1.0000 0.53733  0.20051  0.07487  Biso   1.000  C
  N62      1.0000 0.44966  0.23401  0.96481  Biso   1.000  N
  H435     1.0000 0.46309  0.31801  0.96671  Biso   1.000  H
  H436     1.0000 0.51503  0.28321  0.94133  Biso   1.000  H
  H437     1.0000 0.50509  0.20871  0.09710  Biso   1.000  H
  C364     1.0000 0.57020  0.14954  0.08779  Biso   1.000  C
  C365     1.0000 0.46267  0.20051  0.92513  Biso   1.000  C
  C366     1.0000 0.61726  0.13413  0.05560  Biso   1.000  C
  C367     1.0000 0.55560  0.11726  0.13413  Biso   1.000  C
  H438     1.0000 0.49491  0.20871  0.90290  Biso   1.000  H
  C368     1.0000 0.42980  0.14954  0.91221  Biso   1.000  C
  C369     1.0000 0.64958  0.08779  0.07020  Biso   1.000  C
  H439     1.0000 0.62710  0.15568  0.02340  Biso   1.000  H
  C370     1.0000 0.58784  0.07020  0.14954  Biso   1.000  C
  H440     1.0000 0.52340  0.12710  0.15568  Biso   1.000  H
  C371     1.0000 0.38274  0.13413  0.94440  Biso   1.000  C
  C372     1.0000 0.44440  0.11726  0.86587  Biso   1.000  C
  C373     1.0000 0.70051  0.07487  0.03733  Biso   1.000  C
  C374     1.0000 0.63413  0.05560  0.11726  Biso   1.000  C
  C375     1.0000 0.57492  0.03733  0.20051  Biso   1.000  C
  C376     1.0000 0.35046  0.08779  0.92980  Biso   1.000  C
  H441     1.0000 0.37290  0.15568  0.97660  Biso   1.000  H
  C377     1.0000 0.41221  0.07020  0.85046  Biso   1.000  C
  H442     1.0000 0.47660  0.12710  0.84432  Biso   1.000  H
  N63      1.0000 0.73401  0.03519  0.05034  Biso   1.000  N
  H443     1.0000 0.70871  0.09710  0.00509  Biso   1.000  H
  H444     1.0000 0.65572  0.02340  0.12710  Biso   1.000  H
  N64      1.0000 0.53519  0.05034  0.23401  Biso   1.000  N
  H445     1.0000 0.59710  0.00509  0.20871  Biso   1.000  H
  C378     1.0000 0.29949  0.07487  0.96271  Biso   1.000  C
  C379     1.0000 0.36587  0.05560  0.88274  Biso   1.000  C
  C380     1.0000 0.42513  0.03733  0.79954  Biso   1.000  C
  C381     1.0000 0.78338  0.02896  0.01414  Biso   1.000  C
  C382     1.0000 0.52896  0.01414  0.28338  Biso   1.000  C
  N65      1.0000 0.26599  0.03519  0.94966  Biso   1.000  N
  H446     1.0000 0.29129  0.09710  0.99491  Biso   1.000  H
  H447     1.0000 0.34432  0.02340  0.87290  Biso   1.000  H
  N66      1.0000 0.46481  0.05034  0.76599  Biso   1.000  N
  H448     1.0000 0.40290  0.00509  0.79133  Biso   1.000  H
  H449     1.0000 0.81801  0.03329  0.03691  Biso   1.000  H
  C383     1.0000 0.78338  0.97109  0.98586  Biso   1.000  C
  H450     1.0000 0.78321  0.05871  0.98502  Biso   1.000  H
  H451     1.0000 0.53329  0.03691  0.31801  Biso   1.000  H
  C384     1.0000 0.47109  0.98586  0.28338  Biso   1.000  C
  H452     1.0000 0.55871  0.98502  0.28321  Biso   1.000  H
  C385     1.0000 0.21662  0.02896  0.98586  Biso   1.000  C
  C386     1.0000 0.47109  0.01414  0.71662  Biso   1.000  C
  N67      1.0000 0.73401  0.96481  0.94966  Biso   1.000  N
  H453     1.0000 0.81801  0.96671  0.96313  Biso   1.000  H
  H454     1.0000 0.78321  0.94133  0.01498  Biso   1.000  H
  H455     1.0000 0.44129  0.01498  0.28321  Biso   1.000  H
  N68      1.0000 0.46481  0.94966  0.23401  Biso   1.000  N
  H456     1.0000 0.46671  0.96313  0.31801  Biso   1.000  H
  H457     1.0000 0.21679  0.05871  0.01498  Biso   1.000  H
  C387     1.0000 0.21662  0.97109  0.01414  Biso   1.000  C
  H458     1.0000 0.18199  0.03329  0.96313  Biso   1.000  H
  C388     1.0000 0.52896  0.98586  0.71662  Biso   1.000  C
  H459     1.0000 0.44129  0.98502  0.71679  Biso   1.000  H
  H460     1.0000 0.46671  0.03691  0.68203  Biso   1.000  H
  C389     1.0000 0.70051  0.92513  0.96271  Biso   1.000  C
  C390     1.0000 0.42513  0.96271  0.20051  Biso   1.000  C
  H461     1.0000 0.21679  0.94133  0.98502  Biso   1.000  H
  N69      1.0000 0.26599  0.96481  0.05034  Biso   1.000  N
  H462     1.0000 0.18199  0.96671  0.03691  Biso   1.000  H
  N70      1.0000 0.53519  0.94966  0.76599  Biso   1.000  N
  H463     1.0000 0.53329  0.96313  0.68203  Biso   1.000  H
  H464     1.0000 0.55871  0.01498  0.71679  Biso   1.000  H
  H465     1.0000 0.70871  0.90290  0.99491  Biso   1.000  H
  C391     1.0000 0.64958  0.91221  0.92980  Biso   1.000  C
  H466     1.0000 0.40290  0.99491  0.20871  Biso   1.000  H
  C392     1.0000 0.41221  0.92980  0.14954  Biso   1.000  C
  C393     1.0000 0.29949  0.92513  0.03733  Biso   1.000  C
  C394     1.0000 0.57492  0.96271  0.79954  Biso   1.000  C
  C395     1.0000 0.61726  0.86587  0.94440  Biso   1.000  C
  C396     1.0000 0.63413  0.94440  0.88274  Biso   1.000  C
  C397     1.0000 0.36587  0.94440  0.11726  Biso   1.000  C
  C398     1.0000 0.44440  0.88274  0.13413  Biso   1.000  C
  C399     1.0000 0.35046  0.91221  0.07020  Biso   1.000  C
  H467     1.0000 0.29129  0.90290  0.00509  Biso   1.000  H
  C400     1.0000 0.58784  0.92980  0.85046  Biso   1.000  C
  H468     1.0000 0.59710  0.99491  0.79133  Biso   1.000  H
  C401     1.0000 0.57020  0.85046  0.91221  Biso   1.000  C
  H469     1.0000 0.62710  0.84432  0.97660  Biso   1.000  H
  H470     1.0000 0.65572  0.97660  0.87290  Biso   1.000  H
  H471     1.0000 0.34432  0.97660  0.12710  Biso   1.000  H
  C402     1.0000 0.42980  0.85046  0.08779  Biso   1.000  C
  H472     1.0000 0.47660  0.87290  0.15568  Biso   1.000  H
  C403     1.0000 0.38274  0.86587  0.05560  Biso   1.000  C
  C404     1.0000 0.55560  0.88274  0.86587  Biso   1.000  C
  C405     1.0000 0.53733  0.79954  0.92513  Biso   1.000  C
  C406     1.0000 0.46267  0.79954  0.07487  Biso   1.000  C
  H473     1.0000 0.37290  0.84432  0.02340  Biso   1.000  H
  H474     1.0000 0.52340  0.87290  0.84432  Biso   1.000  H
  N71      1.0000 0.55034  0.76599  0.96481  Biso   1.000  N
  H475     1.0000 0.50509  0.79133  0.90290  Biso   1.000  H
  N72      1.0000 0.44966  0.76599  0.03519  Biso   1.000  N
  H476     1.0000 0.49491  0.79133  0.09710  Biso   1.000  H
  C407     1.0000 0.51414  0.71662  0.97109  Biso   1.000  C
  C408     1.0000 0.48586  0.71662  0.02896  Biso   1.000  C
  H477     1.0000 0.53691  0.68203  0.96671  Biso   1.000  H
  H478     1.0000 0.48502  0.71679  0.94133  Biso   1.000  H
  H479     1.0000 0.46309  0.68203  0.03329  Biso   1.000  H
  H480     1.0000 0.51503  0.71679  0.05871  Biso   1.000  H
  C409     1.0000 0.28338  0.02896  0.51414  Biso   1.000  C
  N73      1.0000 0.23401  0.03519  0.55034  Biso   1.000  N
  H481     1.0000 0.31801  0.03329  0.53691  Biso   1.000  H
  H482     1.0000 0.28321  0.05871  0.48502  Biso   1.000  H
  C410     1.0000 0.28338  0.97109  0.48586  Biso   1.000  C
  C411     1.0000 0.20051  0.07487  0.53733  Biso   1.000  C
  N74      1.0000 0.23401  0.96481  0.44966  Biso   1.000  N
  H483     1.0000 0.31801  0.96671  0.46309  Biso   1.000  H
  H484     1.0000 0.28321  0.94133  0.51503  Biso   1.000  H
  H485     1.0000 0.20871  0.09710  0.50509  Biso   1.000  H
  C412     1.0000 0.14954  0.08779  0.57020  Biso   1.000  C
  C413     1.0000 0.20051  0.92513  0.46267  Biso   1.000  C
  C414     1.0000 0.13413  0.05560  0.61726  Biso   1.000  C
  C415     1.0000 0.11726  0.13413  0.55560  Biso   1.000  C
  H486     1.0000 0.20871  0.90290  0.49491  Biso   1.000  H
  C416     1.0000 0.14954  0.91221  0.42980  Biso   1.000  C
  C417     1.0000 0.08779  0.07020  0.64958  Biso   1.000  C
  H487     1.0000 0.15568  0.02340  0.62710  Biso   1.000  H
  C418     1.0000 0.07020  0.14954  0.58784  Biso   1.000  C
  H488     1.0000 0.12710  0.15568  0.52340  Biso   1.000  H
  C419     1.0000 0.13413  0.94440  0.38274  Biso   1.000  C
  C420     1.0000 0.11726  0.86587  0.44440  Biso   1.000  C
  C421     1.0000 0.07487  0.03733  0.70051  Biso   1.000  C
  C422     1.0000 0.05560  0.11726  0.63413  Biso   1.000  C
  C423     1.0000 0.03733  0.20051  0.57492  Biso   1.000  C
  C424     1.0000 0.08779  0.92980  0.35046  Biso   1.000  C
  H489     1.0000 0.15568  0.97660  0.37290  Biso   1.000  H
  C425     1.0000 0.07020  0.85046  0.41221  Biso   1.000  C
  H490     1.0000 0.12710  0.84432  0.47660  Biso   1.000  H
  N75      1.0000 0.03519  0.05034  0.73401  Biso   1.000  N
  H491     1.0000 0.09710  0.00509  0.70871  Biso   1.000  H
  H492     1.0000 0.02340  0.12710  0.65572  Biso   1.000  H
  N76      1.0000 0.05034  0.23401  0.53519  Biso   1.000  N
  H493     1.0000 0.00509  0.20871  0.59710  Biso   1.000  H
  C426     1.0000 0.07487  0.96271  0.29949  Biso   1.000  C
  C427     1.0000 0.05560  0.88274  0.36587  Biso   1.000  C
  C428     1.0000 0.03733  0.79954  0.42513  Biso   1.000  C
  C429     1.0000 0.02896  0.01414  0.78338  Biso   1.000  C
  C430     1.0000 0.01414  0.28338  0.52896  Biso   1.000  C
  N77      1.0000 0.03519  0.94966  0.26599  Biso   1.000  N
  H494     1.0000 0.09710  0.99491  0.29129  Biso   1.000  H
  H495     1.0000 0.02340  0.87290  0.34432  Biso   1.000  H
  N78      1.0000 0.05034  0.76599  0.46481  Biso   1.000  N
  H496     1.0000 0.00509  0.79133  0.40290  Biso   1.000  H
  H497     1.0000 0.03329  0.03691  0.81801  Biso   1.000  H
  C431     1.0000 0.97109  0.98586  0.78338  Biso   1.000  C
  H498     1.0000 0.05871  0.98502  0.78321  Biso   1.000  H
  H499     1.0000 0.03691  0.31801  0.53329  Biso   1.000  H
  C432     1.0000 0.98586  0.28338  0.47109  Biso   1.000  C
  H500     1.0000 0.98502  0.28321  0.55871  Biso   1.000  H
  C433     1.0000 0.02896  0.98586  0.21662  Biso   1.000  C
  C434     1.0000 0.01414  0.71662  0.47109  Biso   1.000  C
  N79      1.0000 0.96481  0.94966  0.73401  Biso   1.000  N
  H501     1.0000 0.96671  0.96313  0.81801  Biso   1.000  H
  H502     1.0000 0.94133  0.01498  0.78321  Biso   1.000  H
  H503     1.0000 0.01498  0.28321  0.44129  Biso   1.000  H
  N80      1.0000 0.94966  0.23401  0.46481  Biso   1.000  N
  H504     1.0000 0.96313  0.31801  0.46671  Biso   1.000  H
  H505     1.0000 0.05871  0.01498  0.21679  Biso   1.000  H
  C435     1.0000 0.97109  0.01414  0.21662  Biso   1.000  C
  H506     1.0000 0.03329  0.96313  0.18199  Biso   1.000  H
  C436     1.0000 0.98586  0.71662  0.52896  Biso   1.000  C
  H507     1.0000 0.98502  0.71679  0.44129  Biso   1.000  H
  H508     1.0000 0.03691  0.68203  0.46671  Biso   1.000  H
  C437     1.0000 0.92513  0.96271  0.70051  Biso   1.000  C
  C438     1.0000 0.96271  0.20051  0.42513  Biso   1.000  C
  H509     1.0000 0.94133  0.98502  0.21679  Biso   1.000  H
  N81      1.0000 0.96481  0.05034  0.26599  Biso   1.000  N
  H510     1.0000 0.96671  0.03691  0.18199  Biso   1.000  H
  N82      1.0000 0.94966  0.76599  0.53519  Biso   1.000  N
  H511     1.0000 0.96313  0.68203  0.53329  Biso   1.000  H
  H512     1.0000 0.01498  0.71679  0.55871  Biso   1.000  H
  H513     1.0000 0.90290  0.99491  0.70871  Biso   1.000  H
  C439     1.0000 0.91221  0.92980  0.64958  Biso   1.000  C
  H514     1.0000 0.99491  0.20871  0.40290  Biso   1.000  H
  C440     1.0000 0.92980  0.14954  0.41221  Biso   1.000  C
  C441     1.0000 0.92513  0.03733  0.29949  Biso   1.000  C
  C442     1.0000 0.96271  0.79954  0.57492  Biso   1.000  C
  C443     1.0000 0.86587  0.94440  0.61726  Biso   1.000  C
  C444     1.0000 0.94440  0.88274  0.63413  Biso   1.000  C
  C445     1.0000 0.94440  0.11726  0.36587  Biso   1.000  C
  C446     1.0000 0.88274  0.13413  0.44440  Biso   1.000  C
  C447     1.0000 0.91221  0.07020  0.35046  Biso   1.000  C
  H515     1.0000 0.90290  0.00509  0.29129  Biso   1.000  H
  C448     1.0000 0.92980  0.85046  0.58784  Biso   1.000  C
  H516     1.0000 0.99491  0.79133  0.59710  Biso   1.000  H
  C449     1.0000 0.85046  0.91221  0.57020  Biso   1.000  C
  H517     1.0000 0.84432  0.97660  0.62710  Biso   1.000  H
  H518     1.0000 0.97660  0.87290  0.65572  Biso   1.000  H
  H519     1.0000 0.97660  0.12710  0.34432  Biso   1.000  H
  C450     1.0000 0.85046  0.08779  0.42980  Biso   1.000  C
  H520     1.0000 0.87290  0.15568  0.47660  Biso   1.000  H
  C451     1.0000 0.86587  0.05560  0.38274  Biso   1.000  C
  C452     1.0000 0.88274  0.86587  0.55560  Biso   1.000  C
  C453     1.0000 0.79954  0.92513  0.53733  Biso   1.000  C
  C454     1.0000 0.79954  0.07487  0.46267  Biso   1.000  C
  H521     1.0000 0.84432  0.02340  0.37290  Biso   1.000  H
  H522     1.0000 0.87290  0.84432  0.52340  Biso   1.000  H
  N83      1.0000 0.76599  0.96481  0.55034  Biso   1.000  N
  H523     1.0000 0.79133  0.90290  0.50509  Biso   1.000  H
  N84      1.0000 0.76599  0.03519  0.44966  Biso   1.000  N
  H524     1.0000 0.79133  0.09710  0.49491  Biso   1.000  H
  C455     1.0000 0.71662  0.97109  0.51414  Biso   1.000  C
  C456     1.0000 0.71662  0.02896  0.48586  Biso   1.000  C
  H525     1.0000 0.68203  0.96671  0.53691  Biso   1.000  H
  H526     1.0000 0.71679  0.94133  0.48502  Biso   1.000  H
  H527     1.0000 0.68203  0.03329  0.46309  Biso   1.000  H
  H528     1.0000 0.71679  0.05871  0.51503  Biso   1.000  H
  C457     1.0000 0.02896  0.51414  0.28338  Biso   1.000  C
  N85      1.0000 0.03519  0.55034  0.23401  Biso   1.000  N
  H529     1.0000 0.03329  0.53691  0.31801  Biso   1.000  H
  H530     1.0000 0.05871  0.48502  0.28321  Biso   1.000  H
  C458     1.0000 0.97109  0.48586  0.28338  Biso   1.000  C
  C459     1.0000 0.07487  0.53733  0.20051  Biso   1.000  C
  N86      1.0000 0.96481  0.44966  0.23401  Biso   1.000  N
  H531     1.0000 0.96671  0.46309  0.31801  Biso   1.000  H
  H532     1.0000 0.94133  0.51503  0.28321  Biso   1.000  H
  H533     1.0000 0.09710  0.50509  0.20871  Biso   1.000  H
  C460     1.0000 0.08779  0.57020  0.14954  Biso   1.000  C
  C461     1.0000 0.92513  0.46267  0.20051  Biso   1.000  C
  C462     1.0000 0.05560  0.61726  0.13413  Biso   1.000  C
  C463     1.0000 0.13413  0.55560  0.11726  Biso   1.000  C
  H534     1.0000 0.90290  0.49491  0.20871  Biso   1.000  H
  C464     1.0000 0.91221  0.42980  0.14954  Biso   1.000  C
  C465     1.0000 0.07020  0.64958  0.08779  Biso   1.000  C
  H535     1.0000 0.02340  0.62710  0.15568  Biso   1.000  H
  C466     1.0000 0.14954  0.58784  0.07020  Biso   1.000  C
  H536     1.0000 0.15568  0.52340  0.12710  Biso   1.000  H
  C467     1.0000 0.94440  0.38274  0.13413  Biso   1.000  C
  C468     1.0000 0.86587  0.44440  0.11726  Biso   1.000  C
  C469     1.0000 0.03733  0.70051  0.07487  Biso   1.000  C
  C470     1.0000 0.11726  0.63413  0.05560  Biso   1.000  C
  C471     1.0000 0.20051  0.57492  0.03733  Biso   1.000  C
  C472     1.0000 0.92980  0.35046  0.08779  Biso   1.000  C
  H537     1.0000 0.97660  0.37290  0.15568  Biso   1.000  H
  C473     1.0000 0.85046  0.41221  0.07020  Biso   1.000  C
  H538     1.0000 0.84432  0.47660  0.12710  Biso   1.000  H
  N87      1.0000 0.05034  0.73401  0.03519  Biso   1.000  N
  H539     1.0000 0.00509  0.70871  0.09710  Biso   1.000  H
  H540     1.0000 0.12710  0.65572  0.02340  Biso   1.000  H
  N88      1.0000 0.23401  0.53519  0.05034  Biso   1.000  N
  H541     1.0000 0.20871  0.59710  0.00509  Biso   1.000  H
  C474     1.0000 0.96271  0.29949  0.07487  Biso   1.000  C
  C475     1.0000 0.88274  0.36587  0.05560  Biso   1.000  C
  C476     1.0000 0.79954  0.42513  0.03733  Biso   1.000  C
  C477     1.0000 0.01414  0.78338  0.02896  Biso   1.000  C
  C478     1.0000 0.28338  0.52896  0.01414  Biso   1.000  C
  N89      1.0000 0.94966  0.26599  0.03519  Biso   1.000  N
  H542     1.0000 0.99491  0.29129  0.09710  Biso   1.000  H
  H543     1.0000 0.87290  0.34432  0.02340  Biso   1.000  H
  N90      1.0000 0.76599  0.46481  0.05034  Biso   1.000  N
  H544     1.0000 0.79133  0.40290  0.00509  Biso   1.000  H
  H545     1.0000 0.03691  0.81801  0.03329  Biso   1.000  H
  C479     1.0000 0.98586  0.78338  0.97109  Biso   1.000  C
  H546     1.0000 0.98502  0.78321  0.05871  Biso   1.000  H
  H547     1.0000 0.31801  0.53329  0.03691  Biso   1.000  H
  C480     1.0000 0.28338  0.47109  0.98586  Biso   1.000  C
  H548     1.0000 0.28321  0.55871  0.98502  Biso   1.000  H
  C481     1.0000 0.98586  0.21662  0.02896  Biso   1.000  C
  C482     1.0000 0.71662  0.47109  0.01414  Biso   1.000  C
  N91      1.0000 0.94966  0.73401  0.96481  Biso   1.000  N
  H549     1.0000 0.96313  0.81801  0.96671  Biso   1.000  H
  H550     1.0000 0.01498  0.78321  0.94133  Biso   1.000  H
  H551     1.0000 0.28321  0.44129  0.01498  Biso   1.000  H
  N92      1.0000 0.23401  0.46481  0.94966  Biso   1.000  N
  H552     1.0000 0.31801  0.46671  0.96313  Biso   1.000  H
  H553     1.0000 0.01498  0.21679  0.05871  Biso   1.000  H
  H554     1.0000 0.96313  0.18199  0.03329  Biso   1.000  H
  C483     1.0000 0.01414  0.21662  0.97109  Biso   1.000  C
  C484     1.0000 0.71662  0.52896  0.98586  Biso   1.000  C
  H555     1.0000 0.71679  0.44129  0.98502  Biso   1.000  H
  H556     1.0000 0.68203  0.46671  0.03691  Biso   1.000  H
  C485     1.0000 0.96271  0.70051  0.92513  Biso   1.000  C
  C486     1.0000 0.20051  0.42513  0.96271  Biso   1.000  C
  H557     1.0000 0.98502  0.21679  0.94133  Biso   1.000  H
  N93      1.0000 0.05034  0.26599  0.96481  Biso   1.000  N
  H558     1.0000 0.03691  0.18199  0.96671  Biso   1.000  H
  N94      1.0000 0.76599  0.53519  0.94966  Biso   1.000  N
  H559     1.0000 0.68203  0.53329  0.96313  Biso   1.000  H
  H560     1.0000 0.71679  0.55871  0.01498  Biso   1.000  H
  H561     1.0000 0.99491  0.70871  0.90290  Biso   1.000  H
  C487     1.0000 0.92980  0.64958  0.91221  Biso   1.000  C
  H562     1.0000 0.20871  0.40290  0.99491  Biso   1.000  H
  C488     1.0000 0.14954  0.41221  0.92980  Biso   1.000  C
  C489     1.0000 0.03733  0.29949  0.92513  Biso   1.000  C
  C490     1.0000 0.79954  0.57492  0.96271  Biso   1.000  C
  C491     1.0000 0.94440  0.61726  0.86587  Biso   1.000  C
  C492     1.0000 0.88274  0.63413  0.94440  Biso   1.000  C
  C493     1.0000 0.13413  0.44440  0.88274  Biso   1.000  C
  C494     1.0000 0.11726  0.36587  0.94440  Biso   1.000  C
  C495     1.0000 0.07020  0.35046  0.91221  Biso   1.000  C
  H563     1.0000 0.00509  0.29129  0.90290  Biso   1.000  H
  C496     1.0000 0.85046  0.58784  0.92980  Biso   1.000  C
  H564     1.0000 0.79133  0.59710  0.99491  Biso   1.000  H
  C497     1.0000 0.91221  0.57020  0.85046  Biso   1.000  C
  H565     1.0000 0.97660  0.62710  0.84432  Biso   1.000  H
  H566     1.0000 0.87290  0.65572  0.97660  Biso   1.000  H
  C498     1.0000 0.08779  0.42980  0.85046  Biso   1.000  C
  H567     1.0000 0.15568  0.47660  0.87290  Biso   1.000  H
  H568     1.0000 0.12710  0.34432  0.97660  Biso   1.000  H
  C499     1.0000 0.05560  0.38274  0.86587  Biso   1.000  C
  C500     1.0000 0.86587  0.55560  0.88274  Biso   1.000  C
  C501     1.0000 0.92513  0.53733  0.79954  Biso   1.000  C
  C502     1.0000 0.07487  0.46267  0.79954  Biso   1.000  C
  H569     1.0000 0.02340  0.37290  0.84432  Biso   1.000  H
  H570     1.0000 0.84432  0.52340  0.87290  Biso   1.000  H
  N95      1.0000 0.96481  0.55034  0.76599  Biso   1.000  N
  H571     1.0000 0.90290  0.50509  0.79133  Biso   1.000  H
  N96      1.0000 0.03519  0.44966  0.76599  Biso   1.000  N
  H572     1.0000 0.09710  0.49491  0.79133  Biso   1.000  H
  C503     1.0000 0.97109  0.51414  0.71662  Biso   1.000  C
  C504     1.0000 0.02896  0.48586  0.71662  Biso   1.000  C
  H573     1.0000 0.96671  0.53691  0.68203  Biso   1.000  H
  H574     1.0000 0.94133  0.48502  0.71679  Biso   1.000  H
  H575     1.0000 0.03329  0.46309  0.68203  Biso   1.000  H
  H576     1.0000 0.05871  0.51503  0.71679  Biso   1.000  H
  Ne1      1.0000 0.25000  0.25000  0.25000  Biso   1.000  Ne
  He1      1.0000 0.17992  0.17992  0.32008  Biso   1.000  He
  He2      1.0000 0.31946  0.31945  0.31945  Biso   1.000  He
  He3      1.0000 0.31577  0.18423  0.18423  Biso   1.000  He
  He4      1.0000 0.18012  0.31988  0.18012  Biso   1.000  He
  Ar1      1.0000 0.25000  0.25000  0.25000  Biso   1.000  Ar
  Ne2      1.0000 0.50001  0.50001  0.50001  Biso   1.000  Ne
  He5      1.0000 0.42937  0.57064  0.57063  Biso   1.000  He
  He6      1.0000 0.56660  0.43340  0.56660  Biso   1.000  He
  He7      1.0000 0.43143  0.43143  0.43143  Biso   1.000  He
  He8      1.0000 0.56640  0.56640  0.43360  Biso   1.000  He
  Ar2      1.0000 0.50000  0.50000  0.50000  Biso   1.000  Ar
  Ne3      1.0000 0.50001  0.00000  0.00000  Biso   1.000  Ne
  He9      1.0000 0.42937  0.07063  0.07063  Biso   1.000  He
  He10     1.0000 0.56661  0.93340  0.06660  Biso   1.000  He
  He11     1.0000 0.43143  0.93143  0.93143  Biso   1.000  He
  He12     1.0000 0.56640  0.06640  0.93360  Biso   1.000  He
  Ar3      1.0000 0.50000  0.00000  0.00000  Biso   1.000  Ar
  Ne4      1.0000 0.00000  0.50001  0.00000  Biso   1.000  Ne
  He13     1.0000 0.92937  0.57063  0.07063  Biso   1.000  He
  He14     1.0000 0.06661  0.43340  0.06660  Biso   1.000  He
  He15     1.0000 0.93143  0.43143  0.93143  Biso   1.000  He
  He16     1.0000 0.06640  0.56640  0.93360  Biso   1.000  He
  Ar4      1.0000 0.00000  0.50000  0.00000  Biso   1.000  Ar
  Ne5      1.0000 0.00000  0.00000  0.50001  Biso   1.000  Ne
  He17     1.0000 0.92937  0.07063  0.57063  Biso   1.000  He
  He18     1.0000 0.06661  0.93340  0.56660  Biso   1.000  He
  He19     1.0000 0.93143  0.93143  0.43143  Biso   1.000  He
  He20     1.0000 0.06640  0.06640  0.43360  Biso   1.000  He
  Ar5      1.0000 0.00000  0.00000  0.50000  Biso   1.000  Ar
  Ne6      1.0000 0.75001  0.25000  0.75001  Biso   1.000  Ne
  He21     1.0000 0.67994  0.17992  0.82006  Biso   1.000  He
  He22     1.0000 0.81946  0.31945  0.81945  Biso   1.000  He
  He23     1.0000 0.81577  0.18424  0.68425  Biso   1.000  He
  He24     1.0000 0.68012  0.31988  0.68013  Biso   1.000  He
  Ar6      1.0000 0.75002  0.24999  0.75001  Biso   1.000  Ar
  Ne7      1.0000 0.75001  0.75001  0.25000  Biso   1.000  Ne
  He25     1.0000 0.67995  0.67993  0.32007  Biso   1.000  He
  He26     1.0000 0.81946  0.81945  0.31945  Biso   1.000  He
  He27     1.0000 0.81577  0.68423  0.18422  Biso   1.000  He
  He28     1.0000 0.68013  0.81989  0.18012  Biso   1.000  He
  Ar7      1.0000 0.75001  0.75002  0.24999  Biso   1.000  Ar
  Ne8      1.0000 0.25000  0.75001  0.75001  Biso   1.000  Ne
  He29     1.0000 0.17993  0.67993  0.82009  Biso   1.000  He
  He30     1.0000 0.31946  0.81946  0.81945  Biso   1.000  He
  He31     1.0000 0.31576  0.68425  0.68424  Biso   1.000  He
  He32     1.0000 0.18011  0.81987  0.68013  Biso   1.000  He
  Ar8      1.0000 0.24999  0.75001  0.75002  Biso   1.000  Ar
