data_image0
_cell_length_a       23.76
_cell_length_b       23.76
_cell_length_c       23.76
_cell_angle_alpha    90
_cell_angle_beta     90
_cell_angle_gamma    90

_symmetry_space_group_name_H-M    "P 1"
_symmetry_int_tables_number       1

loop_
  _symmetry_equiv_pos_as_xyz
  'x, y, z'

loop_
  _atom_site_label
  _atom_site_occupancy
  _atom_site_fract_x
  _atom_site_fract_y
  _atom_site_fract_z
  _atom_site_thermal_displace_type
  _atom_site_B_iso_or_equiv
  _atom_site_type_symbol
  C1       1.0000 0.38657  0.19230  0.36810  Biso   1.000  C
  C2       1.0000 0.40105  0.15964  0.32130  Biso   1.000  C
  C3       1.0000 0.34040  0.17870  0.40105  Biso   1.000  C
  H1       1.0000 0.40871  0.22420  0.37740  Biso   1.000  H
  C4       1.0000 0.45093  0.17285  0.28704  Biso   1.000  C
  C5       1.0000 0.36810  0.11343  0.30770  Biso   1.000  C
  C6       1.0000 0.32715  0.21296  0.45093  Biso   1.000  C
  C7       1.0000 0.30770  0.13190  0.38657  Biso   1.000  C
  N1       1.0000 0.48565  0.21094  0.29987  Biso   1.000  N
  H2       1.0000 0.45732  0.15168  0.25370  Biso   1.000  H
  C8       1.0000 0.32130  0.09899  0.34040  Biso   1.000  C
  H3       1.0000 0.37740  0.09129  0.27580  Biso   1.000  H
  N2       1.0000 0.28906  0.20017  0.48565  Biso   1.000  N
  H4       1.0000 0.34832  0.24630  0.45732  Biso   1.000  H
  H5       1.0000 0.27580  0.12260  0.40871  Biso   1.000  H
  C9       1.0000 0.53224  0.22012  0.26141  Biso   1.000  C
  C10      1.0000 0.28704  0.04907  0.32715  Biso   1.000  C
  C11      1.0000 0.27988  0.23859  0.53224  Biso   1.000  C
  C12      1.0000 0.53224  0.27988  0.23859  Biso   1.000  C
  H6       1.0000 0.52929  0.19301  0.22929  Biso   1.000  H
  C13      1.0000 0.58969  0.21343  0.28960  Biso   1.000  C
  N3       1.0000 0.29987  0.01435  0.28906  Biso   1.000  N
  H7       1.0000 0.25370  0.04272  0.34832  Biso   1.000  H
  C14      1.0000 0.22012  0.26141  0.53224  Biso   1.000  C
  H8       1.0000 0.30699  0.27071  0.52929  Biso   1.000  H
  C15      1.0000 0.28657  0.21040  0.58969  Biso   1.000  C
  N4       1.0000 0.48565  0.28906  0.20017  Biso   1.000  N
  H9       1.0000 0.52929  0.30699  0.27071  Biso   1.000  H
  C16      1.0000 0.58969  0.28657  0.21040  Biso   1.000  C
  H10      1.0000 0.60160  0.17348  0.29040  Biso   1.000  H
  H11      1.0000 0.58923  0.22828  0.32849  Biso   1.000  H
  C17      1.0000 0.62950  0.25000  0.25000  Biso   1.000  C
  C18      1.0000 0.63662  0.21949  0.26082  Biso   1.000  C
  C19      1.0000 0.26141  0.96776  0.27988  Biso   1.000  C
  N5       1.0000 0.21094  0.29987  0.48565  Biso   1.000  N
  H12      1.0000 0.19301  0.22929  0.52929  Biso   1.000  H
  C20      1.0000 0.21343  0.28960  0.58969  Biso   1.000  C
  H13      1.0000 0.32652  0.20960  0.60160  Biso   1.000  H
  H14      1.0000 0.27172  0.17151  0.58923  Biso   1.000  H
  C21      1.0000 0.25000  0.25000  0.62950  Biso   1.000  C
  C22      1.0000 0.28051  0.23918  0.63662  Biso   1.000  C
  C23      1.0000 0.45093  0.32715  0.21296  Biso   1.000  C
  H15      1.0000 0.60160  0.32652  0.20960  Biso   1.000  H
  H16      1.0000 0.58923  0.27172  0.17151  Biso   1.000  H
  C24      1.0000 0.63662  0.28051  0.23918  Biso   1.000  C
  H17      1.0000 0.65379  0.22508  0.22710  Biso   1.000  H
  H18      1.0000 0.65379  0.27492  0.27290  Biso   1.000  H
  H19      1.0000 0.63779  0.19272  0.22891  Biso   1.000  H
  H20      1.0000 0.66970  0.21271  0.28519  Biso   1.000  H
  C25      1.0000 0.23859  0.96776  0.22012  Biso   1.000  C
  H21      1.0000 0.22929  0.97071  0.30699  Biso   1.000  H
  C26      1.0000 0.28960  0.91031  0.28657  Biso   1.000  C
  C27      1.0000 0.17285  0.28704  0.45093  Biso   1.000  C
  H22      1.0000 0.17348  0.29040  0.60160  Biso   1.000  H
  H23      1.0000 0.22828  0.32849  0.58923  Biso   1.000  H
  C28      1.0000 0.21949  0.26082  0.63662  Biso   1.000  C
  H24      1.0000 0.22508  0.22710  0.65379  Biso   1.000  H
  H25      1.0000 0.27492  0.27290  0.65379  Biso   1.000  H
  H26      1.0000 0.30732  0.27109  0.63779  Biso   1.000  H
  H27      1.0000 0.28729  0.21481  0.66970  Biso   1.000  H
  H28      1.0000 0.45732  0.34832  0.24630  Biso   1.000  H
  C29      1.0000 0.40105  0.34040  0.17870  Biso   1.000  C
  H29      1.0000 0.63779  0.30732  0.27109  Biso   1.000  H
  H30      1.0000 0.66970  0.28729  0.21481  Biso   1.000  H
  N6       1.0000 0.20017  0.01435  0.21094  Biso   1.000  N
  H31      1.0000 0.27071  0.97071  0.19301  Biso   1.000  H
  C30      1.0000 0.21040  0.91031  0.21343  Biso   1.000  C
  H32      1.0000 0.29040  0.89840  0.32652  Biso   1.000  H
  H33      1.0000 0.32849  0.91082  0.27172  Biso   1.000  H
  C31      1.0000 0.25000  0.87054  0.25000  Biso   1.000  C
  C32      1.0000 0.26082  0.86343  0.28051  Biso   1.000  C
  H34      1.0000 0.15168  0.25370  0.45732  Biso   1.000  H
  C33      1.0000 0.15964  0.32130  0.40105  Biso   1.000  C
  H35      1.0000 0.19272  0.22891  0.63779  Biso   1.000  H
  H36      1.0000 0.21271  0.28519  0.66970  Biso   1.000  H
  C34      1.0000 0.38657  0.30770  0.13190  Biso   1.000  C
  C35      1.0000 0.36810  0.38657  0.19230  Biso   1.000  C
  C36      1.0000 0.21296  0.04907  0.17285  Biso   1.000  C
  H37      1.0000 0.20960  0.89840  0.17348  Biso   1.000  H
  H38      1.0000 0.17151  0.91082  0.22828  Biso   1.000  H
  C37      1.0000 0.23918  0.86343  0.21949  Biso   1.000  C
  H39      1.0000 0.27290  0.84621  0.22508  Biso   1.000  H
  H40      1.0000 0.22710  0.84621  0.27492  Biso   1.000  H
  H41      1.0000 0.22891  0.86221  0.30732  Biso   1.000  H
  H42      1.0000 0.28519  0.83030  0.28729  Biso   1.000  H
  C38      1.0000 0.19230  0.36810  0.38657  Biso   1.000  C
  C39      1.0000 0.11343  0.30770  0.36810  Biso   1.000  C
  C40      1.0000 0.34040  0.32130  0.09899  Biso   1.000  C
  H43      1.0000 0.40871  0.27580  0.12260  Biso   1.000  H
  C41      1.0000 0.32130  0.40105  0.15964  Biso   1.000  C
  H44      1.0000 0.37740  0.40871  0.22420  Biso   1.000  H
  H45      1.0000 0.24630  0.04272  0.15168  Biso   1.000  H
  C42      1.0000 0.17870  0.09899  0.15964  Biso   1.000  C
  H46      1.0000 0.27109  0.86221  0.19272  Biso   1.000  H
  H47      1.0000 0.21481  0.83030  0.21271  Biso   1.000  H
  C43      1.0000 0.17870  0.40105  0.34040  Biso   1.000  C
  H48      1.0000 0.22420  0.37740  0.40871  Biso   1.000  H
  C44      1.0000 0.09899  0.34040  0.32130  Biso   1.000  C
  H49      1.0000 0.09129  0.27580  0.37740  Biso   1.000  H
  C45      1.0000 0.32715  0.28704  0.04907  Biso   1.000  C
  C46      1.0000 0.30770  0.36810  0.11343  Biso   1.000  C
  C47      1.0000 0.28704  0.45093  0.17285  Biso   1.000  C
  C48      1.0000 0.13190  0.11343  0.19230  Biso   1.000  C
  C49      1.0000 0.19230  0.13190  0.11343  Biso   1.000  C
  C50      1.0000 0.21296  0.45093  0.32715  Biso   1.000  C
  C51      1.0000 0.13190  0.38657  0.30770  Biso   1.000  C
  C52      1.0000 0.04907  0.32715  0.28704  Biso   1.000  C
  N7       1.0000 0.28906  0.29987  0.01435  Biso   1.000  N
  H50      1.0000 0.34832  0.25370  0.04272  Biso   1.000  H
  H51      1.0000 0.27580  0.37740  0.09129  Biso   1.000  H
  N8       1.0000 0.29987  0.48565  0.21094  Biso   1.000  N
  H52      1.0000 0.25370  0.45732  0.15168  Biso   1.000  H
  C53      1.0000 0.09899  0.15964  0.17870  Biso   1.000  C
  H53      1.0000 0.12260  0.09129  0.22420  Biso   1.000  H
  C54      1.0000 0.15964  0.17870  0.09899  Biso   1.000  C
  H54      1.0000 0.22420  0.12260  0.09129  Biso   1.000  H
  N9       1.0000 0.20017  0.48565  0.28906  Biso   1.000  N
  H55      1.0000 0.24630  0.45732  0.34832  Biso   1.000  H
  H56      1.0000 0.12260  0.40871  0.27580  Biso   1.000  H
  N10      1.0000 0.01435  0.28906  0.29987  Biso   1.000  N
  H57      1.0000 0.04272  0.34832  0.25370  Biso   1.000  H
  C55      1.0000 0.27988  0.26141  0.96776  Biso   1.000  C
  C56      1.0000 0.26141  0.53224  0.22012  Biso   1.000  C
  C57      1.0000 0.04907  0.17285  0.21296  Biso   1.000  C
  C58      1.0000 0.11343  0.19230  0.13190  Biso   1.000  C
  C59      1.0000 0.17285  0.21296  0.04907  Biso   1.000  C
  C60      1.0000 0.23859  0.53224  0.27988  Biso   1.000  C
  C61      1.0000 0.96776  0.27988  0.26141  Biso   1.000  C
  C62      1.0000 0.22012  0.23859  0.96776  Biso   1.000  C
  H58      1.0000 0.30699  0.22929  0.97071  Biso   1.000  H
  C63      1.0000 0.28657  0.28960  0.91031  Biso   1.000  C
  H59      1.0000 0.22929  0.52929  0.19301  Biso   1.000  H
  C64      1.0000 0.28960  0.58969  0.21343  Biso   1.000  C
  N11      1.0000 0.01435  0.21094  0.20017  Biso   1.000  N
  H60      1.0000 0.04272  0.15168  0.24630  Biso   1.000  H
  H61      1.0000 0.09129  0.22420  0.12260  Biso   1.000  H
  N12      1.0000 0.21094  0.20017  0.01435  Biso   1.000  N
  H62      1.0000 0.15168  0.24630  0.04272  Biso   1.000  H
  H63      1.0000 0.27071  0.52929  0.30699  Biso   1.000  H
  C65      1.0000 0.21040  0.58969  0.28657  Biso   1.000  C
  C66      1.0000 0.96776  0.22012  0.23859  Biso   1.000  C
  H64      1.0000 0.97071  0.30699  0.22929  Biso   1.000  H
  C67      1.0000 0.91031  0.28657  0.28960  Biso   1.000  C
  H65      1.0000 0.19301  0.27071  0.97071  Biso   1.000  H
  C68      1.0000 0.21343  0.21040  0.91031  Biso   1.000  C
  H66      1.0000 0.32652  0.29040  0.89840  Biso   1.000  H
  H67      1.0000 0.27172  0.32849  0.91082  Biso   1.000  H
  C69      1.0000 0.25000  0.25000  0.87054  Biso   1.000  C
  C70      1.0000 0.28051  0.26082  0.86343  Biso   1.000  C
  H68      1.0000 0.29040  0.60160  0.17348  Biso   1.000  H
  H69      1.0000 0.32849  0.58923  0.22828  Biso   1.000  H
  C71      1.0000 0.25000  0.62950  0.25000  Biso   1.000  C
  C72      1.0000 0.26082  0.63662  0.21949  Biso   1.000  C
  H70      1.0000 0.20960  0.60160  0.32652  Biso   1.000  H
  H71      1.0000 0.17151  0.58923  0.27172  Biso   1.000  H
  C73      1.0000 0.23918  0.63662  0.28051  Biso   1.000  C
  H72      1.0000 0.97071  0.19301  0.27071  Biso   1.000  H
  C74      1.0000 0.91031  0.21343  0.21040  Biso   1.000  C
  C75      1.0000 0.87054  0.25000  0.25000  Biso   1.000  C
  H73      1.0000 0.89840  0.32652  0.29040  Biso   1.000  H
  H74      1.0000 0.91082  0.27172  0.32849  Biso   1.000  H
  C76      1.0000 0.86343  0.28051  0.26082  Biso   1.000  C
  H75      1.0000 0.17348  0.20960  0.89840  Biso   1.000  H
  H76      1.0000 0.22828  0.17151  0.91082  Biso   1.000  H
  C77      1.0000 0.21949  0.23918  0.86343  Biso   1.000  C
  H77      1.0000 0.22508  0.27290  0.84621  Biso   1.000  H
  H78      1.0000 0.27492  0.22710  0.84621  Biso   1.000  H
  H79      1.0000 0.30732  0.22891  0.86221  Biso   1.000  H
  H80      1.0000 0.28729  0.28519  0.83030  Biso   1.000  H
  H81      1.0000 0.27290  0.65379  0.27492  Biso   1.000  H
  H82      1.0000 0.22710  0.65379  0.22508  Biso   1.000  H
  H83      1.0000 0.22891  0.63779  0.19272  Biso   1.000  H
  H84      1.0000 0.28519  0.66970  0.21271  Biso   1.000  H
  H85      1.0000 0.27109  0.63779  0.30732  Biso   1.000  H
  H86      1.0000 0.21481  0.66970  0.28729  Biso   1.000  H
  H87      1.0000 0.89840  0.17348  0.20960  Biso   1.000  H
  H88      1.0000 0.91082  0.22828  0.17151  Biso   1.000  H
  C78      1.0000 0.86343  0.21949  0.23918  Biso   1.000  C
  H89      1.0000 0.84621  0.22508  0.27290  Biso   1.000  H
  H90      1.0000 0.84621  0.27492  0.22710  Biso   1.000  H
  H91      1.0000 0.86221  0.30732  0.22891  Biso   1.000  H
  H92      1.0000 0.83030  0.28729  0.28519  Biso   1.000  H
  H93      1.0000 0.19272  0.27109  0.86221  Biso   1.000  H
  H94      1.0000 0.21271  0.21481  0.83030  Biso   1.000  H
  H95      1.0000 0.86221  0.19272  0.27109  Biso   1.000  H
  H96      1.0000 0.83030  0.21271  0.21481  Biso   1.000  H
  C79      1.0000 0.53733  0.29949  0.42513  Biso   1.000  C
  N13      1.0000 0.55034  0.26599  0.46481  Biso   1.000  N
  H97      1.0000 0.50509  0.29129  0.40290  Biso   1.000  H
  C80      1.0000 0.57020  0.35046  0.41221  Biso   1.000  C
  C81      1.0000 0.51414  0.21662  0.47109  Biso   1.000  C
  C82      1.0000 0.55560  0.38274  0.36587  Biso   1.000  C
  C83      1.0000 0.61726  0.36587  0.44440  Biso   1.000  C
  C84      1.0000 0.48586  0.21662  0.52896  Biso   1.000  C
  H98      1.0000 0.53691  0.18199  0.46671  Biso   1.000  H
  H99      1.0000 0.48502  0.21679  0.44129  Biso   1.000  H
  C85      1.0000 0.58784  0.42980  0.35046  Biso   1.000  C
  H100     1.0000 0.52340  0.37290  0.34432  Biso   1.000  H
  C86      1.0000 0.64958  0.41221  0.42980  Biso   1.000  C
  H101     1.0000 0.62710  0.34432  0.47660  Biso   1.000  H
  N14      1.0000 0.44966  0.26599  0.53519  Biso   1.000  N
  H102     1.0000 0.46309  0.18199  0.53329  Biso   1.000  H
  H103     1.0000 0.51503  0.21679  0.55871  Biso   1.000  H
  C87      1.0000 0.57492  0.46267  0.29949  Biso   1.000  C
  C88      1.0000 0.63413  0.44440  0.38274  Biso   1.000  C
  C89      1.0000 0.70051  0.42513  0.46267  Biso   1.000  C
  C90      1.0000 0.46267  0.29949  0.57492  Biso   1.000  C
  N15      1.0000 0.53519  0.44966  0.26599  Biso   1.000  N
  H104     1.0000 0.59710  0.49491  0.29129  Biso   1.000  H
  H105     1.0000 0.65572  0.47660  0.37290  Biso   1.000  H
  N16      1.0000 0.73401  0.46481  0.44966  Biso   1.000  N
  H106     1.0000 0.70871  0.40290  0.49491  Biso   1.000  H
  H107     1.0000 0.49491  0.29129  0.59710  Biso   1.000  H
  C91      1.0000 0.42980  0.35046  0.58784  Biso   1.000  C
  C92      1.0000 0.52896  0.48586  0.21662  Biso   1.000  C
  C93      1.0000 0.78338  0.47109  0.48586  Biso   1.000  C
  C94      1.0000 0.44440  0.38274  0.63413  Biso   1.000  C
  C95      1.0000 0.38274  0.36587  0.55560  Biso   1.000  C
  C96      1.0000 0.47109  0.51414  0.21662  Biso   1.000  C
  H108     1.0000 0.53329  0.46309  0.18199  Biso   1.000  H
  H109     1.0000 0.55871  0.51503  0.21679  Biso   1.000  H
  C97      1.0000 0.78338  0.52896  0.51414  Biso   1.000  C
  H110     1.0000 0.81801  0.46671  0.46309  Biso   1.000  H
  H111     1.0000 0.78321  0.44129  0.51503  Biso   1.000  H
  C98      1.0000 0.41221  0.42980  0.64958  Biso   1.000  C
  H112     1.0000 0.47660  0.37290  0.65572  Biso   1.000  H
  C99      1.0000 0.35046  0.41221  0.57020  Biso   1.000  C
  H113     1.0000 0.37290  0.34432  0.52340  Biso   1.000  H
  N17      1.0000 0.46481  0.55034  0.26599  Biso   1.000  N
  H114     1.0000 0.46671  0.53691  0.18199  Biso   1.000  H
  H115     1.0000 0.44129  0.48502  0.21679  Biso   1.000  H
  N18      1.0000 0.73401  0.53519  0.55034  Biso   1.000  N
  H116     1.0000 0.81801  0.53329  0.53691  Biso   1.000  H
  H117     1.0000 0.78321  0.55871  0.48502  Biso   1.000  H
  C100     1.0000 0.42513  0.46267  0.70051  Biso   1.000  C
  C101     1.0000 0.36587  0.44440  0.61726  Biso   1.000  C
  C102     1.0000 0.29949  0.42513  0.53733  Biso   1.000  C
  C103     1.0000 0.42513  0.53733  0.29949  Biso   1.000  C
  C104     1.0000 0.70051  0.57492  0.53733  Biso   1.000  C
  N19      1.0000 0.46481  0.44966  0.73401  Biso   1.000  N
  H118     1.0000 0.40290  0.49491  0.70871  Biso   1.000  H
  H119     1.0000 0.34432  0.47660  0.62710  Biso   1.000  H
  N20      1.0000 0.26599  0.46481  0.55034  Biso   1.000  N
  H120     1.0000 0.29129  0.40290  0.50509  Biso   1.000  H
  H121     1.0000 0.40290  0.50509  0.29129  Biso   1.000  H
  C105     1.0000 0.41221  0.57020  0.35046  Biso   1.000  C
  H122     1.0000 0.70871  0.59710  0.50509  Biso   1.000  H
  C106     1.0000 0.64958  0.58784  0.57020  Biso   1.000  C
  C107     1.0000 0.47109  0.48586  0.78338  Biso   1.000  C
  C108     1.0000 0.21662  0.47109  0.51414  Biso   1.000  C
  C109     1.0000 0.36587  0.55560  0.38274  Biso   1.000  C
  C110     1.0000 0.44440  0.61726  0.36587  Biso   1.000  C
  C111     1.0000 0.61726  0.63413  0.55560  Biso   1.000  C
  C112     1.0000 0.63413  0.55560  0.61726  Biso   1.000  C
  C113     1.0000 0.52896  0.51414  0.78338  Biso   1.000  C
  H123     1.0000 0.46671  0.46309  0.81801  Biso   1.000  H
  H124     1.0000 0.44129  0.51503  0.78321  Biso   1.000  H
  C114     1.0000 0.21662  0.52896  0.48586  Biso   1.000  C
  H125     1.0000 0.18199  0.46671  0.53691  Biso   1.000  H
  H126     1.0000 0.21679  0.44129  0.48502  Biso   1.000  H
  C115     1.0000 0.35046  0.58784  0.42980  Biso   1.000  C
  H127     1.0000 0.34432  0.52340  0.37290  Biso   1.000  H
  C116     1.0000 0.42980  0.64958  0.41221  Biso   1.000  C
  H128     1.0000 0.47660  0.62710  0.34432  Biso   1.000  H
  C117     1.0000 0.57020  0.64958  0.58784  Biso   1.000  C
  H129     1.0000 0.62710  0.65572  0.52340  Biso   1.000  H
  C118     1.0000 0.58784  0.57020  0.64958  Biso   1.000  C
  H130     1.0000 0.65572  0.52340  0.62710  Biso   1.000  H
  N21      1.0000 0.53519  0.55034  0.73401  Biso   1.000  N
  H131     1.0000 0.53329  0.53691  0.81801  Biso   1.000  H
  H132     1.0000 0.55871  0.48502  0.78321  Biso   1.000  H
  N22      1.0000 0.26599  0.53519  0.44966  Biso   1.000  N
  H133     1.0000 0.18199  0.53329  0.46309  Biso   1.000  H
  H134     1.0000 0.21679  0.55871  0.51503  Biso   1.000  H
  C119     1.0000 0.29949  0.57492  0.46267  Biso   1.000  C
  C120     1.0000 0.38274  0.63413  0.44440  Biso   1.000  C
  C121     1.0000 0.46267  0.70051  0.42513  Biso   1.000  C
  C122     1.0000 0.53733  0.70051  0.57492  Biso   1.000  C
  C123     1.0000 0.55560  0.61726  0.63413  Biso   1.000  C
  C124     1.0000 0.57492  0.53733  0.70051  Biso   1.000  C
  H135     1.0000 0.29129  0.59710  0.49491  Biso   1.000  H
  H136     1.0000 0.37290  0.65572  0.47660  Biso   1.000  H
  N23      1.0000 0.44966  0.73401  0.46481  Biso   1.000  N
  H137     1.0000 0.49491  0.70871  0.40290  Biso   1.000  H
  N24      1.0000 0.55034  0.73401  0.53519  Biso   1.000  N
  H138     1.0000 0.50509  0.70871  0.59710  Biso   1.000  H
  H139     1.0000 0.52340  0.62710  0.65572  Biso   1.000  H
  H140     1.0000 0.59710  0.50509  0.70871  Biso   1.000  H
  C125     1.0000 0.48586  0.78338  0.47109  Biso   1.000  C
  C126     1.0000 0.51414  0.78338  0.52896  Biso   1.000  C
  H141     1.0000 0.46309  0.81801  0.46671  Biso   1.000  H
  H142     1.0000 0.51503  0.78321  0.44129  Biso   1.000  H
  H143     1.0000 0.53691  0.81801  0.53329  Biso   1.000  H
  H144     1.0000 0.48502  0.78321  0.55871  Biso   1.000  H
  C127     1.0000 0.53733  0.20051  0.07492  Biso   1.000  C
  N25      1.0000 0.55034  0.23401  0.03519  Biso   1.000  N
  H145     1.0000 0.50509  0.20871  0.09710  Biso   1.000  H
  C128     1.0000 0.57020  0.14954  0.08779  Biso   1.000  C
  C129     1.0000 0.57020  0.14954  0.08784  Biso   1.000  C
  C130     1.0000 0.57020  0.14958  0.08779  Biso   1.000  C
  C131     1.0000 0.57020  0.14958  0.08784  Biso   1.000  C
  C132     1.0000 0.51414  0.28338  0.02896  Biso   1.000  C
  C133     1.0000 0.53733  0.20051  0.07487  Biso   1.000  C
  C134     1.0000 0.61726  0.13413  0.05560  Biso   1.000  C
  C135     1.0000 0.55560  0.11726  0.13413  Biso   1.000  C
  C136     1.0000 0.55560  0.11726  0.13418  Biso   1.000  C
  C137     1.0000 0.61726  0.13418  0.05560  Biso   1.000  C
  H146     1.0000 0.53691  0.31801  0.03329  Biso   1.000  H
  H147     1.0000 0.48502  0.28321  0.05871  Biso   1.000  H
  H148     1.0000 0.53691  0.31801  0.03333  Biso   1.000  H
  C138     1.0000 0.48586  0.28338  0.97104  Biso   1.000  C
  C139     1.0000 0.48586  0.28338  0.97109  Biso   1.000  C
  H149     1.0000 0.62710  0.15568  0.02340  Biso   1.000  H
  C140     1.0000 0.64958  0.08779  0.07020  Biso   1.000  C
  H150     1.0000 0.62710  0.15572  0.02340  Biso   1.000  H
  C141     1.0000 0.64958  0.08784  0.07020  Biso   1.000  C
  C142     1.0000 0.58784  0.07020  0.14954  Biso   1.000  C
  H151     1.0000 0.52340  0.12710  0.15568  Biso   1.000  H
  C143     1.0000 0.58784  0.07020  0.14958  Biso   1.000  C
  H152     1.0000 0.52340  0.12710  0.15572  Biso   1.000  H
  N26      1.0000 0.44966  0.23401  0.96481  Biso   1.000  N
  H153     1.0000 0.46309  0.31801  0.96671  Biso   1.000  H
  H154     1.0000 0.51503  0.28321  0.94129  Biso   1.000  H
  H155     1.0000 0.51503  0.28321  0.94133  Biso   1.000  H
  C144     1.0000 0.70051  0.07487  0.03733  Biso   1.000  C
  C145     1.0000 0.63413  0.05560  0.11726  Biso   1.000  C
  C146     1.0000 0.70051  0.07492  0.03733  Biso   1.000  C
  C147     1.0000 0.57492  0.03733  0.20051  Biso   1.000  C
  C148     1.0000 0.46267  0.20051  0.92513  Biso   1.000  C
  N27      1.0000 0.73401  0.03519  0.05034  Biso   1.000  N
  H156     1.0000 0.70871  0.09710  0.00509  Biso   1.000  H
  H157     1.0000 0.65572  0.02340  0.12710  Biso   1.000  H
  N28      1.0000 0.53519  0.05034  0.23401  Biso   1.000  N
  H158     1.0000 0.59710  0.00509  0.20871  Biso   1.000  H
  H159     1.0000 0.49491  0.20871  0.90290  Biso   1.000  H
  C149     1.0000 0.42980  0.14954  0.91221  Biso   1.000  C
  C150     1.0000 0.42980  0.14958  0.91221  Biso   1.000  C
  C151     1.0000 0.78338  0.02896  0.01414  Biso   1.000  C
  C152     1.0000 0.78338  0.02896  0.01418  Biso   1.000  C
  C153     1.0000 0.52896  0.01414  0.28338  Biso   1.000  C
  C154     1.0000 0.52896  0.01418  0.28338  Biso   1.000  C
  C155     1.0000 0.38274  0.13413  0.94440  Biso   1.000  C
  C156     1.0000 0.44440  0.11726  0.86587  Biso   1.000  C
  C157     1.0000 0.38274  0.13418  0.94440  Biso   1.000  C
  H160     1.0000 0.81801  0.03329  0.03691  Biso   1.000  H
  H161     1.0000 0.81801  0.03333  0.03691  Biso   1.000  H
  C158     1.0000 0.78338  0.97104  0.98586  Biso   1.000  C
  C159     1.0000 0.78338  0.97109  0.98586  Biso   1.000  C
  H162     1.0000 0.78321  0.05871  0.98502  Biso   1.000  H
  H163     1.0000 0.53329  0.03691  0.31801  Biso   1.000  H
  C160     1.0000 0.47109  0.98586  0.28338  Biso   1.000  C
  H164     1.0000 0.55871  0.98502  0.28321  Biso   1.000  H
  C161     1.0000 0.35046  0.08779  0.92980  Biso   1.000  C
  H165     1.0000 0.37290  0.15568  0.97660  Biso   1.000  H
  C162     1.0000 0.35046  0.08784  0.92980  Biso   1.000  C
  H166     1.0000 0.37290  0.15572  0.97660  Biso   1.000  H
  C163     1.0000 0.41221  0.07020  0.85046  Biso   1.000  C
  H167     1.0000 0.47660  0.12710  0.84432  Biso   1.000  H
  N29      1.0000 0.73401  0.96481  0.94966  Biso   1.000  N
  H168     1.0000 0.81801  0.96671  0.96309  Biso   1.000  H
  H169     1.0000 0.81801  0.96671  0.96313  Biso   1.000  H
  H170     1.0000 0.78321  0.94129  0.01498  Biso   1.000  H
  H171     1.0000 0.78321  0.94129  0.01503  Biso   1.000  H
  H172     1.0000 0.78321  0.94133  0.01498  Biso   1.000  H
  H173     1.0000 0.78321  0.94133  0.01503  Biso   1.000  H
  H174     1.0000 0.44129  0.01498  0.28321  Biso   1.000  H
  H175     1.0000 0.44129  0.01503  0.28321  Biso   1.000  H
  N30      1.0000 0.46481  0.94966  0.23401  Biso   1.000  N
  H176     1.0000 0.46671  0.96309  0.31801  Biso   1.000  H
  H177     1.0000 0.46671  0.96313  0.31801  Biso   1.000  H
  C164     1.0000 0.29949  0.07487  0.96267  Biso   1.000  C
  C165     1.0000 0.36587  0.05560  0.88274  Biso   1.000  C
  C166     1.0000 0.29949  0.07487  0.96271  Biso   1.000  C
  C167     1.0000 0.29949  0.07492  0.96267  Biso   1.000  C
  C168     1.0000 0.29949  0.07492  0.96271  Biso   1.000  C
  C169     1.0000 0.42513  0.03733  0.79949  Biso   1.000  C
  C170     1.0000 0.42513  0.03733  0.79954  Biso   1.000  C
  C171     1.0000 0.70051  0.92513  0.96267  Biso   1.000  C
  C172     1.0000 0.70051  0.92513  0.96271  Biso   1.000  C
  C173     1.0000 0.42513  0.96267  0.20051  Biso   1.000  C
  C174     1.0000 0.42513  0.96271  0.20051  Biso   1.000  C
  N31      1.0000 0.26599  0.03519  0.94966  Biso   1.000  N
  H178     1.0000 0.29129  0.09710  0.99491  Biso   1.000  H
  H179     1.0000 0.34432  0.02340  0.87290  Biso   1.000  H
  N32      1.0000 0.46481  0.05034  0.76599  Biso   1.000  N
  H180     1.0000 0.40290  0.00509  0.79129  Biso   1.000  H
  H181     1.0000 0.40290  0.00509  0.79133  Biso   1.000  H
  H182     1.0000 0.70871  0.90290  0.99491  Biso   1.000  H
  C175     1.0000 0.64958  0.91221  0.92980  Biso   1.000  C
  H183     1.0000 0.40290  0.99491  0.20871  Biso   1.000  H
  C176     1.0000 0.41221  0.92980  0.14954  Biso   1.000  C
  C177     1.0000 0.41221  0.92980  0.14958  Biso   1.000  C
  C178     1.0000 0.21662  0.02896  0.98586  Biso   1.000  C
  C179     1.0000 0.47109  0.01414  0.71662  Biso   1.000  C
  C180     1.0000 0.47109  0.01418  0.71662  Biso   1.000  C
  C181     1.0000 0.63413  0.94440  0.88274  Biso   1.000  C
  C182     1.0000 0.61726  0.86587  0.94440  Biso   1.000  C
  C183     1.0000 0.36587  0.94440  0.11726  Biso   1.000  C
  C184     1.0000 0.44440  0.88274  0.13413  Biso   1.000  C
  C185     1.0000 0.44440  0.88274  0.13418  Biso   1.000  C
  H184     1.0000 0.21679  0.05871  0.01498  Biso   1.000  H
  H185     1.0000 0.21679  0.05871  0.01503  Biso   1.000  H
  C186     1.0000 0.21662  0.97104  0.01414  Biso   1.000  C
  C187     1.0000 0.21662  0.97104  0.01418  Biso   1.000  C
  C188     1.0000 0.21662  0.97109  0.01414  Biso   1.000  C
  C189     1.0000 0.21662  0.97109  0.01418  Biso   1.000  C
  H186     1.0000 0.18199  0.03329  0.96309  Biso   1.000  H
  H187     1.0000 0.18199  0.03329  0.96313  Biso   1.000  H
  H188     1.0000 0.18199  0.03333  0.96309  Biso   1.000  H
  H189     1.0000 0.18199  0.03333  0.96313  Biso   1.000  H
  C190     1.0000 0.52896  0.98586  0.71662  Biso   1.000  C
  H190     1.0000 0.44129  0.98502  0.71679  Biso   1.000  H
  H191     1.0000 0.46671  0.03691  0.68199  Biso   1.000  H
  H192     1.0000 0.46671  0.03691  0.68203  Biso   1.000  H
  C191     1.0000 0.58784  0.92980  0.85046  Biso   1.000  C
  H193     1.0000 0.65572  0.97660  0.87290  Biso   1.000  H
  C192     1.0000 0.57020  0.85046  0.91221  Biso   1.000  C
  H194     1.0000 0.62710  0.84432  0.97660  Biso   1.000  H
  C193     1.0000 0.35046  0.91221  0.07020  Biso   1.000  C
  H195     1.0000 0.34432  0.97660  0.12710  Biso   1.000  H
  C194     1.0000 0.42980  0.85046  0.08779  Biso   1.000  C
  H196     1.0000 0.47660  0.87290  0.15568  Biso   1.000  H
  C195     1.0000 0.42980  0.85046  0.08784  Biso   1.000  C
  H197     1.0000 0.47660  0.87290  0.15572  Biso   1.000  H
  H198     1.0000 0.21679  0.94129  0.98502  Biso   1.000  H
  H199     1.0000 0.21679  0.94133  0.98502  Biso   1.000  H
  N33      1.0000 0.26599  0.96481  0.05034  Biso   1.000  N
  H200     1.0000 0.18199  0.96671  0.03691  Biso   1.000  H
  N34      1.0000 0.53519  0.94966  0.76599  Biso   1.000  N
  H201     1.0000 0.53329  0.96309  0.68199  Biso   1.000  H
  H202     1.0000 0.53329  0.96309  0.68203  Biso   1.000  H
  H203     1.0000 0.53329  0.96313  0.68199  Biso   1.000  H
  H204     1.0000 0.53329  0.96313  0.68203  Biso   1.000  H
  H205     1.0000 0.55871  0.01498  0.71679  Biso   1.000  H
  H206     1.0000 0.55871  0.01503  0.71679  Biso   1.000  H
  C196     1.0000 0.57492  0.96267  0.79949  Biso   1.000  C
  C197     1.0000 0.55560  0.88274  0.86587  Biso   1.000  C
  C198     1.0000 0.57492  0.96267  0.79954  Biso   1.000  C
  C199     1.0000 0.57492  0.96271  0.79949  Biso   1.000  C
  C200     1.0000 0.57492  0.96271  0.79954  Biso   1.000  C
  C201     1.0000 0.53733  0.79949  0.92513  Biso   1.000  C
  C202     1.0000 0.53733  0.79954  0.92513  Biso   1.000  C
  C203     1.0000 0.29949  0.92513  0.03733  Biso   1.000  C
  C204     1.0000 0.38274  0.86587  0.05560  Biso   1.000  C
  C205     1.0000 0.46267  0.79949  0.07487  Biso   1.000  C
  C206     1.0000 0.46267  0.79949  0.07492  Biso   1.000  C
  C207     1.0000 0.46267  0.79954  0.07487  Biso   1.000  C
  C208     1.0000 0.46267  0.79954  0.07492  Biso   1.000  C
  H207     1.0000 0.59710  0.99491  0.79129  Biso   1.000  H
  H208     1.0000 0.59710  0.99491  0.79133  Biso   1.000  H
  H209     1.0000 0.52340  0.87290  0.84432  Biso   1.000  H
  N35      1.0000 0.55034  0.76599  0.96481  Biso   1.000  N
  H210     1.0000 0.50509  0.79129  0.90290  Biso   1.000  H
  H211     1.0000 0.50509  0.79133  0.90290  Biso   1.000  H
  H212     1.0000 0.29129  0.90290  0.00509  Biso   1.000  H
  H213     1.0000 0.37290  0.84432  0.02340  Biso   1.000  H
  N36      1.0000 0.44966  0.76599  0.03519  Biso   1.000  N
  H214     1.0000 0.49491  0.79129  0.09710  Biso   1.000  H
  H215     1.0000 0.49491  0.79133  0.09710  Biso   1.000  H
  C209     1.0000 0.51414  0.71662  0.97104  Biso   1.000  C
  C210     1.0000 0.51414  0.71662  0.97109  Biso   1.000  C
  C211     1.0000 0.48586  0.71662  0.02896  Biso   1.000  C
  H216     1.0000 0.53691  0.68199  0.96671  Biso   1.000  H
  H217     1.0000 0.48502  0.71679  0.94129  Biso   1.000  H
  H218     1.0000 0.48502  0.71679  0.94133  Biso   1.000  H
  H219     1.0000 0.53691  0.68203  0.96671  Biso   1.000  H
  H220     1.0000 0.46309  0.68199  0.03329  Biso   1.000  H
  H221     1.0000 0.51503  0.71679  0.05871  Biso   1.000  H
  H222     1.0000 0.46309  0.68199  0.03333  Biso   1.000  H
  H223     1.0000 0.46309  0.68203  0.03329  Biso   1.000  H
  H224     1.0000 0.46309  0.68203  0.03333  Biso   1.000  H
  C212     1.0000 0.53733  0.20051  0.07492  Biso   1.000  C
  N37      1.0000 0.55034  0.23401  0.03519  Biso   1.000  N
  H225     1.0000 0.50509  0.20871  0.09710  Biso   1.000  H
  C213     1.0000 0.57020  0.14954  0.08779  Biso   1.000  C
  C214     1.0000 0.57020  0.14954  0.08784  Biso   1.000  C
  C215     1.0000 0.57020  0.14958  0.08779  Biso   1.000  C
  C216     1.0000 0.57020  0.14958  0.08784  Biso   1.000  C
  C217     1.0000 0.51414  0.28338  0.02896  Biso   1.000  C
  C218     1.0000 0.53733  0.20051  0.07487  Biso   1.000  C
  C219     1.0000 0.61726  0.13413  0.05560  Biso   1.000  C
  C220     1.0000 0.55560  0.11726  0.13413  Biso   1.000  C
  C221     1.0000 0.61726  0.13418  0.05560  Biso   1.000  C
  C222     1.0000 0.55560  0.11726  0.13418  Biso   1.000  C
  H226     1.0000 0.48502  0.28321  0.05871  Biso   1.000  H
  H227     1.0000 0.53691  0.31801  0.03329  Biso   1.000  H
  H228     1.0000 0.53691  0.31801  0.03333  Biso   1.000  H
  C223     1.0000 0.48586  0.28338  0.97104  Biso   1.000  C
  C224     1.0000 0.48586  0.28338  0.97109  Biso   1.000  C
  H229     1.0000 0.62710  0.15568  0.02340  Biso   1.000  H
  C225     1.0000 0.64958  0.08779  0.07020  Biso   1.000  C
  H230     1.0000 0.62710  0.15572  0.02340  Biso   1.000  H
  C226     1.0000 0.64958  0.08784  0.07020  Biso   1.000  C
  C227     1.0000 0.58784  0.07020  0.14954  Biso   1.000  C
  H231     1.0000 0.52340  0.12710  0.15568  Biso   1.000  H
  C228     1.0000 0.58784  0.07020  0.14958  Biso   1.000  C
  H232     1.0000 0.52340  0.12710  0.15572  Biso   1.000  H
  N38      1.0000 0.44966  0.23401  0.96481  Biso   1.000  N
  H233     1.0000 0.46309  0.31801  0.96671  Biso   1.000  H
  H234     1.0000 0.51503  0.28321  0.94129  Biso   1.000  H
  H235     1.0000 0.51503  0.28321  0.94133  Biso   1.000  H
  C229     1.0000 0.70051  0.07487  0.03733  Biso   1.000  C
  C230     1.0000 0.63413  0.05560  0.11726  Biso   1.000  C
  C231     1.0000 0.70051  0.07492  0.03733  Biso   1.000  C
  C232     1.0000 0.57492  0.03733  0.20051  Biso   1.000  C
  C233     1.0000 0.46267  0.20051  0.92513  Biso   1.000  C
  N39      1.0000 0.73401  0.03519  0.05034  Biso   1.000  N
  H236     1.0000 0.70871  0.09710  0.00509  Biso   1.000  H
  H237     1.0000 0.65572  0.02340  0.12710  Biso   1.000  H
  N40      1.0000 0.53519  0.05034  0.23401  Biso   1.000  N
  H238     1.0000 0.59710  0.00509  0.20871  Biso   1.000  H
  H239     1.0000 0.49491  0.20871  0.90290  Biso   1.000  H
  C234     1.0000 0.42980  0.14954  0.91221  Biso   1.000  C
  C235     1.0000 0.42980  0.14958  0.91221  Biso   1.000  C
  C236     1.0000 0.78338  0.02896  0.01414  Biso   1.000  C
  C237     1.0000 0.78338  0.02896  0.01418  Biso   1.000  C
  C238     1.0000 0.52896  0.01414  0.28338  Biso   1.000  C
  C239     1.0000 0.52896  0.01418  0.28338  Biso   1.000  C
  C240     1.0000 0.38274  0.13413  0.94440  Biso   1.000  C
  C241     1.0000 0.44440  0.11726  0.86587  Biso   1.000  C
  C242     1.0000 0.38274  0.13418  0.94440  Biso   1.000  C
  H240     1.0000 0.81801  0.03329  0.03691  Biso   1.000  H
  H241     1.0000 0.81801  0.03333  0.03691  Biso   1.000  H
  C243     1.0000 0.78338  0.97104  0.98586  Biso   1.000  C
  C244     1.0000 0.78338  0.97109  0.98586  Biso   1.000  C
  H242     1.0000 0.78321  0.05871  0.98502  Biso   1.000  H
  H243     1.0000 0.53329  0.03691  0.31801  Biso   1.000  H
  C245     1.0000 0.47109  0.98586  0.28338  Biso   1.000  C
  H244     1.0000 0.55871  0.98502  0.28321  Biso   1.000  H
  C246     1.0000 0.35046  0.08779  0.92980  Biso   1.000  C
  H245     1.0000 0.37290  0.15568  0.97660  Biso   1.000  H
  C247     1.0000 0.35046  0.08784  0.92980  Biso   1.000  C
  H246     1.0000 0.37290  0.15572  0.97660  Biso   1.000  H
  C248     1.0000 0.41221  0.07020  0.85046  Biso   1.000  C
  H247     1.0000 0.47660  0.12710  0.84432  Biso   1.000  H
  N41      1.0000 0.73401  0.96481  0.94966  Biso   1.000  N
  H248     1.0000 0.81801  0.96671  0.96309  Biso   1.000  H
  H249     1.0000 0.81801  0.96671  0.96313  Biso   1.000  H
  H250     1.0000 0.78321  0.94129  0.01498  Biso   1.000  H
  H251     1.0000 0.78321  0.94129  0.01503  Biso   1.000  H
  H252     1.0000 0.78321  0.94133  0.01498  Biso   1.000  H
  H253     1.0000 0.78321  0.94133  0.01503  Biso   1.000  H
  H254     1.0000 0.44129  0.01498  0.28321  Biso   1.000  H
  H255     1.0000 0.44129  0.01503  0.28321  Biso   1.000  H
  N42      1.0000 0.46481  0.94966  0.23401  Biso   1.000  N
  H256     1.0000 0.46671  0.96309  0.31801  Biso   1.000  H
  H257     1.0000 0.46671  0.96313  0.31801  Biso   1.000  H
  C249     1.0000 0.29949  0.07487  0.96267  Biso   1.000  C
  C250     1.0000 0.36587  0.05560  0.88274  Biso   1.000  C
  C251     1.0000 0.29949  0.07487  0.96271  Biso   1.000  C
  C252     1.0000 0.29949  0.07492  0.96267  Biso   1.000  C
  C253     1.0000 0.29949  0.07492  0.96271  Biso   1.000  C
  C254     1.0000 0.42513  0.03733  0.79949  Biso   1.000  C
  C255     1.0000 0.42513  0.03733  0.79954  Biso   1.000  C
  C256     1.0000 0.70051  0.92513  0.96267  Biso   1.000  C
  C257     1.0000 0.70051  0.92513  0.96271  Biso   1.000  C
  C258     1.0000 0.42513  0.96267  0.20051  Biso   1.000  C
  C259     1.0000 0.42513  0.96271  0.20051  Biso   1.000  C
  N43      1.0000 0.26599  0.03519  0.94966  Biso   1.000  N
  H258     1.0000 0.29129  0.09710  0.99491  Biso   1.000  H
  H259     1.0000 0.34432  0.02340  0.87290  Biso   1.000  H
  N44      1.0000 0.46481  0.05034  0.76599  Biso   1.000  N
  H260     1.0000 0.40290  0.00509  0.79129  Biso   1.000  H
  H261     1.0000 0.40290  0.00509  0.79133  Biso   1.000  H
  H262     1.0000 0.70871  0.90290  0.99491  Biso   1.000  H
  C260     1.0000 0.64958  0.91221  0.92980  Biso   1.000  C
  H263     1.0000 0.40290  0.99491  0.20871  Biso   1.000  H
  C261     1.0000 0.41221  0.92980  0.14954  Biso   1.000  C
  C262     1.0000 0.41221  0.92980  0.14958  Biso   1.000  C
  C263     1.0000 0.21662  0.02896  0.98586  Biso   1.000  C
  C264     1.0000 0.47109  0.01414  0.71662  Biso   1.000  C
  C265     1.0000 0.47109  0.01418  0.71662  Biso   1.000  C
  C266     1.0000 0.63413  0.94440  0.88274  Biso   1.000  C
  C267     1.0000 0.61726  0.86587  0.94440  Biso   1.000  C
  C268     1.0000 0.36587  0.94440  0.11726  Biso   1.000  C
  C269     1.0000 0.44440  0.88274  0.13413  Biso   1.000  C
  C270     1.0000 0.44440  0.88274  0.13418  Biso   1.000  C
  H264     1.0000 0.21679  0.05871  0.01498  Biso   1.000  H
  H265     1.0000 0.21679  0.05871  0.01503  Biso   1.000  H
  C271     1.0000 0.21662  0.97104  0.01414  Biso   1.000  C
  C272     1.0000 0.21662  0.97104  0.01418  Biso   1.000  C
  C273     1.0000 0.21662  0.97109  0.01414  Biso   1.000  C
  C274     1.0000 0.21662  0.97109  0.01418  Biso   1.000  C
  H266     1.0000 0.18199  0.03329  0.96309  Biso   1.000  H
  H267     1.0000 0.18199  0.03329  0.96313  Biso   1.000  H
  H268     1.0000 0.18199  0.03333  0.96309  Biso   1.000  H
  H269     1.0000 0.18199  0.03333  0.96313  Biso   1.000  H
  C275     1.0000 0.52896  0.98586  0.71662  Biso   1.000  C
  H270     1.0000 0.44129  0.98502  0.71679  Biso   1.000  H
  H271     1.0000 0.46671  0.03691  0.68199  Biso   1.000  H
  H272     1.0000 0.46671  0.03691  0.68203  Biso   1.000  H
  C276     1.0000 0.58784  0.92980  0.85046  Biso   1.000  C
  H273     1.0000 0.65572  0.97660  0.87290  Biso   1.000  H
  C277     1.0000 0.57020  0.85046  0.91221  Biso   1.000  C
  H274     1.0000 0.62710  0.84432  0.97660  Biso   1.000  H
  C278     1.0000 0.35046  0.91221  0.07020  Biso   1.000  C
  H275     1.0000 0.34432  0.97660  0.12710  Biso   1.000  H
  C279     1.0000 0.42980  0.85046  0.08779  Biso   1.000  C
  H276     1.0000 0.47660  0.87290  0.15568  Biso   1.000  H
  C280     1.0000 0.42980  0.85046  0.08784  Biso   1.000  C
  H277     1.0000 0.47660  0.87290  0.15572  Biso   1.000  H
  H278     1.0000 0.21679  0.94129  0.98502  Biso   1.000  H
  H279     1.0000 0.21679  0.94133  0.98502  Biso   1.000  H
  N45      1.0000 0.26599  0.96481  0.05034  Biso   1.000  N
  H280     1.0000 0.18199  0.96671  0.03691  Biso   1.000  H
  N46      1.0000 0.53519  0.94966  0.76599  Biso   1.000  N
  H281     1.0000 0.53329  0.96309  0.68199  Biso   1.000  H
  H282     1.0000 0.53329  0.96309  0.68203  Biso   1.000  H
  H283     1.0000 0.53329  0.96313  0.68199  Biso   1.000  H
  H284     1.0000 0.53329  0.96313  0.68203  Biso   1.000  H
  H285     1.0000 0.55871  0.01498  0.71679  Biso   1.000  H
  H286     1.0000 0.55871  0.01503  0.71679  Biso   1.000  H
  C281     1.0000 0.57492  0.96267  0.79949  Biso   1.000  C
  C282     1.0000 0.55560  0.88274  0.86587  Biso   1.000  C
  C283     1.0000 0.57492  0.96267  0.79954  Biso   1.000  C
  C284     1.0000 0.57492  0.96271  0.79949  Biso   1.000  C
  C285     1.0000 0.57492  0.96271  0.79954  Biso   1.000  C
  C286     1.0000 0.53733  0.79949  0.92513  Biso   1.000  C
  C287     1.0000 0.53733  0.79954  0.92513  Biso   1.000  C
  C288     1.0000 0.29949  0.92513  0.03733  Biso   1.000  C
  C289     1.0000 0.38274  0.86587  0.05560  Biso   1.000  C
  C290     1.0000 0.46267  0.79949  0.07487  Biso   1.000  C
  C291     1.0000 0.46267  0.79949  0.07492  Biso   1.000  C
  C292     1.0000 0.46267  0.79954  0.07487  Biso   1.000  C
  C293     1.0000 0.46267  0.79954  0.07492  Biso   1.000  C
  H287     1.0000 0.59710  0.99491  0.79129  Biso   1.000  H
  H288     1.0000 0.59710  0.99491  0.79133  Biso   1.000  H
  H289     1.0000 0.52340  0.87290  0.84432  Biso   1.000  H
  N47      1.0000 0.55034  0.76599  0.96481  Biso   1.000  N
  H290     1.0000 0.50509  0.79129  0.90290  Biso   1.000  H
  H291     1.0000 0.50509  0.79133  0.90290  Biso   1.000  H
  H292     1.0000 0.29129  0.90290  0.00509  Biso   1.000  H
  H293     1.0000 0.37290  0.84432  0.02340  Biso   1.000  H
  N48      1.0000 0.44966  0.76599  0.03519  Biso   1.000  N
  H294     1.0000 0.49491  0.79129  0.09710  Biso   1.000  H
  H295     1.0000 0.49491  0.79133  0.09710  Biso   1.000  H
  C294     1.0000 0.51414  0.71662  0.97104  Biso   1.000  C
  C295     1.0000 0.51414  0.71662  0.97109  Biso   1.000  C
  C296     1.0000 0.48586  0.71662  0.02896  Biso   1.000  C
  H296     1.0000 0.53691  0.68199  0.96671  Biso   1.000  H
  H297     1.0000 0.48502  0.71679  0.94129  Biso   1.000  H
  H298     1.0000 0.48502  0.71679  0.94133  Biso   1.000  H
  H299     1.0000 0.53691  0.68203  0.96671  Biso   1.000  H
  H300     1.0000 0.46309  0.68199  0.03329  Biso   1.000  H
  H301     1.0000 0.51503  0.71679  0.05871  Biso   1.000  H
  H302     1.0000 0.46309  0.68199  0.03333  Biso   1.000  H
  H303     1.0000 0.46309  0.68203  0.03329  Biso   1.000  H
  H304     1.0000 0.46309  0.68203  0.03333  Biso   1.000  H
  C297     1.0000 0.53733  0.20051  0.07492  Biso   1.000  C
  N49      1.0000 0.55034  0.23401  0.03519  Biso   1.000  N
  H305     1.0000 0.50509  0.20871  0.09710  Biso   1.000  H
  C298     1.0000 0.57020  0.14954  0.08779  Biso   1.000  C
  C299     1.0000 0.57020  0.14954  0.08784  Biso   1.000  C
  C300     1.0000 0.57020  0.14958  0.08779  Biso   1.000  C
  C301     1.0000 0.57020  0.14958  0.08784  Biso   1.000  C
  C302     1.0000 0.51414  0.28338  0.02896  Biso   1.000  C
  C303     1.0000 0.53733  0.20051  0.07487  Biso   1.000  C
  C304     1.0000 0.61726  0.13413  0.05560  Biso   1.000  C
  C305     1.0000 0.55560  0.11726  0.13413  Biso   1.000  C
  C306     1.0000 0.55560  0.11726  0.13418  Biso   1.000  C
  C307     1.0000 0.61726  0.13418  0.05560  Biso   1.000  C
  H306     1.0000 0.48502  0.28321  0.05871  Biso   1.000  H
  C308     1.0000 0.48586  0.28338  0.97104  Biso   1.000  C
  C309     1.0000 0.48586  0.28338  0.97109  Biso   1.000  C
  H307     1.0000 0.53691  0.31801  0.03329  Biso   1.000  H
  H308     1.0000 0.53691  0.31801  0.03333  Biso   1.000  H
  H309     1.0000 0.62710  0.15568  0.02340  Biso   1.000  H
  C310     1.0000 0.64958  0.08779  0.07020  Biso   1.000  C
  H310     1.0000 0.62710  0.15572  0.02340  Biso   1.000  H
  C311     1.0000 0.64958  0.08784  0.07020  Biso   1.000  C
  C312     1.0000 0.58784  0.07020  0.14954  Biso   1.000  C
  H311     1.0000 0.52340  0.12710  0.15568  Biso   1.000  H
  C313     1.0000 0.58784  0.07020  0.14958  Biso   1.000  C
  H312     1.0000 0.52340  0.12710  0.15572  Biso   1.000  H
  N50      1.0000 0.44966  0.23401  0.96481  Biso   1.000  N
  H313     1.0000 0.46309  0.31801  0.96671  Biso   1.000  H
  H314     1.0000 0.51503  0.28321  0.94129  Biso   1.000  H
  H315     1.0000 0.51503  0.28321  0.94133  Biso   1.000  H
  C314     1.0000 0.63413  0.05560  0.11726  Biso   1.000  C
  C315     1.0000 0.70051  0.07487  0.03733  Biso   1.000  C
  C316     1.0000 0.70051  0.07492  0.03733  Biso   1.000  C
  C317     1.0000 0.57492  0.03733  0.20051  Biso   1.000  C
  C318     1.0000 0.46267  0.20051  0.92513  Biso   1.000  C
  H316     1.0000 0.65572  0.02340  0.12710  Biso   1.000  H
  N51      1.0000 0.73401  0.03519  0.05034  Biso   1.000  N
  H317     1.0000 0.70871  0.09710  0.00509  Biso   1.000  H
  N52      1.0000 0.53519  0.05034  0.23401  Biso   1.000  N
  H318     1.0000 0.59710  0.00509  0.20871  Biso   1.000  H
  H319     1.0000 0.49491  0.20871  0.90290  Biso   1.000  H
  C319     1.0000 0.42980  0.14954  0.91221  Biso   1.000  C
  C320     1.0000 0.42980  0.14958  0.91221  Biso   1.000  C
  C321     1.0000 0.78338  0.02896  0.01414  Biso   1.000  C
  C322     1.0000 0.78338  0.02896  0.01418  Biso   1.000  C
  C323     1.0000 0.52896  0.01414  0.28338  Biso   1.000  C
  C324     1.0000 0.52896  0.01418  0.28338  Biso   1.000  C
  C325     1.0000 0.38274  0.13413  0.94440  Biso   1.000  C
  C326     1.0000 0.44440  0.11726  0.86587  Biso   1.000  C
  C327     1.0000 0.38274  0.13418  0.94440  Biso   1.000  C
  C328     1.0000 0.78338  0.97104  0.98586  Biso   1.000  C
  C329     1.0000 0.78338  0.97109  0.98586  Biso   1.000  C
  H320     1.0000 0.78321  0.05871  0.98502  Biso   1.000  H
  H321     1.0000 0.81801  0.03329  0.03691  Biso   1.000  H
  H322     1.0000 0.81801  0.03333  0.03691  Biso   1.000  H
  H323     1.0000 0.53329  0.03691  0.31801  Biso   1.000  H
  C330     1.0000 0.47109  0.98586  0.28338  Biso   1.000  C
  H324     1.0000 0.55871  0.98502  0.28321  Biso   1.000  H
  C331     1.0000 0.35046  0.08779  0.92980  Biso   1.000  C
  H325     1.0000 0.37290  0.15568  0.97660  Biso   1.000  H
  C332     1.0000 0.35046  0.08784  0.92980  Biso   1.000  C
  H326     1.0000 0.37290  0.15572  0.97660  Biso   1.000  H
  C333     1.0000 0.41221  0.07020  0.85046  Biso   1.000  C
  H327     1.0000 0.47660  0.12710  0.84432  Biso   1.000  H
  N53      1.0000 0.73401  0.96481  0.94966  Biso   1.000  N
  H328     1.0000 0.81801  0.96671  0.96309  Biso   1.000  H
  H329     1.0000 0.81801  0.96671  0.96313  Biso   1.000  H
  H330     1.0000 0.78321  0.94129  0.01498  Biso   1.000  H
  H331     1.0000 0.78321  0.94129  0.01503  Biso   1.000  H
  H332     1.0000 0.78321  0.94133  0.01498  Biso   1.000  H
  H333     1.0000 0.78321  0.94133  0.01503  Biso   1.000  H
  N54      1.0000 0.46481  0.94966  0.23401  Biso   1.000  N
  H334     1.0000 0.46671  0.96309  0.31801  Biso   1.000  H
  H335     1.0000 0.46671  0.96313  0.31801  Biso   1.000  H
  H336     1.0000 0.44129  0.01498  0.28321  Biso   1.000  H
  H337     1.0000 0.44129  0.01503  0.28321  Biso   1.000  H
  C334     1.0000 0.29949  0.07487  0.96267  Biso   1.000  C
  C335     1.0000 0.36587  0.05560  0.88274  Biso   1.000  C
  C336     1.0000 0.29949  0.07487  0.96271  Biso   1.000  C
  C337     1.0000 0.29949  0.07492  0.96267  Biso   1.000  C
  C338     1.0000 0.29949  0.07492  0.96271  Biso   1.000  C
  C339     1.0000 0.42513  0.03733  0.79949  Biso   1.000  C
  C340     1.0000 0.42513  0.03733  0.79954  Biso   1.000  C
  C341     1.0000 0.70051  0.92513  0.96267  Biso   1.000  C
  C342     1.0000 0.70051  0.92513  0.96271  Biso   1.000  C
  C343     1.0000 0.42513  0.96267  0.20051  Biso   1.000  C
  C344     1.0000 0.42513  0.96271  0.20051  Biso   1.000  C
  N55      1.0000 0.26599  0.03519  0.94966  Biso   1.000  N
  H338     1.0000 0.29129  0.09710  0.99491  Biso   1.000  H
  H339     1.0000 0.34432  0.02340  0.87290  Biso   1.000  H
  N56      1.0000 0.46481  0.05034  0.76599  Biso   1.000  N
  H340     1.0000 0.40290  0.00509  0.79129  Biso   1.000  H
  H341     1.0000 0.40290  0.00509  0.79133  Biso   1.000  H
  H342     1.0000 0.70871  0.90290  0.99491  Biso   1.000  H
  C345     1.0000 0.64958  0.91221  0.92980  Biso   1.000  C
  H343     1.0000 0.40290  0.99491  0.20871  Biso   1.000  H
  C346     1.0000 0.41221  0.92980  0.14954  Biso   1.000  C
  C347     1.0000 0.41221  0.92980  0.14958  Biso   1.000  C
  C348     1.0000 0.21662  0.02896  0.98586  Biso   1.000  C
  C349     1.0000 0.47109  0.01414  0.71662  Biso   1.000  C
  C350     1.0000 0.47109  0.01418  0.71662  Biso   1.000  C
  C351     1.0000 0.63413  0.94440  0.88274  Biso   1.000  C
  C352     1.0000 0.61726  0.86587  0.94440  Biso   1.000  C
  C353     1.0000 0.36587  0.94440  0.11726  Biso   1.000  C
  C354     1.0000 0.44440  0.88274  0.13413  Biso   1.000  C
  C355     1.0000 0.44440  0.88274  0.13418  Biso   1.000  C
  C356     1.0000 0.21662  0.97104  0.01414  Biso   1.000  C
  C357     1.0000 0.21662  0.97104  0.01418  Biso   1.000  C
  C358     1.0000 0.21662  0.97109  0.01414  Biso   1.000  C
  C359     1.0000 0.21662  0.97109  0.01418  Biso   1.000  C
  H344     1.0000 0.18199  0.03329  0.96309  Biso   1.000  H
  H345     1.0000 0.18199  0.03329  0.96313  Biso   1.000  H
  H346     1.0000 0.18199  0.03333  0.96309  Biso   1.000  H
  H347     1.0000 0.18199  0.03333  0.96313  Biso   1.000  H
  H348     1.0000 0.21679  0.05871  0.01498  Biso   1.000  H
  H349     1.0000 0.21679  0.05871  0.01503  Biso   1.000  H
  C360     1.0000 0.52896  0.98586  0.71662  Biso   1.000  C
  H350     1.0000 0.44129  0.98502  0.71679  Biso   1.000  H
  H351     1.0000 0.46671  0.03691  0.68199  Biso   1.000  H
  H352     1.0000 0.46671  0.03691  0.68203  Biso   1.000  H
  C361     1.0000 0.58784  0.92980  0.85046  Biso   1.000  C
  H353     1.0000 0.65572  0.97660  0.87290  Biso   1.000  H
  C362     1.0000 0.57020  0.85046  0.91221  Biso   1.000  C
  H354     1.0000 0.62710  0.84432  0.97660  Biso   1.000  H
  C363     1.0000 0.35046  0.91221  0.07020  Biso   1.000  C
  H355     1.0000 0.34432  0.97660  0.12710  Biso   1.000  H
  C364     1.0000 0.42980  0.85046  0.08779  Biso   1.000  C
  H356     1.0000 0.47660  0.87290  0.15568  Biso   1.000  H
  C365     1.0000 0.42980  0.85046  0.08784  Biso   1.000  C
  H357     1.0000 0.47660  0.87290  0.15572  Biso   1.000  H
  H358     1.0000 0.21679  0.94129  0.98502  Biso   1.000  H
  H359     1.0000 0.21679  0.94133  0.98502  Biso   1.000  H
  N57      1.0000 0.26599  0.96481  0.05034  Biso   1.000  N
  H360     1.0000 0.18199  0.96671  0.03691  Biso   1.000  H
  N58      1.0000 0.53519  0.94966  0.76599  Biso   1.000  N
  H361     1.0000 0.53329  0.96309  0.68199  Biso   1.000  H
  H362     1.0000 0.53329  0.96309  0.68203  Biso   1.000  H
  H363     1.0000 0.53329  0.96313  0.68199  Biso   1.000  H
  H364     1.0000 0.53329  0.96313  0.68203  Biso   1.000  H
  H365     1.0000 0.55871  0.01498  0.71679  Biso   1.000  H
  H366     1.0000 0.55871  0.01503  0.71679  Biso   1.000  H
  C366     1.0000 0.57492  0.96267  0.79949  Biso   1.000  C
  C367     1.0000 0.57492  0.96267  0.79954  Biso   1.000  C
  C368     1.0000 0.57492  0.96271  0.79949  Biso   1.000  C
  C369     1.0000 0.57492  0.96271  0.79954  Biso   1.000  C
  C370     1.0000 0.55560  0.88274  0.86587  Biso   1.000  C
  C371     1.0000 0.53733  0.79949  0.92513  Biso   1.000  C
  C372     1.0000 0.53733  0.79954  0.92513  Biso   1.000  C
  C373     1.0000 0.29949  0.92513  0.03733  Biso   1.000  C
  C374     1.0000 0.38274  0.86587  0.05560  Biso   1.000  C
  C375     1.0000 0.46267  0.79949  0.07487  Biso   1.000  C
  C376     1.0000 0.46267  0.79949  0.07492  Biso   1.000  C
  C377     1.0000 0.46267  0.79954  0.07487  Biso   1.000  C
  C378     1.0000 0.46267  0.79954  0.07492  Biso   1.000  C
  H367     1.0000 0.59710  0.99491  0.79129  Biso   1.000  H
  H368     1.0000 0.59710  0.99491  0.79133  Biso   1.000  H
  H369     1.0000 0.52340  0.87290  0.84432  Biso   1.000  H
  N59      1.0000 0.55034  0.76599  0.96481  Biso   1.000  N
  H370     1.0000 0.50509  0.79129  0.90290  Biso   1.000  H
  H371     1.0000 0.50509  0.79133  0.90290  Biso   1.000  H
  H372     1.0000 0.29129  0.90290  0.00509  Biso   1.000  H
  H373     1.0000 0.37290  0.84432  0.02340  Biso   1.000  H
  N60      1.0000 0.44966  0.76599  0.03519  Biso   1.000  N
  H374     1.0000 0.49491  0.79129  0.09710  Biso   1.000  H
  H375     1.0000 0.49491  0.79133  0.09710  Biso   1.000  H
  C379     1.0000 0.51414  0.71662  0.97104  Biso   1.000  C
  C380     1.0000 0.51414  0.71662  0.97109  Biso   1.000  C
  C381     1.0000 0.48586  0.71662  0.02896  Biso   1.000  C
  H376     1.0000 0.53691  0.68199  0.96671  Biso   1.000  H
  H377     1.0000 0.48502  0.71679  0.94129  Biso   1.000  H
  H378     1.0000 0.48502  0.71679  0.94133  Biso   1.000  H
  H379     1.0000 0.53691  0.68203  0.96671  Biso   1.000  H
  H380     1.0000 0.46309  0.68199  0.03329  Biso   1.000  H
  H381     1.0000 0.51503  0.71679  0.05871  Biso   1.000  H
  H382     1.0000 0.46309  0.68199  0.03333  Biso   1.000  H
  H383     1.0000 0.46309  0.68203  0.03329  Biso   1.000  H
  H384     1.0000 0.46309  0.68203  0.03333  Biso   1.000  H
  C382     1.0000 0.53733  0.20051  0.07492  Biso   1.000  C
  N61      1.0000 0.55034  0.23401  0.03519  Biso   1.000  N
  H385     1.0000 0.50509  0.20871  0.09710  Biso   1.000  H
  C383     1.0000 0.57020  0.14954  0.08779  Biso   1.000  C
  C384     1.0000 0.57020  0.14954  0.08784  Biso   1.000  C
  C385     1.0000 0.57020  0.14958  0.08779  Biso   1.000  C
  C386     1.0000 0.57020  0.14958  0.08784  Biso   1.000  C
  C387     1.0000 0.51414  0.28338  0.02896  Biso   1.000  C
  C388     1.0000 0.53733  0.20051  0.07487  Biso   1.000  C
  C389     1.0000 0.61726  0.13413  0.05560  Biso   1.000  C
  C390     1.0000 0.55560  0.11726  0.13413  Biso   1.000  C
  C391     1.0000 0.55560  0.11726  0.13418  Biso   1.000  C
  C392     1.0000 0.61726  0.13418  0.05560  Biso   1.000  C
  H386     1.0000 0.48502  0.28321  0.05871  Biso   1.000  H
  C393     1.0000 0.48586  0.28338  0.97104  Biso   1.000  C
  C394     1.0000 0.48586  0.28338  0.97109  Biso   1.000  C
  H387     1.0000 0.53691  0.31801  0.03329  Biso   1.000  H
  H388     1.0000 0.53691  0.31801  0.03333  Biso   1.000  H
  H389     1.0000 0.62710  0.15568  0.02340  Biso   1.000  H
  C395     1.0000 0.64958  0.08779  0.07020  Biso   1.000  C
  H390     1.0000 0.62710  0.15572  0.02340  Biso   1.000  H
  C396     1.0000 0.64958  0.08784  0.07020  Biso   1.000  C
  C397     1.0000 0.58784  0.07020  0.14954  Biso   1.000  C
  H391     1.0000 0.52340  0.12710  0.15568  Biso   1.000  H
  C398     1.0000 0.58784  0.07020  0.14958  Biso   1.000  C
  H392     1.0000 0.52340  0.12710  0.15572  Biso   1.000  H
  N62      1.0000 0.44966  0.23401  0.96481  Biso   1.000  N
  H393     1.0000 0.46309  0.31801  0.96671  Biso   1.000  H
  H394     1.0000 0.51503  0.28321  0.94129  Biso   1.000  H
  H395     1.0000 0.51503  0.28321  0.94133  Biso   1.000  H
  C399     1.0000 0.63413  0.05560  0.11726  Biso   1.000  C
  C400     1.0000 0.70051  0.07487  0.03733  Biso   1.000  C
  C401     1.0000 0.70051  0.07492  0.03733  Biso   1.000  C
  C402     1.0000 0.57492  0.03733  0.20051  Biso   1.000  C
  C403     1.0000 0.46267  0.20051  0.92513  Biso   1.000  C
  H396     1.0000 0.65572  0.02340  0.12710  Biso   1.000  H
  N63      1.0000 0.73401  0.03519  0.05034  Biso   1.000  N
  H397     1.0000 0.70871  0.09710  0.00509  Biso   1.000  H
  N64      1.0000 0.53519  0.05034  0.23401  Biso   1.000  N
  H398     1.0000 0.59710  0.00509  0.20871  Biso   1.000  H
  H399     1.0000 0.49491  0.20871  0.90290  Biso   1.000  H
  C404     1.0000 0.42980  0.14954  0.91221  Biso   1.000  C
  C405     1.0000 0.42980  0.14958  0.91221  Biso   1.000  C
  C406     1.0000 0.78338  0.02896  0.01414  Biso   1.000  C
  C407     1.0000 0.78338  0.02896  0.01418  Biso   1.000  C
  C408     1.0000 0.52896  0.01414  0.28338  Biso   1.000  C
  C409     1.0000 0.52896  0.01418  0.28338  Biso   1.000  C
  C410     1.0000 0.38274  0.13413  0.94440  Biso   1.000  C
  C411     1.0000 0.44440  0.11726  0.86587  Biso   1.000  C
  C412     1.0000 0.38274  0.13418  0.94440  Biso   1.000  C
  C413     1.0000 0.78338  0.97104  0.98586  Biso   1.000  C
  C414     1.0000 0.78338  0.97109  0.98586  Biso   1.000  C
  H400     1.0000 0.78321  0.05871  0.98502  Biso   1.000  H
  H401     1.0000 0.81801  0.03329  0.03691  Biso   1.000  H
  H402     1.0000 0.81801  0.03333  0.03691  Biso   1.000  H
  H403     1.0000 0.53329  0.03691  0.31801  Biso   1.000  H
  C415     1.0000 0.47109  0.98586  0.28338  Biso   1.000  C
  H404     1.0000 0.55871  0.98502  0.28321  Biso   1.000  H
  C416     1.0000 0.35046  0.08779  0.92980  Biso   1.000  C
  H405     1.0000 0.37290  0.15568  0.97660  Biso   1.000  H
  C417     1.0000 0.35046  0.08784  0.92980  Biso   1.000  C
  H406     1.0000 0.37290  0.15572  0.97660  Biso   1.000  H
  C418     1.0000 0.41221  0.07020  0.85046  Biso   1.000  C
  H407     1.0000 0.47660  0.12710  0.84432  Biso   1.000  H
  N65      1.0000 0.73401  0.96481  0.94966  Biso   1.000  N
  H408     1.0000 0.81801  0.96671  0.96309  Biso   1.000  H
  H409     1.0000 0.81801  0.96671  0.96313  Biso   1.000  H
  H410     1.0000 0.78321  0.94129  0.01498  Biso   1.000  H
  H411     1.0000 0.78321  0.94129  0.01503  Biso   1.000  H
  H412     1.0000 0.78321  0.94133  0.01498  Biso   1.000  H
  H413     1.0000 0.78321  0.94133  0.01503  Biso   1.000  H
  N66      1.0000 0.46481  0.94966  0.23401  Biso   1.000  N
  H414     1.0000 0.46671  0.96309  0.31801  Biso   1.000  H
  H415     1.0000 0.46671  0.96313  0.31801  Biso   1.000  H
  H416     1.0000 0.44129  0.01498  0.28321  Biso   1.000  H
  H417     1.0000 0.44129  0.01503  0.28321  Biso   1.000  H
  C419     1.0000 0.29949  0.07487  0.96267  Biso   1.000  C
  C420     1.0000 0.36587  0.05560  0.88274  Biso   1.000  C
  C421     1.0000 0.29949  0.07487  0.96271  Biso   1.000  C
  C422     1.0000 0.29949  0.07492  0.96267  Biso   1.000  C
  C423     1.0000 0.29949  0.07492  0.96271  Biso   1.000  C
  C424     1.0000 0.42513  0.03733  0.79949  Biso   1.000  C
  C425     1.0000 0.42513  0.03733  0.79954  Biso   1.000  C
  C426     1.0000 0.70051  0.92513  0.96267  Biso   1.000  C
  C427     1.0000 0.70051  0.92513  0.96271  Biso   1.000  C
  C428     1.0000 0.42513  0.96267  0.20051  Biso   1.000  C
  C429     1.0000 0.42513  0.96271  0.20051  Biso   1.000  C
  N67      1.0000 0.26599  0.03519  0.94966  Biso   1.000  N
  H418     1.0000 0.29129  0.09710  0.99491  Biso   1.000  H
  H419     1.0000 0.34432  0.02340  0.87290  Biso   1.000  H
  N68      1.0000 0.46481  0.05034  0.76599  Biso   1.000  N
  H420     1.0000 0.40290  0.00509  0.79129  Biso   1.000  H
  H421     1.0000 0.40290  0.00509  0.79133  Biso   1.000  H
  H422     1.0000 0.70871  0.90290  0.99491  Biso   1.000  H
  C430     1.0000 0.64958  0.91221  0.92980  Biso   1.000  C
  H423     1.0000 0.40290  0.99491  0.20871  Biso   1.000  H
  C431     1.0000 0.41221  0.92980  0.14954  Biso   1.000  C
  C432     1.0000 0.41221  0.92980  0.14958  Biso   1.000  C
  C433     1.0000 0.21662  0.02896  0.98586  Biso   1.000  C
  C434     1.0000 0.47109  0.01414  0.71662  Biso   1.000  C
  C435     1.0000 0.47109  0.01418  0.71662  Biso   1.000  C
  C436     1.0000 0.63413  0.94440  0.88274  Biso   1.000  C
  C437     1.0000 0.61726  0.86587  0.94440  Biso   1.000  C
  C438     1.0000 0.36587  0.94440  0.11726  Biso   1.000  C
  C439     1.0000 0.44440  0.88274  0.13413  Biso   1.000  C
  C440     1.0000 0.44440  0.88274  0.13418  Biso   1.000  C
  C441     1.0000 0.21662  0.97104  0.01414  Biso   1.000  C
  C442     1.0000 0.21662  0.97104  0.01418  Biso   1.000  C
  C443     1.0000 0.21662  0.97109  0.01414  Biso   1.000  C
  C444     1.0000 0.21662  0.97109  0.01418  Biso   1.000  C
  H424     1.0000 0.18199  0.03329  0.96309  Biso   1.000  H
  H425     1.0000 0.18199  0.03329  0.96313  Biso   1.000  H
  H426     1.0000 0.18199  0.03333  0.96309  Biso   1.000  H
  H427     1.0000 0.18199  0.03333  0.96313  Biso   1.000  H
  H428     1.0000 0.21679  0.05871  0.01498  Biso   1.000  H
  H429     1.0000 0.21679  0.05871  0.01503  Biso   1.000  H
  C445     1.0000 0.52896  0.98586  0.71662  Biso   1.000  C
  H430     1.0000 0.44129  0.98502  0.71679  Biso   1.000  H
  H431     1.0000 0.46671  0.03691  0.68199  Biso   1.000  H
  H432     1.0000 0.46671  0.03691  0.68203  Biso   1.000  H
  C446     1.0000 0.58784  0.92980  0.85046  Biso   1.000  C
  H433     1.0000 0.65572  0.97660  0.87290  Biso   1.000  H
  C447     1.0000 0.57020  0.85046  0.91221  Biso   1.000  C
  H434     1.0000 0.62710  0.84432  0.97660  Biso   1.000  H
  C448     1.0000 0.35046  0.91221  0.07020  Biso   1.000  C
  H435     1.0000 0.34432  0.97660  0.12710  Biso   1.000  H
  C449     1.0000 0.42980  0.85046  0.08779  Biso   1.000  C
  H436     1.0000 0.47660  0.87290  0.15568  Biso   1.000  H
  C450     1.0000 0.42980  0.85046  0.08784  Biso   1.000  C
  H437     1.0000 0.47660  0.87290  0.15572  Biso   1.000  H
  H438     1.0000 0.21679  0.94129  0.98502  Biso   1.000  H
  H439     1.0000 0.21679  0.94133  0.98502  Biso   1.000  H
  N69      1.0000 0.26599  0.96481  0.05034  Biso   1.000  N
  H440     1.0000 0.18199  0.96671  0.03691  Biso   1.000  H
  N70      1.0000 0.53519  0.94966  0.76599  Biso   1.000  N
  H441     1.0000 0.53329  0.96309  0.68199  Biso   1.000  H
  H442     1.0000 0.53329  0.96309  0.68203  Biso   1.000  H
  H443     1.0000 0.53329  0.96313  0.68199  Biso   1.000  H
  H444     1.0000 0.53329  0.96313  0.68203  Biso   1.000  H
  H445     1.0000 0.55871  0.01498  0.71679  Biso   1.000  H
  H446     1.0000 0.55871  0.01503  0.71679  Biso   1.000  H
  C451     1.0000 0.57492  0.96267  0.79949  Biso   1.000  C
  C452     1.0000 0.57492  0.96267  0.79954  Biso   1.000  C
  C453     1.0000 0.57492  0.96271  0.79949  Biso   1.000  C
  C454     1.0000 0.57492  0.96271  0.79954  Biso   1.000  C
  C455     1.0000 0.55560  0.88274  0.86587  Biso   1.000  C
  C456     1.0000 0.53733  0.79949  0.92513  Biso   1.000  C
  C457     1.0000 0.53733  0.79954  0.92513  Biso   1.000  C
  C458     1.0000 0.29949  0.92513  0.03733  Biso   1.000  C
  C459     1.0000 0.38274  0.86587  0.05560  Biso   1.000  C
  C460     1.0000 0.46267  0.79949  0.07487  Biso   1.000  C
  C461     1.0000 0.46267  0.79949  0.07492  Biso   1.000  C
  C462     1.0000 0.46267  0.79954  0.07487  Biso   1.000  C
  C463     1.0000 0.46267  0.79954  0.07492  Biso   1.000  C
  H447     1.0000 0.59710  0.99491  0.79129  Biso   1.000  H
  H448     1.0000 0.59710  0.99491  0.79133  Biso   1.000  H
  H449     1.0000 0.52340  0.87290  0.84432  Biso   1.000  H
  N71      1.0000 0.55034  0.76599  0.96481  Biso   1.000  N
  H450     1.0000 0.50509  0.79129  0.90290  Biso   1.000  H
  H451     1.0000 0.50509  0.79133  0.90290  Biso   1.000  H
  H452     1.0000 0.29129  0.90290  0.00509  Biso   1.000  H
  H453     1.0000 0.37290  0.84432  0.02340  Biso   1.000  H
  N72      1.0000 0.44966  0.76599  0.03519  Biso   1.000  N
  H454     1.0000 0.49491  0.79129  0.09710  Biso   1.000  H
  H455     1.0000 0.49491  0.79133  0.09710  Biso   1.000  H
  C464     1.0000 0.51414  0.71662  0.97104  Biso   1.000  C
  C465     1.0000 0.51414  0.71662  0.97109  Biso   1.000  C
  C466     1.0000 0.48586  0.71662  0.02896  Biso   1.000  C
  H456     1.0000 0.53691  0.68199  0.96671  Biso   1.000  H
  H457     1.0000 0.48502  0.71679  0.94129  Biso   1.000  H
  H458     1.0000 0.48502  0.71679  0.94133  Biso   1.000  H
  H459     1.0000 0.53691  0.68203  0.96671  Biso   1.000  H
  H460     1.0000 0.46309  0.68199  0.03329  Biso   1.000  H
  H461     1.0000 0.51503  0.71679  0.05871  Biso   1.000  H
  H462     1.0000 0.46309  0.68199  0.03333  Biso   1.000  H
  H463     1.0000 0.46309  0.68203  0.03329  Biso   1.000  H
  H464     1.0000 0.46309  0.68203  0.03333  Biso   1.000  H
  C467     1.0000 0.20051  0.07492  0.53733  Biso   1.000  C
  N73      1.0000 0.23401  0.03519  0.55034  Biso   1.000  N
  H465     1.0000 0.20871  0.09710  0.50509  Biso   1.000  H
  C468     1.0000 0.14954  0.08779  0.57020  Biso   1.000  C
  C469     1.0000 0.14954  0.08784  0.57020  Biso   1.000  C
  C470     1.0000 0.14958  0.08779  0.57020  Biso   1.000  C
  C471     1.0000 0.14958  0.08784  0.57020  Biso   1.000  C
  C472     1.0000 0.28338  0.02896  0.51414  Biso   1.000  C
  C473     1.0000 0.20051  0.07487  0.53733  Biso   1.000  C
  C474     1.0000 0.13413  0.05560  0.61726  Biso   1.000  C
  C475     1.0000 0.11726  0.13413  0.55560  Biso   1.000  C
  C476     1.0000 0.11726  0.13418  0.55560  Biso   1.000  C
  C477     1.0000 0.13418  0.05560  0.61726  Biso   1.000  C
  H466     1.0000 0.31801  0.03329  0.53691  Biso   1.000  H
  H467     1.0000 0.28321  0.05871  0.48502  Biso   1.000  H
  H468     1.0000 0.31801  0.03333  0.53691  Biso   1.000  H
  C478     1.0000 0.28338  0.97104  0.48586  Biso   1.000  C
  C479     1.0000 0.28338  0.97109  0.48586  Biso   1.000  C
  H469     1.0000 0.15568  0.02340  0.62710  Biso   1.000  H
  C480     1.0000 0.08779  0.07020  0.64958  Biso   1.000  C
  H470     1.0000 0.15572  0.02340  0.62710  Biso   1.000  H
  C481     1.0000 0.08784  0.07020  0.64958  Biso   1.000  C
  C482     1.0000 0.07020  0.14954  0.58784  Biso   1.000  C
  H471     1.0000 0.12710  0.15568  0.52340  Biso   1.000  H
  C483     1.0000 0.07020  0.14958  0.58784  Biso   1.000  C
  H472     1.0000 0.12710  0.15572  0.52340  Biso   1.000  H
  N74      1.0000 0.23401  0.96481  0.44966  Biso   1.000  N
  H473     1.0000 0.31801  0.96671  0.46309  Biso   1.000  H
  H474     1.0000 0.28321  0.94129  0.51503  Biso   1.000  H
  H475     1.0000 0.28321  0.94133  0.51503  Biso   1.000  H
  C484     1.0000 0.07487  0.03733  0.70051  Biso   1.000  C
  C485     1.0000 0.05560  0.11726  0.63413  Biso   1.000  C
  C486     1.0000 0.07492  0.03733  0.70051  Biso   1.000  C
  C487     1.0000 0.03733  0.20051  0.57492  Biso   1.000  C
  C488     1.0000 0.20051  0.92513  0.46267  Biso   1.000  C
  N75      1.0000 0.03519  0.05034  0.73401  Biso   1.000  N
  H476     1.0000 0.09710  0.00509  0.70871  Biso   1.000  H
  H477     1.0000 0.02340  0.12710  0.65572  Biso   1.000  H
  N76      1.0000 0.05034  0.23401  0.53519  Biso   1.000  N
  H478     1.0000 0.00509  0.20871  0.59710  Biso   1.000  H
  H479     1.0000 0.20871  0.90290  0.49491  Biso   1.000  H
  C489     1.0000 0.14954  0.91221  0.42980  Biso   1.000  C
  C490     1.0000 0.14958  0.91221  0.42980  Biso   1.000  C
  C491     1.0000 0.02896  0.01414  0.78338  Biso   1.000  C
  C492     1.0000 0.02896  0.01418  0.78338  Biso   1.000  C
  C493     1.0000 0.01414  0.28338  0.52896  Biso   1.000  C
  C494     1.0000 0.01418  0.28338  0.52896  Biso   1.000  C
  C495     1.0000 0.13413  0.94440  0.38274  Biso   1.000  C
  C496     1.0000 0.11726  0.86587  0.44440  Biso   1.000  C
  C497     1.0000 0.13418  0.94440  0.38274  Biso   1.000  C
  H480     1.0000 0.03329  0.03691  0.81801  Biso   1.000  H
  H481     1.0000 0.03333  0.03691  0.81801  Biso   1.000  H
  C498     1.0000 0.97104  0.98586  0.78338  Biso   1.000  C
  C499     1.0000 0.97109  0.98586  0.78338  Biso   1.000  C
  H482     1.0000 0.05871  0.98502  0.78321  Biso   1.000  H
  H483     1.0000 0.03691  0.31801  0.53329  Biso   1.000  H
  C500     1.0000 0.98586  0.28338  0.47109  Biso   1.000  C
  H484     1.0000 0.98502  0.28321  0.55871  Biso   1.000  H
  C501     1.0000 0.08779  0.92980  0.35046  Biso   1.000  C
  H485     1.0000 0.15568  0.97660  0.37290  Biso   1.000  H
  C502     1.0000 0.08784  0.92980  0.35046  Biso   1.000  C
  H486     1.0000 0.15572  0.97660  0.37290  Biso   1.000  H
  C503     1.0000 0.07020  0.85046  0.41221  Biso   1.000  C
  H487     1.0000 0.12710  0.84432  0.47660  Biso   1.000  H
  N77      1.0000 0.96481  0.94966  0.73401  Biso   1.000  N
  H488     1.0000 0.96671  0.96309  0.81801  Biso   1.000  H
  H489     1.0000 0.96671  0.96313  0.81801  Biso   1.000  H
  H490     1.0000 0.94129  0.01498  0.78321  Biso   1.000  H
  H491     1.0000 0.94129  0.01503  0.78321  Biso   1.000  H
  H492     1.0000 0.94133  0.01498  0.78321  Biso   1.000  H
  H493     1.0000 0.94133  0.01503  0.78321  Biso   1.000  H
  H494     1.0000 0.01498  0.28321  0.44129  Biso   1.000  H
  H495     1.0000 0.01503  0.28321  0.44129  Biso   1.000  H
  N78      1.0000 0.94966  0.23401  0.46481  Biso   1.000  N
  H496     1.0000 0.96309  0.31801  0.46671  Biso   1.000  H
  H497     1.0000 0.96313  0.31801  0.46671  Biso   1.000  H
  C504     1.0000 0.07487  0.96267  0.29949  Biso   1.000  C
  C505     1.0000 0.05560  0.88274  0.36587  Biso   1.000  C
  C506     1.0000 0.07487  0.96271  0.29949  Biso   1.000  C
  C507     1.0000 0.07492  0.96267  0.29949  Biso   1.000  C
  C508     1.0000 0.07492  0.96271  0.29949  Biso   1.000  C
  C509     1.0000 0.03733  0.79949  0.42513  Biso   1.000  C
  C510     1.0000 0.03733  0.79954  0.42513  Biso   1.000  C
  C511     1.0000 0.92513  0.96267  0.70051  Biso   1.000  C
  C512     1.0000 0.92513  0.96271  0.70051  Biso   1.000  C
  C513     1.0000 0.96267  0.20051  0.42513  Biso   1.000  C
  C514     1.0000 0.96271  0.20051  0.42513  Biso   1.000  C
  N79      1.0000 0.03519  0.94966  0.26599  Biso   1.000  N
  H498     1.0000 0.09710  0.99491  0.29129  Biso   1.000  H
  H499     1.0000 0.02340  0.87290  0.34432  Biso   1.000  H
  N80      1.0000 0.05034  0.76599  0.46481  Biso   1.000  N
  H500     1.0000 0.00509  0.79129  0.40290  Biso   1.000  H
  H501     1.0000 0.00509  0.79133  0.40290  Biso   1.000  H
  H502     1.0000 0.90290  0.99491  0.70871  Biso   1.000  H
  C515     1.0000 0.91221  0.92980  0.64958  Biso   1.000  C
  H503     1.0000 0.99491  0.20871  0.40290  Biso   1.000  H
  C516     1.0000 0.92980  0.14954  0.41221  Biso   1.000  C
  C517     1.0000 0.92980  0.14958  0.41221  Biso   1.000  C
  C518     1.0000 0.02896  0.98586  0.21662  Biso   1.000  C
  C519     1.0000 0.01414  0.71662  0.47109  Biso   1.000  C
  C520     1.0000 0.01418  0.71662  0.47109  Biso   1.000  C
  C521     1.0000 0.94440  0.88274  0.63413  Biso   1.000  C
  C522     1.0000 0.86587  0.94440  0.61726  Biso   1.000  C
  C523     1.0000 0.94440  0.11726  0.36587  Biso   1.000  C
  C524     1.0000 0.88274  0.13413  0.44440  Biso   1.000  C
  C525     1.0000 0.88274  0.13418  0.44440  Biso   1.000  C
  H504     1.0000 0.05871  0.01498  0.21679  Biso   1.000  H
  H505     1.0000 0.05871  0.01503  0.21679  Biso   1.000  H
  C526     1.0000 0.97104  0.01414  0.21662  Biso   1.000  C
  C527     1.0000 0.97104  0.01418  0.21662  Biso   1.000  C
  C528     1.0000 0.97109  0.01414  0.21662  Biso   1.000  C
  C529     1.0000 0.97109  0.01418  0.21662  Biso   1.000  C
  H506     1.0000 0.03329  0.96309  0.18199  Biso   1.000  H
  H507     1.0000 0.03329  0.96313  0.18199  Biso   1.000  H
  H508     1.0000 0.03333  0.96309  0.18199  Biso   1.000  H
  H509     1.0000 0.03333  0.96313  0.18199  Biso   1.000  H
  C530     1.0000 0.98586  0.71662  0.52896  Biso   1.000  C
  H510     1.0000 0.98502  0.71679  0.44129  Biso   1.000  H
  H511     1.0000 0.03691  0.68199  0.46671  Biso   1.000  H
  H512     1.0000 0.03691  0.68203  0.46671  Biso   1.000  H
  C531     1.0000 0.92980  0.85046  0.58784  Biso   1.000  C
  H513     1.0000 0.97660  0.87290  0.65572  Biso   1.000  H
  C532     1.0000 0.85046  0.91221  0.57020  Biso   1.000  C
  H514     1.0000 0.84432  0.97660  0.62710  Biso   1.000  H
  C533     1.0000 0.91221  0.07020  0.35046  Biso   1.000  C
  H515     1.0000 0.97660  0.12710  0.34432  Biso   1.000  H
  C534     1.0000 0.85046  0.08779  0.42980  Biso   1.000  C
  H516     1.0000 0.87290  0.15568  0.47660  Biso   1.000  H
  C535     1.0000 0.85046  0.08784  0.42980  Biso   1.000  C
  H517     1.0000 0.87290  0.15572  0.47660  Biso   1.000  H
  H518     1.0000 0.94129  0.98502  0.21679  Biso   1.000  H
  H519     1.0000 0.94133  0.98502  0.21679  Biso   1.000  H
  N81      1.0000 0.96481  0.05034  0.26599  Biso   1.000  N
  H520     1.0000 0.96671  0.03691  0.18199  Biso   1.000  H
  N82      1.0000 0.94966  0.76599  0.53519  Biso   1.000  N
  H521     1.0000 0.96309  0.68199  0.53329  Biso   1.000  H
  H522     1.0000 0.96309  0.68203  0.53329  Biso   1.000  H
  H523     1.0000 0.96313  0.68199  0.53329  Biso   1.000  H
  H524     1.0000 0.96313  0.68203  0.53329  Biso   1.000  H
  H525     1.0000 0.01498  0.71679  0.55871  Biso   1.000  H
  H526     1.0000 0.01503  0.71679  0.55871  Biso   1.000  H
  C536     1.0000 0.96267  0.79949  0.57492  Biso   1.000  C
  C537     1.0000 0.88274  0.86587  0.55560  Biso   1.000  C
  C538     1.0000 0.96267  0.79954  0.57492  Biso   1.000  C
  C539     1.0000 0.96271  0.79949  0.57492  Biso   1.000  C
  C540     1.0000 0.96271  0.79954  0.57492  Biso   1.000  C
  C541     1.0000 0.79949  0.92513  0.53733  Biso   1.000  C
  C542     1.0000 0.79954  0.92513  0.53733  Biso   1.000  C
  C543     1.0000 0.92513  0.03733  0.29949  Biso   1.000  C
  C544     1.0000 0.86587  0.05560  0.38274  Biso   1.000  C
  C545     1.0000 0.79949  0.07487  0.46267  Biso   1.000  C
  C546     1.0000 0.79949  0.07492  0.46267  Biso   1.000  C
  C547     1.0000 0.79954  0.07487  0.46267  Biso   1.000  C
  C548     1.0000 0.79954  0.07492  0.46267  Biso   1.000  C
  H527     1.0000 0.99491  0.79129  0.59710  Biso   1.000  H
  H528     1.0000 0.99491  0.79133  0.59710  Biso   1.000  H
  H529     1.0000 0.87290  0.84432  0.52340  Biso   1.000  H
  N83      1.0000 0.76599  0.96481  0.55034  Biso   1.000  N
  H530     1.0000 0.79129  0.90290  0.50509  Biso   1.000  H
  H531     1.0000 0.79133  0.90290  0.50509  Biso   1.000  H
  H532     1.0000 0.90290  0.00509  0.29129  Biso   1.000  H
  H533     1.0000 0.84432  0.02340  0.37290  Biso   1.000  H
  N84      1.0000 0.76599  0.03519  0.44966  Biso   1.000  N
  H534     1.0000 0.79129  0.09710  0.49491  Biso   1.000  H
  H535     1.0000 0.79133  0.09710  0.49491  Biso   1.000  H
  C549     1.0000 0.71662  0.97104  0.51414  Biso   1.000  C
  C550     1.0000 0.71662  0.97109  0.51414  Biso   1.000  C
  C551     1.0000 0.71662  0.02896  0.48586  Biso   1.000  C
  H536     1.0000 0.68199  0.96671  0.53691  Biso   1.000  H
  H537     1.0000 0.71679  0.94129  0.48502  Biso   1.000  H
  H538     1.0000 0.71679  0.94133  0.48502  Biso   1.000  H
  H539     1.0000 0.68203  0.96671  0.53691  Biso   1.000  H
  H540     1.0000 0.68199  0.03329  0.46309  Biso   1.000  H
  H541     1.0000 0.71679  0.05871  0.51503  Biso   1.000  H
  H542     1.0000 0.68199  0.03333  0.46309  Biso   1.000  H
  H543     1.0000 0.68203  0.03329  0.46309  Biso   1.000  H
  H544     1.0000 0.68203  0.03333  0.46309  Biso   1.000  H
  C552     1.0000 0.20051  0.07492  0.53733  Biso   1.000  C
  N85      1.0000 0.23401  0.03519  0.55034  Biso   1.000  N
  H545     1.0000 0.20871  0.09710  0.50509  Biso   1.000  H
  C553     1.0000 0.14954  0.08779  0.57020  Biso   1.000  C
  C554     1.0000 0.14954  0.08784  0.57020  Biso   1.000  C
  C555     1.0000 0.14958  0.08779  0.57020  Biso   1.000  C
  C556     1.0000 0.14958  0.08784  0.57020  Biso   1.000  C
  C557     1.0000 0.28338  0.02896  0.51414  Biso   1.000  C
  C558     1.0000 0.20051  0.07487  0.53733  Biso   1.000  C
  C559     1.0000 0.13413  0.05560  0.61726  Biso   1.000  C
  C560     1.0000 0.11726  0.13413  0.55560  Biso   1.000  C
  C561     1.0000 0.13418  0.05560  0.61726  Biso   1.000  C
  C562     1.0000 0.11726  0.13418  0.55560  Biso   1.000  C
  H546     1.0000 0.28321  0.05871  0.48502  Biso   1.000  H
  H547     1.0000 0.31801  0.03329  0.53691  Biso   1.000  H
  H548     1.0000 0.31801  0.03333  0.53691  Biso   1.000  H
  C563     1.0000 0.28338  0.97104  0.48586  Biso   1.000  C
  C564     1.0000 0.28338  0.97109  0.48586  Biso   1.000  C
  H549     1.0000 0.15568  0.02340  0.62710  Biso   1.000  H
  C565     1.0000 0.08779  0.07020  0.64958  Biso   1.000  C
  H550     1.0000 0.15572  0.02340  0.62710  Biso   1.000  H
  C566     1.0000 0.08784  0.07020  0.64958  Biso   1.000  C
  C567     1.0000 0.07020  0.14954  0.58784  Biso   1.000  C
  H551     1.0000 0.12710  0.15568  0.52340  Biso   1.000  H
  C568     1.0000 0.07020  0.14958  0.58784  Biso   1.000  C
  H552     1.0000 0.12710  0.15572  0.52340  Biso   1.000  H
  N86      1.0000 0.23401  0.96481  0.44966  Biso   1.000  N
  H553     1.0000 0.31801  0.96671  0.46309  Biso   1.000  H
  H554     1.0000 0.28321  0.94129  0.51503  Biso   1.000  H
  H555     1.0000 0.28321  0.94133  0.51503  Biso   1.000  H
  C569     1.0000 0.07487  0.03733  0.70051  Biso   1.000  C
  C570     1.0000 0.05560  0.11726  0.63413  Biso   1.000  C
  C571     1.0000 0.07492  0.03733  0.70051  Biso   1.000  C
  C572     1.0000 0.03733  0.20051  0.57492  Biso   1.000  C
  C573     1.0000 0.20051  0.92513  0.46267  Biso   1.000  C
  N87      1.0000 0.03519  0.05034  0.73401  Biso   1.000  N
  H556     1.0000 0.09710  0.00509  0.70871  Biso   1.000  H
  H557     1.0000 0.02340  0.12710  0.65572  Biso   1.000  H
  N88      1.0000 0.05034  0.23401  0.53519  Biso   1.000  N
  H558     1.0000 0.00509  0.20871  0.59710  Biso   1.000  H
  H559     1.0000 0.20871  0.90290  0.49491  Biso   1.000  H
  C574     1.0000 0.14954  0.91221  0.42980  Biso   1.000  C
  C575     1.0000 0.14958  0.91221  0.42980  Biso   1.000  C
  C576     1.0000 0.02896  0.01414  0.78338  Biso   1.000  C
  C577     1.0000 0.02896  0.01418  0.78338  Biso   1.000  C
  C578     1.0000 0.01414  0.28338  0.52896  Biso   1.000  C
  C579     1.0000 0.01418  0.28338  0.52896  Biso   1.000  C
  C580     1.0000 0.13413  0.94440  0.38274  Biso   1.000  C
  C581     1.0000 0.11726  0.86587  0.44440  Biso   1.000  C
  C582     1.0000 0.13418  0.94440  0.38274  Biso   1.000  C
  H560     1.0000 0.03329  0.03691  0.81801  Biso   1.000  H
  H561     1.0000 0.03333  0.03691  0.81801  Biso   1.000  H
  C583     1.0000 0.97104  0.98586  0.78338  Biso   1.000  C
  C584     1.0000 0.97109  0.98586  0.78338  Biso   1.000  C
  H562     1.0000 0.05871  0.98502  0.78321  Biso   1.000  H
  H563     1.0000 0.03691  0.31801  0.53329  Biso   1.000  H
  C585     1.0000 0.98586  0.28338  0.47109  Biso   1.000  C
  H564     1.0000 0.98502  0.28321  0.55871  Biso   1.000  H
  C586     1.0000 0.08779  0.92980  0.35046  Biso   1.000  C
  H565     1.0000 0.15568  0.97660  0.37290  Biso   1.000  H
  C587     1.0000 0.08784  0.92980  0.35046  Biso   1.000  C
  H566     1.0000 0.15572  0.97660  0.37290  Biso   1.000  H
  C588     1.0000 0.07020  0.85046  0.41221  Biso   1.000  C
  H567     1.0000 0.12710  0.84432  0.47660  Biso   1.000  H
  N89      1.0000 0.96481  0.94966  0.73401  Biso   1.000  N
  H568     1.0000 0.96671  0.96309  0.81801  Biso   1.000  H
  H569     1.0000 0.96671  0.96313  0.81801  Biso   1.000  H
  H570     1.0000 0.94129  0.01498  0.78321  Biso   1.000  H
  H571     1.0000 0.94129  0.01503  0.78321  Biso   1.000  H
  H572     1.0000 0.94133  0.01498  0.78321  Biso   1.000  H
  H573     1.0000 0.94133  0.01503  0.78321  Biso   1.000  H
  H574     1.0000 0.01498  0.28321  0.44129  Biso   1.000  H
  H575     1.0000 0.01503  0.28321  0.44129  Biso   1.000  H
  N90      1.0000 0.94966  0.23401  0.46481  Biso   1.000  N
  H576     1.0000 0.96309  0.31801  0.46671  Biso   1.000  H
  H577     1.0000 0.96313  0.31801  0.46671  Biso   1.000  H
  C589     1.0000 0.07487  0.96267  0.29949  Biso   1.000  C
  C590     1.0000 0.05560  0.88274  0.36587  Biso   1.000  C
  C591     1.0000 0.07487  0.96271  0.29949  Biso   1.000  C
  C592     1.0000 0.07492  0.96267  0.29949  Biso   1.000  C
  C593     1.0000 0.07492  0.96271  0.29949  Biso   1.000  C
  C594     1.0000 0.03733  0.79949  0.42513  Biso   1.000  C
  C595     1.0000 0.03733  0.79954  0.42513  Biso   1.000  C
  C596     1.0000 0.92513  0.96267  0.70051  Biso   1.000  C
  C597     1.0000 0.92513  0.96271  0.70051  Biso   1.000  C
  C598     1.0000 0.96267  0.20051  0.42513  Biso   1.000  C
  C599     1.0000 0.96271  0.20051  0.42513  Biso   1.000  C
  N91      1.0000 0.03519  0.94966  0.26599  Biso   1.000  N
  H578     1.0000 0.09710  0.99491  0.29129  Biso   1.000  H
  H579     1.0000 0.02340  0.87290  0.34432  Biso   1.000  H
  N92      1.0000 0.05034  0.76599  0.46481  Biso   1.000  N
  H580     1.0000 0.00509  0.79129  0.40290  Biso   1.000  H
  H581     1.0000 0.00509  0.79133  0.40290  Biso   1.000  H
  H582     1.0000 0.90290  0.99491  0.70871  Biso   1.000  H
  C600     1.0000 0.91221  0.92980  0.64958  Biso   1.000  C
  H583     1.0000 0.99491  0.20871  0.40290  Biso   1.000  H
  C601     1.0000 0.92980  0.14954  0.41221  Biso   1.000  C
  C602     1.0000 0.92980  0.14958  0.41221  Biso   1.000  C
  C603     1.0000 0.02896  0.98586  0.21662  Biso   1.000  C
  C604     1.0000 0.01414  0.71662  0.47109  Biso   1.000  C
  C605     1.0000 0.01418  0.71662  0.47109  Biso   1.000  C
  C606     1.0000 0.94440  0.88274  0.63413  Biso   1.000  C
  C607     1.0000 0.86587  0.94440  0.61726  Biso   1.000  C
  C608     1.0000 0.94440  0.11726  0.36587  Biso   1.000  C
  C609     1.0000 0.88274  0.13413  0.44440  Biso   1.000  C
  C610     1.0000 0.88274  0.13418  0.44440  Biso   1.000  C
  H584     1.0000 0.05871  0.01498  0.21679  Biso   1.000  H
  H585     1.0000 0.05871  0.01503  0.21679  Biso   1.000  H
  C611     1.0000 0.97104  0.01414  0.21662  Biso   1.000  C
  C612     1.0000 0.97104  0.01418  0.21662  Biso   1.000  C
  C613     1.0000 0.97109  0.01414  0.21662  Biso   1.000  C
  C614     1.0000 0.97109  0.01418  0.21662  Biso   1.000  C
  H586     1.0000 0.03329  0.96309  0.18199  Biso   1.000  H
  H587     1.0000 0.03329  0.96313  0.18199  Biso   1.000  H
  H588     1.0000 0.03333  0.96309  0.18199  Biso   1.000  H
  H589     1.0000 0.03333  0.96313  0.18199  Biso   1.000  H
  C615     1.0000 0.98586  0.71662  0.52896  Biso   1.000  C
  H590     1.0000 0.98502  0.71679  0.44129  Biso   1.000  H
  H591     1.0000 0.03691  0.68199  0.46671  Biso   1.000  H
  H592     1.0000 0.03691  0.68203  0.46671  Biso   1.000  H
  C616     1.0000 0.92980  0.85046  0.58784  Biso   1.000  C
  H593     1.0000 0.97660  0.87290  0.65572  Biso   1.000  H
  C617     1.0000 0.85046  0.91221  0.57020  Biso   1.000  C
  H594     1.0000 0.84432  0.97660  0.62710  Biso   1.000  H
  C618     1.0000 0.91221  0.07020  0.35046  Biso   1.000  C
  H595     1.0000 0.97660  0.12710  0.34432  Biso   1.000  H
  C619     1.0000 0.85046  0.08779  0.42980  Biso   1.000  C
  H596     1.0000 0.87290  0.15568  0.47660  Biso   1.000  H
  C620     1.0000 0.85046  0.08784  0.42980  Biso   1.000  C
  H597     1.0000 0.87290  0.15572  0.47660  Biso   1.000  H
  H598     1.0000 0.94129  0.98502  0.21679  Biso   1.000  H
  H599     1.0000 0.94133  0.98502  0.21679  Biso   1.000  H
  N93      1.0000 0.96481  0.05034  0.26599  Biso   1.000  N
  H600     1.0000 0.96671  0.03691  0.18199  Biso   1.000  H
  N94      1.0000 0.94966  0.76599  0.53519  Biso   1.000  N
  H601     1.0000 0.96309  0.68199  0.53329  Biso   1.000  H
  H602     1.0000 0.96309  0.68203  0.53329  Biso   1.000  H
  H603     1.0000 0.96313  0.68199  0.53329  Biso   1.000  H
  H604     1.0000 0.96313  0.68203  0.53329  Biso   1.000  H
  H605     1.0000 0.01498  0.71679  0.55871  Biso   1.000  H
  H606     1.0000 0.01503  0.71679  0.55871  Biso   1.000  H
  C621     1.0000 0.96267  0.79949  0.57492  Biso   1.000  C
  C622     1.0000 0.88274  0.86587  0.55560  Biso   1.000  C
  C623     1.0000 0.96267  0.79954  0.57492  Biso   1.000  C
  C624     1.0000 0.96271  0.79949  0.57492  Biso   1.000  C
  C625     1.0000 0.96271  0.79954  0.57492  Biso   1.000  C
  C626     1.0000 0.79949  0.92513  0.53733  Biso   1.000  C
  C627     1.0000 0.79954  0.92513  0.53733  Biso   1.000  C
  C628     1.0000 0.92513  0.03733  0.29949  Biso   1.000  C
  C629     1.0000 0.86587  0.05560  0.38274  Biso   1.000  C
  C630     1.0000 0.79949  0.07487  0.46267  Biso   1.000  C
  C631     1.0000 0.79949  0.07492  0.46267  Biso   1.000  C
  C632     1.0000 0.79954  0.07487  0.46267  Biso   1.000  C
  C633     1.0000 0.79954  0.07492  0.46267  Biso   1.000  C
  H607     1.0000 0.99491  0.79129  0.59710  Biso   1.000  H
  H608     1.0000 0.99491  0.79133  0.59710  Biso   1.000  H
  H609     1.0000 0.87290  0.84432  0.52340  Biso   1.000  H
  N95      1.0000 0.76599  0.96481  0.55034  Biso   1.000  N
  H610     1.0000 0.79129  0.90290  0.50509  Biso   1.000  H
  H611     1.0000 0.79133  0.90290  0.50509  Biso   1.000  H
  H612     1.0000 0.90290  0.00509  0.29129  Biso   1.000  H
  H613     1.0000 0.84432  0.02340  0.37290  Biso   1.000  H
  N96      1.0000 0.76599  0.03519  0.44966  Biso   1.000  N
  H614     1.0000 0.79129  0.09710  0.49491  Biso   1.000  H
  H615     1.0000 0.79133  0.09710  0.49491  Biso   1.000  H
  C634     1.0000 0.71662  0.97104  0.51414  Biso   1.000  C
  C635     1.0000 0.71662  0.97109  0.51414  Biso   1.000  C
  C636     1.0000 0.71662  0.02896  0.48586  Biso   1.000  C
  H616     1.0000 0.68199  0.96671  0.53691  Biso   1.000  H
  H617     1.0000 0.71679  0.94129  0.48502  Biso   1.000  H
  H618     1.0000 0.71679  0.94133  0.48502  Biso   1.000  H
  H619     1.0000 0.68203  0.96671  0.53691  Biso   1.000  H
  H620     1.0000 0.68199  0.03329  0.46309  Biso   1.000  H
  H621     1.0000 0.71679  0.05871  0.51503  Biso   1.000  H
  H622     1.0000 0.68199  0.03333  0.46309  Biso   1.000  H
  H623     1.0000 0.68203  0.03329  0.46309  Biso   1.000  H
  H624     1.0000 0.68203  0.03333  0.46309  Biso   1.000  H
  C637     1.0000 0.20051  0.07492  0.53733  Biso   1.000  C
  N97      1.0000 0.23401  0.03519  0.55034  Biso   1.000  N
  H625     1.0000 0.20871  0.09710  0.50509  Biso   1.000  H
  C638     1.0000 0.14954  0.08779  0.57020  Biso   1.000  C
  C639     1.0000 0.14954  0.08784  0.57020  Biso   1.000  C
  C640     1.0000 0.14958  0.08779  0.57020  Biso   1.000  C
  C641     1.0000 0.14958  0.08784  0.57020  Biso   1.000  C
  C642     1.0000 0.28338  0.02896  0.51414  Biso   1.000  C
  C643     1.0000 0.20051  0.07487  0.53733  Biso   1.000  C
  C644     1.0000 0.13413  0.05560  0.61726  Biso   1.000  C
  C645     1.0000 0.11726  0.13413  0.55560  Biso   1.000  C
  C646     1.0000 0.11726  0.13418  0.55560  Biso   1.000  C
  C647     1.0000 0.13418  0.05560  0.61726  Biso   1.000  C
  H626     1.0000 0.28321  0.05871  0.48502  Biso   1.000  H
  C648     1.0000 0.28338  0.97104  0.48586  Biso   1.000  C
  C649     1.0000 0.28338  0.97109  0.48586  Biso   1.000  C
  H627     1.0000 0.31801  0.03329  0.53691  Biso   1.000  H
  H628     1.0000 0.31801  0.03333  0.53691  Biso   1.000  H
  H629     1.0000 0.15568  0.02340  0.62710  Biso   1.000  H
  C650     1.0000 0.08779  0.07020  0.64958  Biso   1.000  C
  H630     1.0000 0.15572  0.02340  0.62710  Biso   1.000  H
  C651     1.0000 0.08784  0.07020  0.64958  Biso   1.000  C
  C652     1.0000 0.07020  0.14954  0.58784  Biso   1.000  C
  H631     1.0000 0.12710  0.15568  0.52340  Biso   1.000  H
  C653     1.0000 0.07020  0.14958  0.58784  Biso   1.000  C
  H632     1.0000 0.12710  0.15572  0.52340  Biso   1.000  H
  N98      1.0000 0.23401  0.96481  0.44966  Biso   1.000  N
  H633     1.0000 0.31801  0.96671  0.46309  Biso   1.000  H
  H634     1.0000 0.28321  0.94129  0.51503  Biso   1.000  H
  H635     1.0000 0.28321  0.94133  0.51503  Biso   1.000  H
  C654     1.0000 0.05560  0.11726  0.63413  Biso   1.000  C
  C655     1.0000 0.07487  0.03733  0.70051  Biso   1.000  C
  C656     1.0000 0.07492  0.03733  0.70051  Biso   1.000  C
  C657     1.0000 0.03733  0.20051  0.57492  Biso   1.000  C
  C658     1.0000 0.20051  0.92513  0.46267  Biso   1.000  C
  H636     1.0000 0.02340  0.12710  0.65572  Biso   1.000  H
  N99      1.0000 0.03519  0.05034  0.73401  Biso   1.000  N
  H637     1.0000 0.09710  0.00509  0.70871  Biso   1.000  H
  N100     1.0000 0.05034  0.23401  0.53519  Biso   1.000  N
  H638     1.0000 0.00509  0.20871  0.59710  Biso   1.000  H
  H639     1.0000 0.20871  0.90290  0.49491  Biso   1.000  H
  C659     1.0000 0.14954  0.91221  0.42980  Biso   1.000  C
  C660     1.0000 0.14958  0.91221  0.42980  Biso   1.000  C
  C661     1.0000 0.02896  0.01414  0.78338  Biso   1.000  C
  C662     1.0000 0.02896  0.01418  0.78338  Biso   1.000  C
  C663     1.0000 0.01414  0.28338  0.52896  Biso   1.000  C
  C664     1.0000 0.01418  0.28338  0.52896  Biso   1.000  C
  C665     1.0000 0.13413  0.94440  0.38274  Biso   1.000  C
  C666     1.0000 0.11726  0.86587  0.44440  Biso   1.000  C
  C667     1.0000 0.13418  0.94440  0.38274  Biso   1.000  C
  C668     1.0000 0.97104  0.98586  0.78338  Biso   1.000  C
  C669     1.0000 0.97109  0.98586  0.78338  Biso   1.000  C
  H640     1.0000 0.05871  0.98502  0.78321  Biso   1.000  H
  H641     1.0000 0.03329  0.03691  0.81801  Biso   1.000  H
  H642     1.0000 0.03333  0.03691  0.81801  Biso   1.000  H
  H643     1.0000 0.03691  0.31801  0.53329  Biso   1.000  H
  C670     1.0000 0.98586  0.28338  0.47109  Biso   1.000  C
  H644     1.0000 0.98502  0.28321  0.55871  Biso   1.000  H
  C671     1.0000 0.08779  0.92980  0.35046  Biso   1.000  C
  H645     1.0000 0.15568  0.97660  0.37290  Biso   1.000  H
  C672     1.0000 0.08784  0.92980  0.35046  Biso   1.000  C
  H646     1.0000 0.15572  0.97660  0.37290  Biso   1.000  H
  C673     1.0000 0.07020  0.85046  0.41221  Biso   1.000  C
  H647     1.0000 0.12710  0.84432  0.47660  Biso   1.000  H
  N101     1.0000 0.96481  0.94966  0.73401  Biso   1.000  N
  H648     1.0000 0.96671  0.96309  0.81801  Biso   1.000  H
  H649     1.0000 0.96671  0.96313  0.81801  Biso   1.000  H
  H650     1.0000 0.94129  0.01498  0.78321  Biso   1.000  H
  H651     1.0000 0.94129  0.01503  0.78321  Biso   1.000  H
  H652     1.0000 0.94133  0.01498  0.78321  Biso   1.000  H
  H653     1.0000 0.94133  0.01503  0.78321  Biso   1.000  H
  N102     1.0000 0.94966  0.23401  0.46481  Biso   1.000  N
  H654     1.0000 0.96309  0.31801  0.46671  Biso   1.000  H
  H655     1.0000 0.96313  0.31801  0.46671  Biso   1.000  H
  H656     1.0000 0.01498  0.28321  0.44129  Biso   1.000  H
  H657     1.0000 0.01503  0.28321  0.44129  Biso   1.000  H
  C674     1.0000 0.07487  0.96267  0.29949  Biso   1.000  C
  C675     1.0000 0.05560  0.88274  0.36587  Biso   1.000  C
  C676     1.0000 0.07487  0.96271  0.29949  Biso   1.000  C
  C677     1.0000 0.07492  0.96267  0.29949  Biso   1.000  C
  C678     1.0000 0.07492  0.96271  0.29949  Biso   1.000  C
  C679     1.0000 0.03733  0.79949  0.42513  Biso   1.000  C
  C680     1.0000 0.03733  0.79954  0.42513  Biso   1.000  C
  C681     1.0000 0.92513  0.96267  0.70051  Biso   1.000  C
  C682     1.0000 0.92513  0.96271  0.70051  Biso   1.000  C
  C683     1.0000 0.96267  0.20051  0.42513  Biso   1.000  C
  C684     1.0000 0.96271  0.20051  0.42513  Biso   1.000  C
  N103     1.0000 0.03519  0.94966  0.26599  Biso   1.000  N
  H658     1.0000 0.09710  0.99491  0.29129  Biso   1.000  H
  H659     1.0000 0.02340  0.87290  0.34432  Biso   1.000  H
  N104     1.0000 0.05034  0.76599  0.46481  Biso   1.000  N
  H660     1.0000 0.00509  0.79129  0.40290  Biso   1.000  H
  H661     1.0000 0.00509  0.79133  0.40290  Biso   1.000  H
  H662     1.0000 0.90290  0.99491  0.70871  Biso   1.000  H
  C685     1.0000 0.91221  0.92980  0.64958  Biso   1.000  C
  H663     1.0000 0.99491  0.20871  0.40290  Biso   1.000  H
  C686     1.0000 0.92980  0.14954  0.41221  Biso   1.000  C
  C687     1.0000 0.92980  0.14958  0.41221  Biso   1.000  C
  C688     1.0000 0.02896  0.98586  0.21662  Biso   1.000  C
  C689     1.0000 0.01414  0.71662  0.47109  Biso   1.000  C
  C690     1.0000 0.01418  0.71662  0.47109  Biso   1.000  C
  C691     1.0000 0.94440  0.88274  0.63413  Biso   1.000  C
  C692     1.0000 0.86587  0.94440  0.61726  Biso   1.000  C
  C693     1.0000 0.94440  0.11726  0.36587  Biso   1.000  C
  C694     1.0000 0.88274  0.13413  0.44440  Biso   1.000  C
  C695     1.0000 0.88274  0.13418  0.44440  Biso   1.000  C
  C696     1.0000 0.97104  0.01414  0.21662  Biso   1.000  C
  C697     1.0000 0.97104  0.01418  0.21662  Biso   1.000  C
  C698     1.0000 0.97109  0.01414  0.21662  Biso   1.000  C
  C699     1.0000 0.97109  0.01418  0.21662  Biso   1.000  C
  H664     1.0000 0.03329  0.96309  0.18199  Biso   1.000  H
  H665     1.0000 0.03329  0.96313  0.18199  Biso   1.000  H
  H666     1.0000 0.03333  0.96309  0.18199  Biso   1.000  H
  H667     1.0000 0.03333  0.96313  0.18199  Biso   1.000  H
  H668     1.0000 0.05871  0.01498  0.21679  Biso   1.000  H
  H669     1.0000 0.05871  0.01503  0.21679  Biso   1.000  H
  C700     1.0000 0.98586  0.71662  0.52896  Biso   1.000  C
  H670     1.0000 0.98502  0.71679  0.44129  Biso   1.000  H
  H671     1.0000 0.03691  0.68199  0.46671  Biso   1.000  H
  H672     1.0000 0.03691  0.68203  0.46671  Biso   1.000  H
  C701     1.0000 0.92980  0.85046  0.58784  Biso   1.000  C
  H673     1.0000 0.97660  0.87290  0.65572  Biso   1.000  H
  C702     1.0000 0.85046  0.91221  0.57020  Biso   1.000  C
  H674     1.0000 0.84432  0.97660  0.62710  Biso   1.000  H
  C703     1.0000 0.91221  0.07020  0.35046  Biso   1.000  C
  H675     1.0000 0.97660  0.12710  0.34432  Biso   1.000  H
  C704     1.0000 0.85046  0.08779  0.42980  Biso   1.000  C
  H676     1.0000 0.87290  0.15568  0.47660  Biso   1.000  H
  C705     1.0000 0.85046  0.08784  0.42980  Biso   1.000  C
  H677     1.0000 0.87290  0.15572  0.47660  Biso   1.000  H
  H678     1.0000 0.94129  0.98502  0.21679  Biso   1.000  H
  H679     1.0000 0.94133  0.98502  0.21679  Biso   1.000  H
  N105     1.0000 0.96481  0.05034  0.26599  Biso   1.000  N
  H680     1.0000 0.96671  0.03691  0.18199  Biso   1.000  H
  N106     1.0000 0.94966  0.76599  0.53519  Biso   1.000  N
  H681     1.0000 0.96309  0.68199  0.53329  Biso   1.000  H
  H682     1.0000 0.96309  0.68203  0.53329  Biso   1.000  H
  H683     1.0000 0.96313  0.68199  0.53329  Biso   1.000  H
  H684     1.0000 0.96313  0.68203  0.53329  Biso   1.000  H
  H685     1.0000 0.01498  0.71679  0.55871  Biso   1.000  H
  H686     1.0000 0.01503  0.71679  0.55871  Biso   1.000  H
  C706     1.0000 0.96267  0.79949  0.57492  Biso   1.000  C
  C707     1.0000 0.96267  0.79954  0.57492  Biso   1.000  C
  C708     1.0000 0.96271  0.79949  0.57492  Biso   1.000  C
  C709     1.0000 0.96271  0.79954  0.57492  Biso   1.000  C
  C710     1.0000 0.88274  0.86587  0.55560  Biso   1.000  C
  C711     1.0000 0.79949  0.92513  0.53733  Biso   1.000  C
  C712     1.0000 0.79954  0.92513  0.53733  Biso   1.000  C
  C713     1.0000 0.92513  0.03733  0.29949  Biso   1.000  C
  C714     1.0000 0.86587  0.05560  0.38274  Biso   1.000  C
  C715     1.0000 0.79949  0.07487  0.46267  Biso   1.000  C
  C716     1.0000 0.79949  0.07492  0.46267  Biso   1.000  C
  C717     1.0000 0.79954  0.07487  0.46267  Biso   1.000  C
  C718     1.0000 0.79954  0.07492  0.46267  Biso   1.000  C
  H687     1.0000 0.99491  0.79129  0.59710  Biso   1.000  H
  H688     1.0000 0.99491  0.79133  0.59710  Biso   1.000  H
  H689     1.0000 0.87290  0.84432  0.52340  Biso   1.000  H
  N107     1.0000 0.76599  0.96481  0.55034  Biso   1.000  N
  H690     1.0000 0.79129  0.90290  0.50509  Biso   1.000  H
  H691     1.0000 0.79133  0.90290  0.50509  Biso   1.000  H
  H692     1.0000 0.90290  0.00509  0.29129  Biso   1.000  H
  H693     1.0000 0.84432  0.02340  0.37290  Biso   1.000  H
  N108     1.0000 0.76599  0.03519  0.44966  Biso   1.000  N
  H694     1.0000 0.79129  0.09710  0.49491  Biso   1.000  H
  H695     1.0000 0.79133  0.09710  0.49491  Biso   1.000  H
  C719     1.0000 0.71662  0.97104  0.51414  Biso   1.000  C
  C720     1.0000 0.71662  0.97109  0.51414  Biso   1.000  C
  C721     1.0000 0.71662  0.02896  0.48586  Biso   1.000  C
  H696     1.0000 0.68199  0.96671  0.53691  Biso   1.000  H
  H697     1.0000 0.71679  0.94129  0.48502  Biso   1.000  H
  H698     1.0000 0.71679  0.94133  0.48502  Biso   1.000  H
  H699     1.0000 0.68203  0.96671  0.53691  Biso   1.000  H
  H700     1.0000 0.68199  0.03329  0.46309  Biso   1.000  H
  H701     1.0000 0.71679  0.05871  0.51503  Biso   1.000  H
  H702     1.0000 0.68199  0.03333  0.46309  Biso   1.000  H
  H703     1.0000 0.68203  0.03329  0.46309  Biso   1.000  H
  H704     1.0000 0.68203  0.03333  0.46309  Biso   1.000  H
  C722     1.0000 0.20051  0.07492  0.53733  Biso   1.000  C
  N109     1.0000 0.23401  0.03519  0.55034  Biso   1.000  N
  H705     1.0000 0.20871  0.09710  0.50509  Biso   1.000  H
  C723     1.0000 0.14954  0.08779  0.57020  Biso   1.000  C
  C724     1.0000 0.14954  0.08784  0.57020  Biso   1.000  C
  C725     1.0000 0.14958  0.08779  0.57020  Biso   1.000  C
  C726     1.0000 0.14958  0.08784  0.57020  Biso   1.000  C
  C727     1.0000 0.28338  0.02896  0.51414  Biso   1.000  C
  C728     1.0000 0.20051  0.07487  0.53733  Biso   1.000  C
  C729     1.0000 0.13413  0.05560  0.61726  Biso   1.000  C
  C730     1.0000 0.11726  0.13413  0.55560  Biso   1.000  C
  C731     1.0000 0.11726  0.13418  0.55560  Biso   1.000  C
  C732     1.0000 0.13418  0.05560  0.61726  Biso   1.000  C
  H706     1.0000 0.28321  0.05871  0.48502  Biso   1.000  H
  C733     1.0000 0.28338  0.97104  0.48586  Biso   1.000  C
  C734     1.0000 0.28338  0.97109  0.48586  Biso   1.000  C
  H707     1.0000 0.31801  0.03329  0.53691  Biso   1.000  H
  H708     1.0000 0.31801  0.03333  0.53691  Biso   1.000  H
  H709     1.0000 0.15568  0.02340  0.62710  Biso   1.000  H
  C735     1.0000 0.08779  0.07020  0.64958  Biso   1.000  C
  H710     1.0000 0.15572  0.02340  0.62710  Biso   1.000  H
  C736     1.0000 0.08784  0.07020  0.64958  Biso   1.000  C
  C737     1.0000 0.07020  0.14954  0.58784  Biso   1.000  C
  H711     1.0000 0.12710  0.15568  0.52340  Biso   1.000  H
  C738     1.0000 0.07020  0.14958  0.58784  Biso   1.000  C
  H712     1.0000 0.12710  0.15572  0.52340  Biso   1.000  H
  N110     1.0000 0.23401  0.96481  0.44966  Biso   1.000  N
  H713     1.0000 0.31801  0.96671  0.46309  Biso   1.000  H
  H714     1.0000 0.28321  0.94129  0.51503  Biso   1.000  H
  H715     1.0000 0.28321  0.94133  0.51503  Biso   1.000  H
  C739     1.0000 0.05560  0.11726  0.63413  Biso   1.000  C
  C740     1.0000 0.07487  0.03733  0.70051  Biso   1.000  C
  C741     1.0000 0.07492  0.03733  0.70051  Biso   1.000  C
  C742     1.0000 0.03733  0.20051  0.57492  Biso   1.000  C
  C743     1.0000 0.20051  0.92513  0.46267  Biso   1.000  C
  H716     1.0000 0.02340  0.12710  0.65572  Biso   1.000  H
  N111     1.0000 0.03519  0.05034  0.73401  Biso   1.000  N
  H717     1.0000 0.09710  0.00509  0.70871  Biso   1.000  H
  N112     1.0000 0.05034  0.23401  0.53519  Biso   1.000  N
  H718     1.0000 0.00509  0.20871  0.59710  Biso   1.000  H
  H719     1.0000 0.20871  0.90290  0.49491  Biso   1.000  H
  C744     1.0000 0.14954  0.91221  0.42980  Biso   1.000  C
  C745     1.0000 0.14958  0.91221  0.42980  Biso   1.000  C
  C746     1.0000 0.02896  0.01414  0.78338  Biso   1.000  C
  C747     1.0000 0.02896  0.01418  0.78338  Biso   1.000  C
  C748     1.0000 0.01414  0.28338  0.52896  Biso   1.000  C
  C749     1.0000 0.01418  0.28338  0.52896  Biso   1.000  C
  C750     1.0000 0.13413  0.94440  0.38274  Biso   1.000  C
  C751     1.0000 0.11726  0.86587  0.44440  Biso   1.000  C
  C752     1.0000 0.13418  0.94440  0.38274  Biso   1.000  C
  C753     1.0000 0.97104  0.98586  0.78338  Biso   1.000  C
  C754     1.0000 0.97109  0.98586  0.78338  Biso   1.000  C
  H720     1.0000 0.05871  0.98502  0.78321  Biso   1.000  H
  H721     1.0000 0.03329  0.03691  0.81801  Biso   1.000  H
  H722     1.0000 0.03333  0.03691  0.81801  Biso   1.000  H
  H723     1.0000 0.03691  0.31801  0.53329  Biso   1.000  H
  C755     1.0000 0.98586  0.28338  0.47109  Biso   1.000  C
  H724     1.0000 0.98502  0.28321  0.55871  Biso   1.000  H
  C756     1.0000 0.08779  0.92980  0.35046  Biso   1.000  C
  H725     1.0000 0.15568  0.97660  0.37290  Biso   1.000  H
  C757     1.0000 0.08784  0.92980  0.35046  Biso   1.000  C
  H726     1.0000 0.15572  0.97660  0.37290  Biso   1.000  H
  C758     1.0000 0.07020  0.85046  0.41221  Biso   1.000  C
  H727     1.0000 0.12710  0.84432  0.47660  Biso   1.000  H
  N113     1.0000 0.96481  0.94966  0.73401  Biso   1.000  N
  H728     1.0000 0.96671  0.96309  0.81801  Biso   1.000  H
  H729     1.0000 0.96671  0.96313  0.81801  Biso   1.000  H
  H730     1.0000 0.94129  0.01498  0.78321  Biso   1.000  H
  H731     1.0000 0.94129  0.01503  0.78321  Biso   1.000  H
  H732     1.0000 0.94133  0.01498  0.78321  Biso   1.000  H
  H733     1.0000 0.94133  0.01503  0.78321  Biso   1.000  H
  N114     1.0000 0.94966  0.23401  0.46481  Biso   1.000  N
  H734     1.0000 0.96309  0.31801  0.46671  Biso   1.000  H
  H735     1.0000 0.96313  0.31801  0.46671  Biso   1.000  H
  H736     1.0000 0.01498  0.28321  0.44129  Biso   1.000  H
  H737     1.0000 0.01503  0.28321  0.44129  Biso   1.000  H
  C759     1.0000 0.07487  0.96267  0.29949  Biso   1.000  C
  C760     1.0000 0.05560  0.88274  0.36587  Biso   1.000  C
  C761     1.0000 0.07487  0.96271  0.29949  Biso   1.000  C
  C762     1.0000 0.07492  0.96267  0.29949  Biso   1.000  C
  C763     1.0000 0.07492  0.96271  0.29949  Biso   1.000  C
  C764     1.0000 0.03733  0.79949  0.42513  Biso   1.000  C
  C765     1.0000 0.03733  0.79954  0.42513  Biso   1.000  C
  C766     1.0000 0.92513  0.96267  0.70051  Biso   1.000  C
  C767     1.0000 0.92513  0.96271  0.70051  Biso   1.000  C
  C768     1.0000 0.96267  0.20051  0.42513  Biso   1.000  C
  C769     1.0000 0.96271  0.20051  0.42513  Biso   1.000  C
  N115     1.0000 0.03519  0.94966  0.26599  Biso   1.000  N
  H738     1.0000 0.09710  0.99491  0.29129  Biso   1.000  H
  H739     1.0000 0.02340  0.87290  0.34432  Biso   1.000  H
  N116     1.0000 0.05034  0.76599  0.46481  Biso   1.000  N
  H740     1.0000 0.00509  0.79129  0.40290  Biso   1.000  H
  H741     1.0000 0.00509  0.79133  0.40290  Biso   1.000  H
  H742     1.0000 0.90290  0.99491  0.70871  Biso   1.000  H
  C770     1.0000 0.91221  0.92980  0.64958  Biso   1.000  C
  H743     1.0000 0.99491  0.20871  0.40290  Biso   1.000  H
  C771     1.0000 0.92980  0.14954  0.41221  Biso   1.000  C
  C772     1.0000 0.92980  0.14958  0.41221  Biso   1.000  C
  C773     1.0000 0.02896  0.98586  0.21662  Biso   1.000  C
  C774     1.0000 0.01414  0.71662  0.47109  Biso   1.000  C
  C775     1.0000 0.01418  0.71662  0.47109  Biso   1.000  C
  C776     1.0000 0.94440  0.88274  0.63413  Biso   1.000  C
  C777     1.0000 0.86587  0.94440  0.61726  Biso   1.000  C
  C778     1.0000 0.94440  0.11726  0.36587  Biso   1.000  C
  C779     1.0000 0.88274  0.13413  0.44440  Biso   1.000  C
  C780     1.0000 0.88274  0.13418  0.44440  Biso   1.000  C
  C781     1.0000 0.97104  0.01414  0.21662  Biso   1.000  C
  C782     1.0000 0.97104  0.01418  0.21662  Biso   1.000  C
  C783     1.0000 0.97109  0.01414  0.21662  Biso   1.000  C
  C784     1.0000 0.97109  0.01418  0.21662  Biso   1.000  C
  H744     1.0000 0.03329  0.96309  0.18199  Biso   1.000  H
  H745     1.0000 0.03329  0.96313  0.18199  Biso   1.000  H
  H746     1.0000 0.03333  0.96309  0.18199  Biso   1.000  H
  H747     1.0000 0.03333  0.96313  0.18199  Biso   1.000  H
  H748     1.0000 0.05871  0.01498  0.21679  Biso   1.000  H
  H749     1.0000 0.05871  0.01503  0.21679  Biso   1.000  H
  C785     1.0000 0.98586  0.71662  0.52896  Biso   1.000  C
  H750     1.0000 0.98502  0.71679  0.44129  Biso   1.000  H
  H751     1.0000 0.03691  0.68199  0.46671  Biso   1.000  H
  H752     1.0000 0.03691  0.68203  0.46671  Biso   1.000  H
  C786     1.0000 0.92980  0.85046  0.58784  Biso   1.000  C
  H753     1.0000 0.97660  0.87290  0.65572  Biso   1.000  H
  C787     1.0000 0.85046  0.91221  0.57020  Biso   1.000  C
  H754     1.0000 0.84432  0.97660  0.62710  Biso   1.000  H
  C788     1.0000 0.91221  0.07020  0.35046  Biso   1.000  C
  H755     1.0000 0.97660  0.12710  0.34432  Biso   1.000  H
  C789     1.0000 0.85046  0.08779  0.42980  Biso   1.000  C
  H756     1.0000 0.87290  0.15568  0.47660  Biso   1.000  H
  C790     1.0000 0.85046  0.08784  0.42980  Biso   1.000  C
  H757     1.0000 0.87290  0.15572  0.47660  Biso   1.000  H
  H758     1.0000 0.94129  0.98502  0.21679  Biso   1.000  H
  H759     1.0000 0.94133  0.98502  0.21679  Biso   1.000  H
  N117     1.0000 0.96481  0.05034  0.26599  Biso   1.000  N
  H760     1.0000 0.96671  0.03691  0.18199  Biso   1.000  H
  N118     1.0000 0.94966  0.76599  0.53519  Biso   1.000  N
  H761     1.0000 0.96309  0.68199  0.53329  Biso   1.000  H
  H762     1.0000 0.96309  0.68203  0.53329  Biso   1.000  H
  H763     1.0000 0.96313  0.68199  0.53329  Biso   1.000  H
  H764     1.0000 0.96313  0.68203  0.53329  Biso   1.000  H
  H765     1.0000 0.01498  0.71679  0.55871  Biso   1.000  H
  H766     1.0000 0.01503  0.71679  0.55871  Biso   1.000  H
  C791     1.0000 0.96267  0.79949  0.57492  Biso   1.000  C
  C792     1.0000 0.96267  0.79954  0.57492  Biso   1.000  C
  C793     1.0000 0.96271  0.79949  0.57492  Biso   1.000  C
  C794     1.0000 0.96271  0.79954  0.57492  Biso   1.000  C
  C795     1.0000 0.88274  0.86587  0.55560  Biso   1.000  C
  C796     1.0000 0.79949  0.92513  0.53733  Biso   1.000  C
  C797     1.0000 0.79954  0.92513  0.53733  Biso   1.000  C
  C798     1.0000 0.92513  0.03733  0.29949  Biso   1.000  C
  C799     1.0000 0.86587  0.05560  0.38274  Biso   1.000  C
  C800     1.0000 0.79949  0.07487  0.46267  Biso   1.000  C
  C801     1.0000 0.79949  0.07492  0.46267  Biso   1.000  C
  C802     1.0000 0.79954  0.07487  0.46267  Biso   1.000  C
  C803     1.0000 0.79954  0.07492  0.46267  Biso   1.000  C
  H767     1.0000 0.99491  0.79129  0.59710  Biso   1.000  H
  H768     1.0000 0.99491  0.79133  0.59710  Biso   1.000  H
  H769     1.0000 0.87290  0.84432  0.52340  Biso   1.000  H
  N119     1.0000 0.76599  0.96481  0.55034  Biso   1.000  N
  H770     1.0000 0.79129  0.90290  0.50509  Biso   1.000  H
  H771     1.0000 0.79133  0.90290  0.50509  Biso   1.000  H
  H772     1.0000 0.90290  0.00509  0.29129  Biso   1.000  H
  H773     1.0000 0.84432  0.02340  0.37290  Biso   1.000  H
  N120     1.0000 0.76599  0.03519  0.44966  Biso   1.000  N
  H774     1.0000 0.79129  0.09710  0.49491  Biso   1.000  H
  H775     1.0000 0.79133  0.09710  0.49491  Biso   1.000  H
  C804     1.0000 0.71662  0.97104  0.51414  Biso   1.000  C
  C805     1.0000 0.71662  0.97109  0.51414  Biso   1.000  C
  C806     1.0000 0.71662  0.02896  0.48586  Biso   1.000  C
  H776     1.0000 0.68199  0.96671  0.53691  Biso   1.000  H
  H777     1.0000 0.71679  0.94129  0.48502  Biso   1.000  H
  H778     1.0000 0.71679  0.94133  0.48502  Biso   1.000  H
  H779     1.0000 0.68203  0.96671  0.53691  Biso   1.000  H
  H780     1.0000 0.68199  0.03329  0.46309  Biso   1.000  H
  H781     1.0000 0.71679  0.05871  0.51503  Biso   1.000  H
  H782     1.0000 0.68199  0.03333  0.46309  Biso   1.000  H
  H783     1.0000 0.68203  0.03329  0.46309  Biso   1.000  H
  H784     1.0000 0.68203  0.03333  0.46309  Biso   1.000  H
  C807     1.0000 0.07492  0.53733  0.20051  Biso   1.000  C
  N121     1.0000 0.03519  0.55034  0.23401  Biso   1.000  N
  H785     1.0000 0.09710  0.50509  0.20871  Biso   1.000  H
  C808     1.0000 0.08779  0.57020  0.14954  Biso   1.000  C
  C809     1.0000 0.08779  0.57020  0.14958  Biso   1.000  C
  C810     1.0000 0.08784  0.57020  0.14954  Biso   1.000  C
  C811     1.0000 0.08784  0.57020  0.14958  Biso   1.000  C
  C812     1.0000 0.02896  0.51414  0.28338  Biso   1.000  C
  C813     1.0000 0.07487  0.53733  0.20051  Biso   1.000  C
  C814     1.0000 0.05560  0.61726  0.13413  Biso   1.000  C
  C815     1.0000 0.13413  0.55560  0.11726  Biso   1.000  C
  C816     1.0000 0.05560  0.61726  0.13418  Biso   1.000  C
  C817     1.0000 0.13418  0.55560  0.11726  Biso   1.000  C
  H786     1.0000 0.03329  0.53691  0.31801  Biso   1.000  H
  H787     1.0000 0.05871  0.48502  0.28321  Biso   1.000  H
  H788     1.0000 0.03333  0.53691  0.31801  Biso   1.000  H
  C818     1.0000 0.97104  0.48586  0.28338  Biso   1.000  C
  C819     1.0000 0.97109  0.48586  0.28338  Biso   1.000  C
  H789     1.0000 0.02340  0.62710  0.15568  Biso   1.000  H
  C820     1.0000 0.07020  0.64958  0.08779  Biso   1.000  C
  H790     1.0000 0.02340  0.62710  0.15572  Biso   1.000  H
  C821     1.0000 0.07020  0.64958  0.08784  Biso   1.000  C
  C822     1.0000 0.14954  0.58784  0.07020  Biso   1.000  C
  H791     1.0000 0.15568  0.52340  0.12710  Biso   1.000  H
  C823     1.0000 0.14958  0.58784  0.07020  Biso   1.000  C
  H792     1.0000 0.15572  0.52340  0.12710  Biso   1.000  H
  N122     1.0000 0.96481  0.44966  0.23401  Biso   1.000  N
  H793     1.0000 0.96671  0.46309  0.31801  Biso   1.000  H
  H794     1.0000 0.94129  0.51503  0.28321  Biso   1.000  H
  H795     1.0000 0.94133  0.51503  0.28321  Biso   1.000  H
  C824     1.0000 0.03733  0.70051  0.07487  Biso   1.000  C
  C825     1.0000 0.11726  0.63413  0.05560  Biso   1.000  C
  C826     1.0000 0.03733  0.70051  0.07492  Biso   1.000  C
  C827     1.0000 0.20051  0.57492  0.03733  Biso   1.000  C
  C828     1.0000 0.92513  0.46267  0.20051  Biso   1.000  C
  N123     1.0000 0.05034  0.73401  0.03519  Biso   1.000  N
  H796     1.0000 0.00509  0.70871  0.09710  Biso   1.000  H
  H797     1.0000 0.12710  0.65572  0.02340  Biso   1.000  H
  N124     1.0000 0.23401  0.53519  0.05034  Biso   1.000  N
  H798     1.0000 0.20871  0.59710  0.00509  Biso   1.000  H
  H799     1.0000 0.90290  0.49491  0.20871  Biso   1.000  H
  C829     1.0000 0.91221  0.42980  0.14954  Biso   1.000  C
  C830     1.0000 0.91221  0.42980  0.14958  Biso   1.000  C
  C831     1.0000 0.01414  0.78338  0.02896  Biso   1.000  C
  C832     1.0000 0.01418  0.78338  0.02896  Biso   1.000  C
  C833     1.0000 0.28338  0.52896  0.01414  Biso   1.000  C
  C834     1.0000 0.28338  0.52896  0.01418  Biso   1.000  C
  C835     1.0000 0.94440  0.38274  0.13413  Biso   1.000  C
  C836     1.0000 0.86587  0.44440  0.11726  Biso   1.000  C
  C837     1.0000 0.94440  0.38274  0.13418  Biso   1.000  C
  H800     1.0000 0.03691  0.81801  0.03329  Biso   1.000  H
  H801     1.0000 0.03691  0.81801  0.03333  Biso   1.000  H
  C838     1.0000 0.98586  0.78338  0.97104  Biso   1.000  C
  C839     1.0000 0.98586  0.78338  0.97109  Biso   1.000  C
  H802     1.0000 0.98502  0.78321  0.05871  Biso   1.000  H
  H803     1.0000 0.31801  0.53329  0.03691  Biso   1.000  H
  C840     1.0000 0.28338  0.47109  0.98586  Biso   1.000  C
  H804     1.0000 0.28321  0.55871  0.98502  Biso   1.000  H
  C841     1.0000 0.92980  0.35046  0.08779  Biso   1.000  C
  H805     1.0000 0.97660  0.37290  0.15568  Biso   1.000  H
  C842     1.0000 0.92980  0.35046  0.08784  Biso   1.000  C
  H806     1.0000 0.97660  0.37290  0.15572  Biso   1.000  H
  C843     1.0000 0.85046  0.41221  0.07020  Biso   1.000  C
  H807     1.0000 0.84432  0.47660  0.12710  Biso   1.000  H
  N125     1.0000 0.94966  0.73401  0.96481  Biso   1.000  N
  H808     1.0000 0.96309  0.81801  0.96671  Biso   1.000  H
  H809     1.0000 0.96313  0.81801  0.96671  Biso   1.000  H
  H810     1.0000 0.01498  0.78321  0.94129  Biso   1.000  H
  H811     1.0000 0.01498  0.78321  0.94133  Biso   1.000  H
  H812     1.0000 0.01503  0.78321  0.94129  Biso   1.000  H
  H813     1.0000 0.01503  0.78321  0.94133  Biso   1.000  H
  H814     1.0000 0.28321  0.44129  0.01498  Biso   1.000  H
  H815     1.0000 0.28321  0.44129  0.01503  Biso   1.000  H
  N126     1.0000 0.23401  0.46481  0.94966  Biso   1.000  N
  H816     1.0000 0.31801  0.46671  0.96309  Biso   1.000  H
  H817     1.0000 0.31801  0.46671  0.96313  Biso   1.000  H
  C844     1.0000 0.96267  0.29949  0.07487  Biso   1.000  C
  C845     1.0000 0.88274  0.36587  0.05560  Biso   1.000  C
  C846     1.0000 0.96267  0.29949  0.07492  Biso   1.000  C
  C847     1.0000 0.96271  0.29949  0.07487  Biso   1.000  C
  C848     1.0000 0.96271  0.29949  0.07492  Biso   1.000  C
  C849     1.0000 0.79949  0.42513  0.03733  Biso   1.000  C
  C850     1.0000 0.79954  0.42513  0.03733  Biso   1.000  C
  C851     1.0000 0.96267  0.70051  0.92513  Biso   1.000  C
  C852     1.0000 0.96271  0.70051  0.92513  Biso   1.000  C
  C853     1.0000 0.20051  0.42513  0.96267  Biso   1.000  C
  C854     1.0000 0.20051  0.42513  0.96271  Biso   1.000  C
  N127     1.0000 0.94966  0.26599  0.03519  Biso   1.000  N
  H818     1.0000 0.99491  0.29129  0.09710  Biso   1.000  H
  H819     1.0000 0.87290  0.34432  0.02340  Biso   1.000  H
  N128     1.0000 0.76599  0.46481  0.05034  Biso   1.000  N
  H820     1.0000 0.79129  0.40290  0.00509  Biso   1.000  H
  H821     1.0000 0.79133  0.40290  0.00509  Biso   1.000  H
  H822     1.0000 0.99491  0.70871  0.90290  Biso   1.000  H
  C855     1.0000 0.92980  0.64958  0.91221  Biso   1.000  C
  H823     1.0000 0.20871  0.40290  0.99491  Biso   1.000  H
  C856     1.0000 0.14954  0.41221  0.92980  Biso   1.000  C
  C857     1.0000 0.14958  0.41221  0.92980  Biso   1.000  C
  C858     1.0000 0.98586  0.21662  0.02896  Biso   1.000  C
  C859     1.0000 0.71662  0.47109  0.01414  Biso   1.000  C
  C860     1.0000 0.71662  0.47109  0.01418  Biso   1.000  C
  C861     1.0000 0.88274  0.63413  0.94440  Biso   1.000  C
  C862     1.0000 0.94440  0.61726  0.86587  Biso   1.000  C
  C863     1.0000 0.11726  0.36587  0.94440  Biso   1.000  C
  C864     1.0000 0.13413  0.44440  0.88274  Biso   1.000  C
  C865     1.0000 0.13418  0.44440  0.88274  Biso   1.000  C
  H824     1.0000 0.01498  0.21679  0.05871  Biso   1.000  H
  H825     1.0000 0.01503  0.21679  0.05871  Biso   1.000  H
  H826     1.0000 0.96309  0.18199  0.03329  Biso   1.000  H
  H827     1.0000 0.96309  0.18199  0.03333  Biso   1.000  H
  H828     1.0000 0.96313  0.18199  0.03329  Biso   1.000  H
  H829     1.0000 0.96313  0.18199  0.03333  Biso   1.000  H
  C866     1.0000 0.01414  0.21662  0.97104  Biso   1.000  C
  C867     1.0000 0.01414  0.21662  0.97109  Biso   1.000  C
  C868     1.0000 0.01418  0.21662  0.97104  Biso   1.000  C
  C869     1.0000 0.01418  0.21662  0.97109  Biso   1.000  C
  C870     1.0000 0.71662  0.52896  0.98586  Biso   1.000  C
  H830     1.0000 0.71679  0.44129  0.98502  Biso   1.000  H
  H831     1.0000 0.68199  0.46671  0.03691  Biso   1.000  H
  H832     1.0000 0.68203  0.46671  0.03691  Biso   1.000  H
  C871     1.0000 0.85046  0.58784  0.92980  Biso   1.000  C
  H833     1.0000 0.87290  0.65572  0.97660  Biso   1.000  H
  C872     1.0000 0.91221  0.57020  0.85046  Biso   1.000  C
  H834     1.0000 0.97660  0.62710  0.84432  Biso   1.000  H
  C873     1.0000 0.07020  0.35046  0.91221  Biso   1.000  C
  H835     1.0000 0.12710  0.34432  0.97660  Biso   1.000  H
  C874     1.0000 0.08779  0.42980  0.85046  Biso   1.000  C
  H836     1.0000 0.15568  0.47660  0.87290  Biso   1.000  H
  C875     1.0000 0.08784  0.42980  0.85046  Biso   1.000  C
  H837     1.0000 0.15572  0.47660  0.87290  Biso   1.000  H
  H838     1.0000 0.98502  0.21679  0.94129  Biso   1.000  H
  H839     1.0000 0.98502  0.21679  0.94133  Biso   1.000  H
  N129     1.0000 0.05034  0.26599  0.96481  Biso   1.000  N
  H840     1.0000 0.03691  0.18199  0.96671  Biso   1.000  H
  N130     1.0000 0.76599  0.53519  0.94966  Biso   1.000  N
  H841     1.0000 0.68199  0.53329  0.96309  Biso   1.000  H
  H842     1.0000 0.68199  0.53329  0.96313  Biso   1.000  H
  H843     1.0000 0.68203  0.53329  0.96309  Biso   1.000  H
  H844     1.0000 0.68203  0.53329  0.96313  Biso   1.000  H
  H845     1.0000 0.71679  0.55871  0.01498  Biso   1.000  H
  H846     1.0000 0.71679  0.55871  0.01503  Biso   1.000  H
  C876     1.0000 0.79949  0.57492  0.96267  Biso   1.000  C
  C877     1.0000 0.86587  0.55560  0.88274  Biso   1.000  C
  C878     1.0000 0.79949  0.57492  0.96271  Biso   1.000  C
  C879     1.0000 0.79954  0.57492  0.96267  Biso   1.000  C
  C880     1.0000 0.79954  0.57492  0.96271  Biso   1.000  C
  C881     1.0000 0.92513  0.53733  0.79949  Biso   1.000  C
  C882     1.0000 0.92513  0.53733  0.79954  Biso   1.000  C
  C883     1.0000 0.03733  0.29949  0.92513  Biso   1.000  C
  C884     1.0000 0.05560  0.38274  0.86587  Biso   1.000  C
  C885     1.0000 0.07487  0.46267  0.79949  Biso   1.000  C
  C886     1.0000 0.07487  0.46267  0.79954  Biso   1.000  C
  C887     1.0000 0.07492  0.46267  0.79949  Biso   1.000  C
  C888     1.0000 0.07492  0.46267  0.79954  Biso   1.000  C
  H847     1.0000 0.79129  0.59710  0.99491  Biso   1.000  H
  H848     1.0000 0.79133  0.59710  0.99491  Biso   1.000  H
  H849     1.0000 0.84432  0.52340  0.87290  Biso   1.000  H
  N131     1.0000 0.96481  0.55034  0.76599  Biso   1.000  N
  H850     1.0000 0.90290  0.50509  0.79129  Biso   1.000  H
  H851     1.0000 0.90290  0.50509  0.79133  Biso   1.000  H
  H852     1.0000 0.00509  0.29129  0.90290  Biso   1.000  H
  H853     1.0000 0.02340  0.37290  0.84432  Biso   1.000  H
  N132     1.0000 0.03519  0.44966  0.76599  Biso   1.000  N
  H854     1.0000 0.09710  0.49491  0.79129  Biso   1.000  H
  H855     1.0000 0.09710  0.49491  0.79133  Biso   1.000  H
  C889     1.0000 0.97104  0.51414  0.71662  Biso   1.000  C
  C890     1.0000 0.97109  0.51414  0.71662  Biso   1.000  C
  C891     1.0000 0.02896  0.48586  0.71662  Biso   1.000  C
  H856     1.0000 0.96671  0.53691  0.68199  Biso   1.000  H
  H857     1.0000 0.94129  0.48502  0.71679  Biso   1.000  H
  H858     1.0000 0.96671  0.53691  0.68203  Biso   1.000  H
  H859     1.0000 0.94133  0.48502  0.71679  Biso   1.000  H
  H860     1.0000 0.03329  0.46309  0.68199  Biso   1.000  H
  H861     1.0000 0.05871  0.51503  0.71679  Biso   1.000  H
  H862     1.0000 0.03329  0.46309  0.68203  Biso   1.000  H
  H863     1.0000 0.03333  0.46309  0.68199  Biso   1.000  H
  H864     1.0000 0.03333  0.46309  0.68203  Biso   1.000  H
  C892     1.0000 0.07492  0.53733  0.20051  Biso   1.000  C
  N133     1.0000 0.03519  0.55034  0.23401  Biso   1.000  N
  H865     1.0000 0.09710  0.50509  0.20871  Biso   1.000  H
  C893     1.0000 0.08779  0.57020  0.14954  Biso   1.000  C
  C894     1.0000 0.08779  0.57020  0.14958  Biso   1.000  C
  C895     1.0000 0.08784  0.57020  0.14954  Biso   1.000  C
  C896     1.0000 0.08784  0.57020  0.14958  Biso   1.000  C
  C897     1.0000 0.02896  0.51414  0.28338  Biso   1.000  C
  C898     1.0000 0.07487  0.53733  0.20051  Biso   1.000  C
  C899     1.0000 0.13413  0.55560  0.11726  Biso   1.000  C
  C900     1.0000 0.05560  0.61726  0.13413  Biso   1.000  C
  C901     1.0000 0.05560  0.61726  0.13418  Biso   1.000  C
  C902     1.0000 0.13418  0.55560  0.11726  Biso   1.000  C
  H866     1.0000 0.03329  0.53691  0.31801  Biso   1.000  H
  H867     1.0000 0.05871  0.48502  0.28321  Biso   1.000  H
  H868     1.0000 0.03333  0.53691  0.31801  Biso   1.000  H
  C903     1.0000 0.97104  0.48586  0.28338  Biso   1.000  C
  C904     1.0000 0.97109  0.48586  0.28338  Biso   1.000  C
  C905     1.0000 0.14954  0.58784  0.07020  Biso   1.000  C
  H869     1.0000 0.15568  0.52340  0.12710  Biso   1.000  H
  C906     1.0000 0.14958  0.58784  0.07020  Biso   1.000  C
  H870     1.0000 0.15572  0.52340  0.12710  Biso   1.000  H
  H871     1.0000 0.02340  0.62710  0.15568  Biso   1.000  H
  C907     1.0000 0.07020  0.64958  0.08779  Biso   1.000  C
  H872     1.0000 0.02340  0.62710  0.15572  Biso   1.000  H
  C908     1.0000 0.07020  0.64958  0.08784  Biso   1.000  C
  N134     1.0000 0.96481  0.44966  0.23401  Biso   1.000  N
  H873     1.0000 0.96671  0.46309  0.31801  Biso   1.000  H
  H874     1.0000 0.94129  0.51503  0.28321  Biso   1.000  H
  H875     1.0000 0.94133  0.51503  0.28321  Biso   1.000  H
  C909     1.0000 0.20051  0.57492  0.03733  Biso   1.000  C
  C910     1.0000 0.11726  0.63413  0.05560  Biso   1.000  C
  C911     1.0000 0.03733  0.70051  0.07487  Biso   1.000  C
  C912     1.0000 0.03733  0.70051  0.07492  Biso   1.000  C
  C913     1.0000 0.92513  0.46267  0.20051  Biso   1.000  C
  N135     1.0000 0.23401  0.53519  0.05034  Biso   1.000  N
  H876     1.0000 0.20871  0.59710  0.00509  Biso   1.000  H
  H877     1.0000 0.12710  0.65572  0.02340  Biso   1.000  H
  N136     1.0000 0.05034  0.73401  0.03519  Biso   1.000  N
  H878     1.0000 0.00509  0.70871  0.09710  Biso   1.000  H
  H879     1.0000 0.90290  0.49491  0.20871  Biso   1.000  H
  C914     1.0000 0.91221  0.42980  0.14954  Biso   1.000  C
  C915     1.0000 0.91221  0.42980  0.14958  Biso   1.000  C
  C916     1.0000 0.28338  0.52896  0.01414  Biso   1.000  C
  C917     1.0000 0.28338  0.52896  0.01418  Biso   1.000  C
  C918     1.0000 0.01414  0.78338  0.02896  Biso   1.000  C
  C919     1.0000 0.01418  0.78338  0.02896  Biso   1.000  C
  C920     1.0000 0.94440  0.38274  0.13413  Biso   1.000  C
  C921     1.0000 0.86587  0.44440  0.11726  Biso   1.000  C
  C922     1.0000 0.94440  0.38274  0.13418  Biso   1.000  C
  H880     1.0000 0.31801  0.53329  0.03691  Biso   1.000  H
  C923     1.0000 0.28338  0.47109  0.98586  Biso   1.000  C
  H881     1.0000 0.28321  0.55871  0.98502  Biso   1.000  H
  H882     1.0000 0.03691  0.81801  0.03329  Biso   1.000  H
  H883     1.0000 0.03691  0.81801  0.03333  Biso   1.000  H
  C924     1.0000 0.98586  0.78338  0.97104  Biso   1.000  C
  C925     1.0000 0.98586  0.78338  0.97109  Biso   1.000  C
  H884     1.0000 0.98502  0.78321  0.05871  Biso   1.000  H
  C926     1.0000 0.92980  0.35046  0.08779  Biso   1.000  C
  H885     1.0000 0.97660  0.37290  0.15568  Biso   1.000  H
  C927     1.0000 0.92980  0.35046  0.08784  Biso   1.000  C
  H886     1.0000 0.97660  0.37290  0.15572  Biso   1.000  H
  C928     1.0000 0.85046  0.41221  0.07020  Biso   1.000  C
  H887     1.0000 0.84432  0.47660  0.12710  Biso   1.000  H
  H888     1.0000 0.28321  0.44129  0.01498  Biso   1.000  H
  H889     1.0000 0.28321  0.44129  0.01503  Biso   1.000  H
  N137     1.0000 0.23401  0.46481  0.94966  Biso   1.000  N
  H890     1.0000 0.31801  0.46671  0.96309  Biso   1.000  H
  H891     1.0000 0.31801  0.46671  0.96313  Biso   1.000  H
  N138     1.0000 0.94966  0.73401  0.96481  Biso   1.000  N
  H892     1.0000 0.96309  0.81801  0.96671  Biso   1.000  H
  H893     1.0000 0.96313  0.81801  0.96671  Biso   1.000  H
  H894     1.0000 0.01498  0.78321  0.94129  Biso   1.000  H
  H895     1.0000 0.01498  0.78321  0.94133  Biso   1.000  H
  H896     1.0000 0.01503  0.78321  0.94129  Biso   1.000  H
  H897     1.0000 0.01503  0.78321  0.94133  Biso   1.000  H
  C929     1.0000 0.96267  0.29949  0.07487  Biso   1.000  C
  C930     1.0000 0.88274  0.36587  0.05560  Biso   1.000  C
  C931     1.0000 0.96267  0.29949  0.07492  Biso   1.000  C
  C932     1.0000 0.96271  0.29949  0.07487  Biso   1.000  C
  C933     1.0000 0.96271  0.29949  0.07492  Biso   1.000  C
  C934     1.0000 0.79949  0.42513  0.03733  Biso   1.000  C
  C935     1.0000 0.79954  0.42513  0.03733  Biso   1.000  C
  C936     1.0000 0.20051  0.42513  0.96267  Biso   1.000  C
  C937     1.0000 0.20051  0.42513  0.96271  Biso   1.000  C
  C938     1.0000 0.96267  0.70051  0.92513  Biso   1.000  C
  C939     1.0000 0.96271  0.70051  0.92513  Biso   1.000  C
  N139     1.0000 0.94966  0.26599  0.03519  Biso   1.000  N
  H898     1.0000 0.99491  0.29129  0.09710  Biso   1.000  H
  H899     1.0000 0.87290  0.34432  0.02340  Biso   1.000  H
  N140     1.0000 0.76599  0.46481  0.05034  Biso   1.000  N
  H900     1.0000 0.79129  0.40290  0.00509  Biso   1.000  H
  H901     1.0000 0.79133  0.40290  0.00509  Biso   1.000  H
  H902     1.0000 0.20871  0.40290  0.99491  Biso   1.000  H
  C940     1.0000 0.14954  0.41221  0.92980  Biso   1.000  C
  C941     1.0000 0.14958  0.41221  0.92980  Biso   1.000  C
  H903     1.0000 0.99491  0.70871  0.90290  Biso   1.000  H
  C942     1.0000 0.92980  0.64958  0.91221  Biso   1.000  C
  C943     1.0000 0.98586  0.21662  0.02896  Biso   1.000  C
  C944     1.0000 0.71662  0.47109  0.01414  Biso   1.000  C
  C945     1.0000 0.71662  0.47109  0.01418  Biso   1.000  C
  C946     1.0000 0.11726  0.36587  0.94440  Biso   1.000  C
  C947     1.0000 0.13413  0.44440  0.88274  Biso   1.000  C
  C948     1.0000 0.13418  0.44440  0.88274  Biso   1.000  C
  C949     1.0000 0.88274  0.63413  0.94440  Biso   1.000  C
  C950     1.0000 0.94440  0.61726  0.86587  Biso   1.000  C
  H904     1.0000 0.01498  0.21679  0.05871  Biso   1.000  H
  H905     1.0000 0.01503  0.21679  0.05871  Biso   1.000  H
  H906     1.0000 0.96309  0.18199  0.03329  Biso   1.000  H
  H907     1.0000 0.96309  0.18199  0.03333  Biso   1.000  H
  H908     1.0000 0.96313  0.18199  0.03329  Biso   1.000  H
  H909     1.0000 0.96313  0.18199  0.03333  Biso   1.000  H
  C951     1.0000 0.01414  0.21662  0.97104  Biso   1.000  C
  C952     1.0000 0.01414  0.21662  0.97109  Biso   1.000  C
  C953     1.0000 0.01418  0.21662  0.97104  Biso   1.000  C
  C954     1.0000 0.01418  0.21662  0.97109  Biso   1.000  C
  C955     1.0000 0.71662  0.52896  0.98586  Biso   1.000  C
  H910     1.0000 0.71679  0.44129  0.98502  Biso   1.000  H
  H911     1.0000 0.68199  0.46671  0.03691  Biso   1.000  H
  H912     1.0000 0.68203  0.46671  0.03691  Biso   1.000  H
  C956     1.0000 0.07020  0.35046  0.91221  Biso   1.000  C
  H913     1.0000 0.12710  0.34432  0.97660  Biso   1.000  H
  C957     1.0000 0.08779  0.42980  0.85046  Biso   1.000  C
  H914     1.0000 0.15568  0.47660  0.87290  Biso   1.000  H
  C958     1.0000 0.08784  0.42980  0.85046  Biso   1.000  C
  H915     1.0000 0.15572  0.47660  0.87290  Biso   1.000  H
  C959     1.0000 0.85046  0.58784  0.92980  Biso   1.000  C
  H916     1.0000 0.87290  0.65572  0.97660  Biso   1.000  H
  C960     1.0000 0.91221  0.57020  0.85046  Biso   1.000  C
  H917     1.0000 0.97660  0.62710  0.84432  Biso   1.000  H
  H918     1.0000 0.98502  0.21679  0.94129  Biso   1.000  H
  H919     1.0000 0.98502  0.21679  0.94133  Biso   1.000  H
  N141     1.0000 0.05034  0.26599  0.96481  Biso   1.000  N
  H920     1.0000 0.03691  0.18199  0.96671  Biso   1.000  H
  N142     1.0000 0.76599  0.53519  0.94966  Biso   1.000  N
  H921     1.0000 0.68199  0.53329  0.96309  Biso   1.000  H
  H922     1.0000 0.68199  0.53329  0.96313  Biso   1.000  H
  H923     1.0000 0.68203  0.53329  0.96309  Biso   1.000  H
  H924     1.0000 0.68203  0.53329  0.96313  Biso   1.000  H
  H925     1.0000 0.71679  0.55871  0.01498  Biso   1.000  H
  H926     1.0000 0.71679  0.55871  0.01503  Biso   1.000  H
  C961     1.0000 0.03733  0.29949  0.92513  Biso   1.000  C
  C962     1.0000 0.05560  0.38274  0.86587  Biso   1.000  C
  C963     1.0000 0.07487  0.46267  0.79949  Biso   1.000  C
  C964     1.0000 0.07487  0.46267  0.79954  Biso   1.000  C
  C965     1.0000 0.07492  0.46267  0.79949  Biso   1.000  C
  C966     1.0000 0.07492  0.46267  0.79954  Biso   1.000  C
  C967     1.0000 0.79949  0.57492  0.96267  Biso   1.000  C
  C968     1.0000 0.86587  0.55560  0.88274  Biso   1.000  C
  C969     1.0000 0.79949  0.57492  0.96271  Biso   1.000  C
  C970     1.0000 0.79954  0.57492  0.96267  Biso   1.000  C
  C971     1.0000 0.79954  0.57492  0.96271  Biso   1.000  C
  C972     1.0000 0.92513  0.53733  0.79949  Biso   1.000  C
  C973     1.0000 0.92513  0.53733  0.79954  Biso   1.000  C
  H927     1.0000 0.00509  0.29129  0.90290  Biso   1.000  H
  H928     1.0000 0.02340  0.37290  0.84432  Biso   1.000  H
  N143     1.0000 0.03519  0.44966  0.76599  Biso   1.000  N
  H929     1.0000 0.09710  0.49491  0.79129  Biso   1.000  H
  H930     1.0000 0.09710  0.49491  0.79133  Biso   1.000  H
  H931     1.0000 0.79129  0.59710  0.99491  Biso   1.000  H
  H932     1.0000 0.79133  0.59710  0.99491  Biso   1.000  H
  H933     1.0000 0.84432  0.52340  0.87290  Biso   1.000  H
  N144     1.0000 0.96481  0.55034  0.76599  Biso   1.000  N
  H934     1.0000 0.90290  0.50509  0.79129  Biso   1.000  H
  H935     1.0000 0.90290  0.50509  0.79133  Biso   1.000  H
  C974     1.0000 0.02896  0.48586  0.71662  Biso   1.000  C
  C975     1.0000 0.97104  0.51414  0.71662  Biso   1.000  C
  C976     1.0000 0.97109  0.51414  0.71662  Biso   1.000  C
  H936     1.0000 0.03329  0.46309  0.68199  Biso   1.000  H
  H937     1.0000 0.05871  0.51503  0.71679  Biso   1.000  H
  H938     1.0000 0.03329  0.46309  0.68203  Biso   1.000  H
  H939     1.0000 0.03333  0.46309  0.68199  Biso   1.000  H
  H940     1.0000 0.03333  0.46309  0.68203  Biso   1.000  H
  H941     1.0000 0.96671  0.53691  0.68199  Biso   1.000  H
  H942     1.0000 0.94129  0.48502  0.71679  Biso   1.000  H
  H943     1.0000 0.96671  0.53691  0.68203  Biso   1.000  H
  H944     1.0000 0.94133  0.48502  0.71679  Biso   1.000  H
  C977     1.0000 0.07492  0.53733  0.20051  Biso   1.000  C
  C978     1.0000 0.08779  0.57020  0.14954  Biso   1.000  C
  C979     1.0000 0.08779  0.57020  0.14958  Biso   1.000  C
  C980     1.0000 0.08784  0.57020  0.14954  Biso   1.000  C
  C981     1.0000 0.08784  0.57020  0.14958  Biso   1.000  C
  N145     1.0000 0.03519  0.55034  0.23401  Biso   1.000  N
  H945     1.0000 0.09710  0.50509  0.20871  Biso   1.000  H
  C982     1.0000 0.13413  0.55560  0.11726  Biso   1.000  C
  C983     1.0000 0.13418  0.55560  0.11726  Biso   1.000  C
  C984     1.0000 0.05560  0.61726  0.13413  Biso   1.000  C
  C985     1.0000 0.05560  0.61726  0.13418  Biso   1.000  C
  C986     1.0000 0.07487  0.53733  0.20051  Biso   1.000  C
  C987     1.0000 0.02896  0.51414  0.28338  Biso   1.000  C
  C988     1.0000 0.14954  0.58784  0.07020  Biso   1.000  C
  C989     1.0000 0.14958  0.58784  0.07020  Biso   1.000  C
  H946     1.0000 0.15568  0.52340  0.12710  Biso   1.000  H
  H947     1.0000 0.15572  0.52340  0.12710  Biso   1.000  H
  C990     1.0000 0.07020  0.64958  0.08779  Biso   1.000  C
  C991     1.0000 0.07020  0.64958  0.08784  Biso   1.000  C
  H948     1.0000 0.02340  0.62710  0.15568  Biso   1.000  H
  H949     1.0000 0.02340  0.62710  0.15572  Biso   1.000  H
  H950     1.0000 0.05871  0.48502  0.28321  Biso   1.000  H
  C992     1.0000 0.97104  0.48586  0.28338  Biso   1.000  C
  C993     1.0000 0.97109  0.48586  0.28338  Biso   1.000  C
  H951     1.0000 0.03329  0.53691  0.31801  Biso   1.000  H
  H952     1.0000 0.03333  0.53691  0.31801  Biso   1.000  H
  C994     1.0000 0.20051  0.57492  0.03733  Biso   1.000  C
  C995     1.0000 0.11726  0.63413  0.05560  Biso   1.000  C
  C996     1.0000 0.03733  0.70051  0.07487  Biso   1.000  C
  C997     1.0000 0.03733  0.70051  0.07492  Biso   1.000  C
  N146     1.0000 0.96481  0.44966  0.23401  Biso   1.000  N
  H953     1.0000 0.96671  0.46309  0.31801  Biso   1.000  H
  H954     1.0000 0.94129  0.51503  0.28321  Biso   1.000  H
  H955     1.0000 0.94133  0.51503  0.28321  Biso   1.000  H
  N147     1.0000 0.23401  0.53519  0.05034  Biso   1.000  N
  H956     1.0000 0.20871  0.59710  0.00509  Biso   1.000  H
  H957     1.0000 0.12710  0.65572  0.02340  Biso   1.000  H
  N148     1.0000 0.05034  0.73401  0.03519  Biso   1.000  N
  H958     1.0000 0.00509  0.70871  0.09710  Biso   1.000  H
  C998     1.0000 0.92513  0.46267  0.20051  Biso   1.000  C
  C999     1.0000 0.28338  0.52896  0.01414  Biso   1.000  C
  C1000    1.0000 0.28338  0.52896  0.01418  Biso   1.000  C
  C1001    1.0000 0.01414  0.78338  0.02896  Biso   1.000  C
  C1002    1.0000 0.01418  0.78338  0.02896  Biso   1.000  C
  H959     1.0000 0.90290  0.49491  0.20871  Biso   1.000  H
  C1003    1.0000 0.91221  0.42980  0.14954  Biso   1.000  C
  C1004    1.0000 0.91221  0.42980  0.14958  Biso   1.000  C
  H960     1.0000 0.31801  0.53329  0.03691  Biso   1.000  H
  C1005    1.0000 0.28338  0.47109  0.98586  Biso   1.000  C
  H961     1.0000 0.28321  0.55871  0.98502  Biso   1.000  H
  C1006    1.0000 0.98586  0.78338  0.97104  Biso   1.000  C
  C1007    1.0000 0.98586  0.78338  0.97109  Biso   1.000  C
  H962     1.0000 0.98502  0.78321  0.05871  Biso   1.000  H
  H963     1.0000 0.03691  0.81801  0.03329  Biso   1.000  H
  H964     1.0000 0.03691  0.81801  0.03333  Biso   1.000  H
  C1008    1.0000 0.94440  0.38274  0.13413  Biso   1.000  C
  C1009    1.0000 0.86587  0.44440  0.11726  Biso   1.000  C
  C1010    1.0000 0.94440  0.38274  0.13418  Biso   1.000  C
  N149     1.0000 0.23401  0.46481  0.94966  Biso   1.000  N
  H965     1.0000 0.31801  0.46671  0.96309  Biso   1.000  H
  H966     1.0000 0.31801  0.46671  0.96313  Biso   1.000  H
  H967     1.0000 0.28321  0.44129  0.01498  Biso   1.000  H
  H968     1.0000 0.28321  0.44129  0.01503  Biso   1.000  H
  N150     1.0000 0.94966  0.73401  0.96481  Biso   1.000  N
  H969     1.0000 0.96309  0.81801  0.96671  Biso   1.000  H
  H970     1.0000 0.96313  0.81801  0.96671  Biso   1.000  H
  H971     1.0000 0.01498  0.78321  0.94129  Biso   1.000  H
  H972     1.0000 0.01498  0.78321  0.94133  Biso   1.000  H
  H973     1.0000 0.01503  0.78321  0.94129  Biso   1.000  H
  H974     1.0000 0.01503  0.78321  0.94133  Biso   1.000  H
  C1011    1.0000 0.92980  0.35046  0.08779  Biso   1.000  C
  H975     1.0000 0.97660  0.37290  0.15568  Biso   1.000  H
  C1012    1.0000 0.92980  0.35046  0.08784  Biso   1.000  C
  H976     1.0000 0.97660  0.37290  0.15572  Biso   1.000  H
  C1013    1.0000 0.85046  0.41221  0.07020  Biso   1.000  C
  H977     1.0000 0.84432  0.47660  0.12710  Biso   1.000  H
  C1014    1.0000 0.20051  0.42513  0.96267  Biso   1.000  C
  C1015    1.0000 0.20051  0.42513  0.96271  Biso   1.000  C
  C1016    1.0000 0.96267  0.70051  0.92513  Biso   1.000  C
  C1017    1.0000 0.96271  0.70051  0.92513  Biso   1.000  C
  C1018    1.0000 0.96267  0.29949  0.07487  Biso   1.000  C
  C1019    1.0000 0.96267  0.29949  0.07492  Biso   1.000  C
  C1020    1.0000 0.96271  0.29949  0.07487  Biso   1.000  C
  C1021    1.0000 0.96271  0.29949  0.07492  Biso   1.000  C
  C1022    1.0000 0.88274  0.36587  0.05560  Biso   1.000  C
  C1023    1.0000 0.79949  0.42513  0.03733  Biso   1.000  C
  C1024    1.0000 0.79954  0.42513  0.03733  Biso   1.000  C
  H978     1.0000 0.20871  0.40290  0.99491  Biso   1.000  H
  C1025    1.0000 0.14954  0.41221  0.92980  Biso   1.000  C
  C1026    1.0000 0.14958  0.41221  0.92980  Biso   1.000  C
  H979     1.0000 0.99491  0.70871  0.90290  Biso   1.000  H
  C1027    1.0000 0.92980  0.64958  0.91221  Biso   1.000  C
  N151     1.0000 0.94966  0.26599  0.03519  Biso   1.000  N
  H980     1.0000 0.99491  0.29129  0.09710  Biso   1.000  H
  H981     1.0000 0.87290  0.34432  0.02340  Biso   1.000  H
  N152     1.0000 0.76599  0.46481  0.05034  Biso   1.000  N
  H982     1.0000 0.79129  0.40290  0.00509  Biso   1.000  H
  H983     1.0000 0.79133  0.40290  0.00509  Biso   1.000  H
  C1028    1.0000 0.11726  0.36587  0.94440  Biso   1.000  C
  C1029    1.0000 0.13413  0.44440  0.88274  Biso   1.000  C
  C1030    1.0000 0.13418  0.44440  0.88274  Biso   1.000  C
  C1031    1.0000 0.88274  0.63413  0.94440  Biso   1.000  C
  C1032    1.0000 0.94440  0.61726  0.86587  Biso   1.000  C
  C1033    1.0000 0.98586  0.21662  0.02896  Biso   1.000  C
  C1034    1.0000 0.71662  0.47109  0.01414  Biso   1.000  C
  C1035    1.0000 0.71662  0.47109  0.01418  Biso   1.000  C
  C1036    1.0000 0.07020  0.35046  0.91221  Biso   1.000  C
  H984     1.0000 0.12710  0.34432  0.97660  Biso   1.000  H
  C1037    1.0000 0.08779  0.42980  0.85046  Biso   1.000  C
  H985     1.0000 0.15568  0.47660  0.87290  Biso   1.000  H
  C1038    1.0000 0.08784  0.42980  0.85046  Biso   1.000  C
  H986     1.0000 0.15572  0.47660  0.87290  Biso   1.000  H
  C1039    1.0000 0.85046  0.58784  0.92980  Biso   1.000  C
  H987     1.0000 0.87290  0.65572  0.97660  Biso   1.000  H
  C1040    1.0000 0.91221  0.57020  0.85046  Biso   1.000  C
  H988     1.0000 0.97660  0.62710  0.84432  Biso   1.000  H
  C1041    1.0000 0.01414  0.21662  0.97104  Biso   1.000  C
  C1042    1.0000 0.01414  0.21662  0.97109  Biso   1.000  C
  C1043    1.0000 0.01418  0.21662  0.97104  Biso   1.000  C
  C1044    1.0000 0.01418  0.21662  0.97109  Biso   1.000  C
  H989     1.0000 0.96309  0.18199  0.03329  Biso   1.000  H
  H990     1.0000 0.96309  0.18199  0.03333  Biso   1.000  H
  H991     1.0000 0.96313  0.18199  0.03329  Biso   1.000  H
  H992     1.0000 0.96313  0.18199  0.03333  Biso   1.000  H
  H993     1.0000 0.01498  0.21679  0.05871  Biso   1.000  H
  H994     1.0000 0.01503  0.21679  0.05871  Biso   1.000  H
  C1045    1.0000 0.71662  0.52896  0.98586  Biso   1.000  C
  H995     1.0000 0.71679  0.44129  0.98502  Biso   1.000  H
  H996     1.0000 0.68199  0.46671  0.03691  Biso   1.000  H
  H997     1.0000 0.68203  0.46671  0.03691  Biso   1.000  H
  C1046    1.0000 0.03733  0.29949  0.92513  Biso   1.000  C
  C1047    1.0000 0.05560  0.38274  0.86587  Biso   1.000  C
  C1048    1.0000 0.07487  0.46267  0.79949  Biso   1.000  C
  C1049    1.0000 0.07487  0.46267  0.79954  Biso   1.000  C
  C1050    1.0000 0.07492  0.46267  0.79949  Biso   1.000  C
  C1051    1.0000 0.07492  0.46267  0.79954  Biso   1.000  C
  C1052    1.0000 0.79949  0.57492  0.96267  Biso   1.000  C
  C1053    1.0000 0.86587  0.55560  0.88274  Biso   1.000  C
  C1054    1.0000 0.79949  0.57492  0.96271  Biso   1.000  C
  C1055    1.0000 0.79954  0.57492  0.96267  Biso   1.000  C
  C1056    1.0000 0.79954  0.57492  0.96271  Biso   1.000  C
  C1057    1.0000 0.92513  0.53733  0.79949  Biso   1.000  C
  C1058    1.0000 0.92513  0.53733  0.79954  Biso   1.000  C
  N153     1.0000 0.05034  0.26599  0.96481  Biso   1.000  N
  H998     1.0000 0.98502  0.21679  0.94129  Biso   1.000  H
  H999     1.0000 0.98502  0.21679  0.94133  Biso   1.000  H
  H1000    1.0000 0.03691  0.18199  0.96671  Biso   1.000  H
  N154     1.0000 0.76599  0.53519  0.94966  Biso   1.000  N
  H1001    1.0000 0.68199  0.53329  0.96309  Biso   1.000  H
  H1002    1.0000 0.68199  0.53329  0.96313  Biso   1.000  H
  H1003    1.0000 0.68203  0.53329  0.96309  Biso   1.000  H
  H1004    1.0000 0.68203  0.53329  0.96313  Biso   1.000  H
  H1005    1.0000 0.71679  0.55871  0.01498  Biso   1.000  H
  H1006    1.0000 0.71679  0.55871  0.01503  Biso   1.000  H
  H1007    1.0000 0.00509  0.29129  0.90290  Biso   1.000  H
  H1008    1.0000 0.02340  0.37290  0.84432  Biso   1.000  H
  N155     1.0000 0.03519  0.44966  0.76599  Biso   1.000  N
  H1009    1.0000 0.09710  0.49491  0.79129  Biso   1.000  H
  H1010    1.0000 0.09710  0.49491  0.79133  Biso   1.000  H
  H1011    1.0000 0.79129  0.59710  0.99491  Biso   1.000  H
  H1012    1.0000 0.79133  0.59710  0.99491  Biso   1.000  H
  H1013    1.0000 0.84432  0.52340  0.87290  Biso   1.000  H
  N156     1.0000 0.96481  0.55034  0.76599  Biso   1.000  N
  H1014    1.0000 0.90290  0.50509  0.79129  Biso   1.000  H
  H1015    1.0000 0.90290  0.50509  0.79133  Biso   1.000  H
  C1059    1.0000 0.02896  0.48586  0.71662  Biso   1.000  C
  C1060    1.0000 0.97104  0.51414  0.71662  Biso   1.000  C
  C1061    1.0000 0.97109  0.51414  0.71662  Biso   1.000  C
  H1016    1.0000 0.03329  0.46309  0.68199  Biso   1.000  H
  H1017    1.0000 0.05871  0.51503  0.71679  Biso   1.000  H
  H1018    1.0000 0.03329  0.46309  0.68203  Biso   1.000  H
  H1019    1.0000 0.03333  0.46309  0.68199  Biso   1.000  H
  H1020    1.0000 0.03333  0.46309  0.68203  Biso   1.000  H
  H1021    1.0000 0.96671  0.53691  0.68199  Biso   1.000  H
  H1022    1.0000 0.94129  0.48502  0.71679  Biso   1.000  H
  H1023    1.0000 0.96671  0.53691  0.68203  Biso   1.000  H
  H1024    1.0000 0.94133  0.48502  0.71679  Biso   1.000  H
  C1062    1.0000 0.07492  0.53733  0.20051  Biso   1.000  C
  C1063    1.0000 0.08779  0.57020  0.14954  Biso   1.000  C
  C1064    1.0000 0.08779  0.57020  0.14958  Biso   1.000  C
  C1065    1.0000 0.08784  0.57020  0.14954  Biso   1.000  C
  C1066    1.0000 0.08784  0.57020  0.14958  Biso   1.000  C
  N157     1.0000 0.03519  0.55034  0.23401  Biso   1.000  N
  H1025    1.0000 0.09710  0.50509  0.20871  Biso   1.000  H
  C1067    1.0000 0.13413  0.55560  0.11726  Biso   1.000  C
  C1068    1.0000 0.13418  0.55560  0.11726  Biso   1.000  C
  C1069    1.0000 0.05560  0.61726  0.13413  Biso   1.000  C
  C1070    1.0000 0.05560  0.61726  0.13418  Biso   1.000  C
  C1071    1.0000 0.07487  0.53733  0.20051  Biso   1.000  C
  C1072    1.0000 0.02896  0.51414  0.28338  Biso   1.000  C
  C1073    1.0000 0.14954  0.58784  0.07020  Biso   1.000  C
  C1074    1.0000 0.14958  0.58784  0.07020  Biso   1.000  C
  H1026    1.0000 0.15568  0.52340  0.12710  Biso   1.000  H
  H1027    1.0000 0.15572  0.52340  0.12710  Biso   1.000  H
  C1075    1.0000 0.07020  0.64958  0.08779  Biso   1.000  C
  C1076    1.0000 0.07020  0.64958  0.08784  Biso   1.000  C
  H1028    1.0000 0.02340  0.62710  0.15568  Biso   1.000  H
  H1029    1.0000 0.02340  0.62710  0.15572  Biso   1.000  H
  H1030    1.0000 0.05871  0.48502  0.28321  Biso   1.000  H
  C1077    1.0000 0.97104  0.48586  0.28338  Biso   1.000  C
  C1078    1.0000 0.97109  0.48586  0.28338  Biso   1.000  C
  H1031    1.0000 0.03329  0.53691  0.31801  Biso   1.000  H
  H1032    1.0000 0.03333  0.53691  0.31801  Biso   1.000  H
  C1079    1.0000 0.20051  0.57492  0.03733  Biso   1.000  C
  C1080    1.0000 0.11726  0.63413  0.05560  Biso   1.000  C
  C1081    1.0000 0.03733  0.70051  0.07487  Biso   1.000  C
  C1082    1.0000 0.03733  0.70051  0.07492  Biso   1.000  C
  N158     1.0000 0.96481  0.44966  0.23401  Biso   1.000  N
  H1033    1.0000 0.96671  0.46309  0.31801  Biso   1.000  H
  H1034    1.0000 0.94129  0.51503  0.28321  Biso   1.000  H
  H1035    1.0000 0.94133  0.51503  0.28321  Biso   1.000  H
  N159     1.0000 0.23401  0.53519  0.05034  Biso   1.000  N
  H1036    1.0000 0.20871  0.59710  0.00509  Biso   1.000  H
  H1037    1.0000 0.12710  0.65572  0.02340  Biso   1.000  H
  N160     1.0000 0.05034  0.73401  0.03519  Biso   1.000  N
  H1038    1.0000 0.00509  0.70871  0.09710  Biso   1.000  H
  C1083    1.0000 0.92513  0.46267  0.20051  Biso   1.000  C
  C1084    1.0000 0.28338  0.52896  0.01414  Biso   1.000  C
  C1085    1.0000 0.28338  0.52896  0.01418  Biso   1.000  C
  C1086    1.0000 0.01414  0.78338  0.02896  Biso   1.000  C
  C1087    1.0000 0.01418  0.78338  0.02896  Biso   1.000  C
  H1039    1.0000 0.90290  0.49491  0.20871  Biso   1.000  H
  C1088    1.0000 0.91221  0.42980  0.14954  Biso   1.000  C
  C1089    1.0000 0.91221  0.42980  0.14958  Biso   1.000  C
  H1040    1.0000 0.31801  0.53329  0.03691  Biso   1.000  H
  C1090    1.0000 0.28338  0.47109  0.98586  Biso   1.000  C
  H1041    1.0000 0.28321  0.55871  0.98502  Biso   1.000  H
  C1091    1.0000 0.98586  0.78338  0.97104  Biso   1.000  C
  C1092    1.0000 0.98586  0.78338  0.97109  Biso   1.000  C
  H1042    1.0000 0.98502  0.78321  0.05871  Biso   1.000  H
  H1043    1.0000 0.03691  0.81801  0.03329  Biso   1.000  H
  H1044    1.0000 0.03691  0.81801  0.03333  Biso   1.000  H
  C1093    1.0000 0.94440  0.38274  0.13413  Biso   1.000  C
  C1094    1.0000 0.86587  0.44440  0.11726  Biso   1.000  C
  C1095    1.0000 0.94440  0.38274  0.13418  Biso   1.000  C
  N161     1.0000 0.23401  0.46481  0.94966  Biso   1.000  N
  H1045    1.0000 0.31801  0.46671  0.96309  Biso   1.000  H
  H1046    1.0000 0.31801  0.46671  0.96313  Biso   1.000  H
  H1047    1.0000 0.28321  0.44129  0.01498  Biso   1.000  H
  H1048    1.0000 0.28321  0.44129  0.01503  Biso   1.000  H
  N162     1.0000 0.94966  0.73401  0.96481  Biso   1.000  N
  H1049    1.0000 0.96309  0.81801  0.96671  Biso   1.000  H
  H1050    1.0000 0.96313  0.81801  0.96671  Biso   1.000  H
  H1051    1.0000 0.01498  0.78321  0.94129  Biso   1.000  H
  H1052    1.0000 0.01498  0.78321  0.94133  Biso   1.000  H
  H1053    1.0000 0.01503  0.78321  0.94129  Biso   1.000  H
  H1054    1.0000 0.01503  0.78321  0.94133  Biso   1.000  H
  C1096    1.0000 0.92980  0.35046  0.08779  Biso   1.000  C
  H1055    1.0000 0.97660  0.37290  0.15568  Biso   1.000  H
  C1097    1.0000 0.92980  0.35046  0.08784  Biso   1.000  C
  H1056    1.0000 0.97660  0.37290  0.15572  Biso   1.000  H
  C1098    1.0000 0.85046  0.41221  0.07020  Biso   1.000  C
  H1057    1.0000 0.84432  0.47660  0.12710  Biso   1.000  H
  C1099    1.0000 0.20051  0.42513  0.96267  Biso   1.000  C
  C1100    1.0000 0.20051  0.42513  0.96271  Biso   1.000  C
  C1101    1.0000 0.96267  0.70051  0.92513  Biso   1.000  C
  C1102    1.0000 0.96271  0.70051  0.92513  Biso   1.000  C
  C1103    1.0000 0.96267  0.29949  0.07487  Biso   1.000  C
  C1104    1.0000 0.96267  0.29949  0.07492  Biso   1.000  C
  C1105    1.0000 0.96271  0.29949  0.07487  Biso   1.000  C
  C1106    1.0000 0.96271  0.29949  0.07492  Biso   1.000  C
  C1107    1.0000 0.88274  0.36587  0.05560  Biso   1.000  C
  C1108    1.0000 0.79949  0.42513  0.03733  Biso   1.000  C
  C1109    1.0000 0.79954  0.42513  0.03733  Biso   1.000  C
  H1058    1.0000 0.20871  0.40290  0.99491  Biso   1.000  H
  C1110    1.0000 0.14954  0.41221  0.92980  Biso   1.000  C
  C1111    1.0000 0.14958  0.41221  0.92980  Biso   1.000  C
  H1059    1.0000 0.99491  0.70871  0.90290  Biso   1.000  H
  C1112    1.0000 0.92980  0.64958  0.91221  Biso   1.000  C
  N163     1.0000 0.94966  0.26599  0.03519  Biso   1.000  N
  H1060    1.0000 0.99491  0.29129  0.09710  Biso   1.000  H
  H1061    1.0000 0.87290  0.34432  0.02340  Biso   1.000  H
  N164     1.0000 0.76599  0.46481  0.05034  Biso   1.000  N
  H1062    1.0000 0.79129  0.40290  0.00509  Biso   1.000  H
  H1063    1.0000 0.79133  0.40290  0.00509  Biso   1.000  H
  C1113    1.0000 0.11726  0.36587  0.94440  Biso   1.000  C
  C1114    1.0000 0.13413  0.44440  0.88274  Biso   1.000  C
  C1115    1.0000 0.13418  0.44440  0.88274  Biso   1.000  C
  C1116    1.0000 0.88274  0.63413  0.94440  Biso   1.000  C
  C1117    1.0000 0.94440  0.61726  0.86587  Biso   1.000  C
  C1118    1.0000 0.98586  0.21662  0.02896  Biso   1.000  C
  C1119    1.0000 0.71662  0.47109  0.01414  Biso   1.000  C
  C1120    1.0000 0.71662  0.47109  0.01418  Biso   1.000  C
  C1121    1.0000 0.07020  0.35046  0.91221  Biso   1.000  C
  H1064    1.0000 0.12710  0.34432  0.97660  Biso   1.000  H
  C1122    1.0000 0.08779  0.42980  0.85046  Biso   1.000  C
  H1065    1.0000 0.15568  0.47660  0.87290  Biso   1.000  H
  C1123    1.0000 0.08784  0.42980  0.85046  Biso   1.000  C
  H1066    1.0000 0.15572  0.47660  0.87290  Biso   1.000  H
  C1124    1.0000 0.85046  0.58784  0.92980  Biso   1.000  C
  H1067    1.0000 0.87290  0.65572  0.97660  Biso   1.000  H
  C1125    1.0000 0.91221  0.57020  0.85046  Biso   1.000  C
  H1068    1.0000 0.97660  0.62710  0.84432  Biso   1.000  H
  C1126    1.0000 0.01414  0.21662  0.97104  Biso   1.000  C
  C1127    1.0000 0.01414  0.21662  0.97109  Biso   1.000  C
  C1128    1.0000 0.01418  0.21662  0.97104  Biso   1.000  C
  C1129    1.0000 0.01418  0.21662  0.97109  Biso   1.000  C
  H1069    1.0000 0.96309  0.18199  0.03329  Biso   1.000  H
  H1070    1.0000 0.96309  0.18199  0.03333  Biso   1.000  H
  H1071    1.0000 0.96313  0.18199  0.03329  Biso   1.000  H
  H1072    1.0000 0.96313  0.18199  0.03333  Biso   1.000  H
  H1073    1.0000 0.01498  0.21679  0.05871  Biso   1.000  H
  H1074    1.0000 0.01503  0.21679  0.05871  Biso   1.000  H
  C1130    1.0000 0.71662  0.52896  0.98586  Biso   1.000  C
  H1075    1.0000 0.71679  0.44129  0.98502  Biso   1.000  H
  H1076    1.0000 0.68199  0.46671  0.03691  Biso   1.000  H
  H1077    1.0000 0.68203  0.46671  0.03691  Biso   1.000  H
  C1131    1.0000 0.03733  0.29949  0.92513  Biso   1.000  C
  C1132    1.0000 0.05560  0.38274  0.86587  Biso   1.000  C
  C1133    1.0000 0.07487  0.46267  0.79949  Biso   1.000  C
  C1134    1.0000 0.07487  0.46267  0.79954  Biso   1.000  C
  C1135    1.0000 0.07492  0.46267  0.79949  Biso   1.000  C
  C1136    1.0000 0.07492  0.46267  0.79954  Biso   1.000  C
  C1137    1.0000 0.79949  0.57492  0.96267  Biso   1.000  C
  C1138    1.0000 0.86587  0.55560  0.88274  Biso   1.000  C
  C1139    1.0000 0.79949  0.57492  0.96271  Biso   1.000  C
  C1140    1.0000 0.79954  0.57492  0.96267  Biso   1.000  C
  C1141    1.0000 0.79954  0.57492  0.96271  Biso   1.000  C
  C1142    1.0000 0.92513  0.53733  0.79949  Biso   1.000  C
  C1143    1.0000 0.92513  0.53733  0.79954  Biso   1.000  C
  N165     1.0000 0.05034  0.26599  0.96481  Biso   1.000  N
  H1078    1.0000 0.98502  0.21679  0.94129  Biso   1.000  H
  H1079    1.0000 0.98502  0.21679  0.94133  Biso   1.000  H
  H1080    1.0000 0.03691  0.18199  0.96671  Biso   1.000  H
  N166     1.0000 0.76599  0.53519  0.94966  Biso   1.000  N
  H1081    1.0000 0.68199  0.53329  0.96309  Biso   1.000  H
  H1082    1.0000 0.68199  0.53329  0.96313  Biso   1.000  H
  H1083    1.0000 0.68203  0.53329  0.96309  Biso   1.000  H
  H1084    1.0000 0.68203  0.53329  0.96313  Biso   1.000  H
  H1085    1.0000 0.71679  0.55871  0.01498  Biso   1.000  H
  H1086    1.0000 0.71679  0.55871  0.01503  Biso   1.000  H
  H1087    1.0000 0.00509  0.29129  0.90290  Biso   1.000  H
  H1088    1.0000 0.02340  0.37290  0.84432  Biso   1.000  H
  N167     1.0000 0.03519  0.44966  0.76599  Biso   1.000  N
  H1089    1.0000 0.09710  0.49491  0.79129  Biso   1.000  H
  H1090    1.0000 0.09710  0.49491  0.79133  Biso   1.000  H
  H1091    1.0000 0.79129  0.59710  0.99491  Biso   1.000  H
  H1092    1.0000 0.79133  0.59710  0.99491  Biso   1.000  H
  H1093    1.0000 0.84432  0.52340  0.87290  Biso   1.000  H
  N168     1.0000 0.96481  0.55034  0.76599  Biso   1.000  N
  H1094    1.0000 0.90290  0.50509  0.79129  Biso   1.000  H
  H1095    1.0000 0.90290  0.50509  0.79133  Biso   1.000  H
  C1144    1.0000 0.02896  0.48586  0.71662  Biso   1.000  C
  C1145    1.0000 0.97104  0.51414  0.71662  Biso   1.000  C
  C1146    1.0000 0.97109  0.51414  0.71662  Biso   1.000  C
  H1096    1.0000 0.03329  0.46309  0.68199  Biso   1.000  H
  H1097    1.0000 0.05871  0.51503  0.71679  Biso   1.000  H
  H1098    1.0000 0.03329  0.46309  0.68203  Biso   1.000  H
  H1099    1.0000 0.03333  0.46309  0.68199  Biso   1.000  H
  H1100    1.0000 0.03333  0.46309  0.68203  Biso   1.000  H
  H1101    1.0000 0.96671  0.53691  0.68199  Biso   1.000  H
  H1102    1.0000 0.94129  0.48502  0.71679  Biso   1.000  H
  H1103    1.0000 0.96671  0.53691  0.68203  Biso   1.000  H
  H1104    1.0000 0.94133  0.48502  0.71679  Biso   1.000  H
  C1147    1.0000 0.71953  0.23918  0.36338  Biso   1.000  C
  C1148    1.0000 0.71343  0.21040  0.41035  Biso   1.000  C
  H1105    1.0000 0.72513  0.27290  0.34621  Biso   1.000  H
  H1106    1.0000 0.69272  0.27109  0.36221  Biso   1.000  H
  H1107    1.0000 0.71271  0.21481  0.33030  Biso   1.000  H
  C1149    1.0000 0.78051  0.26082  0.36338  Biso   1.000  C
  C1150    1.0000 0.72012  0.23859  0.46776  Biso   1.000  C
  H1108    1.0000 0.67353  0.20960  0.39840  Biso   1.000  H
  H1109    1.0000 0.72832  0.17151  0.41082  Biso   1.000  H
  C1151    1.0000 0.75000  0.25000  0.37054  Biso   1.000  C
  C1152    1.0000 0.78657  0.28960  0.41035  Biso   1.000  C
  H1110    1.0000 0.77492  0.22710  0.34621  Biso   1.000  H
  H1111    1.0000 0.80732  0.22891  0.36221  Biso   1.000  H
  H1112    1.0000 0.78729  0.28519  0.33030  Biso   1.000  H
  N169     1.0000 0.71094  0.20017  0.51439  Biso   1.000  N
  C1153    1.0000 0.77988  0.26141  0.46776  Biso   1.000  C
  H1113    1.0000 0.69301  0.27071  0.47071  Biso   1.000  H
  H1114    1.0000 0.82652  0.29040  0.39840  Biso   1.000  H
  H1115    1.0000 0.77172  0.32849  0.41082  Biso   1.000  H
  C1154    1.0000 0.67285  0.21296  0.54912  Biso   1.000  C
  N170     1.0000 0.78910  0.29987  0.51439  Biso   1.000  N
  H1116    1.0000 0.80703  0.22929  0.47071  Biso   1.000  H
  H1117    1.0000 0.65173  0.24630  0.54272  Biso   1.000  H
  C1155    1.0000 0.65964  0.17870  0.59899  Biso   1.000  C
  C1156    1.0000 0.82715  0.28704  0.54912  Biso   1.000  C
  C1157    1.0000 0.69230  0.13190  0.61347  Biso   1.000  C
  C1158    1.0000 0.61347  0.19230  0.63190  Biso   1.000  C
  H1118    1.0000 0.84832  0.25370  0.54272  Biso   1.000  H
  C1159    1.0000 0.84040  0.32130  0.59899  Biso   1.000  C
  C1160    1.0000 0.67870  0.09899  0.65964  Biso   1.000  C
  H1119    1.0000 0.72420  0.12260  0.59129  Biso   1.000  H
  C1161    1.0000 0.59899  0.15964  0.67870  Biso   1.000  C
  H1120    1.0000 0.59129  0.22420  0.62260  Biso   1.000  H
  C1162    1.0000 0.80770  0.36810  0.61347  Biso   1.000  C
  C1163    1.0000 0.88657  0.30770  0.63190  Biso   1.000  C
  C1164    1.0000 0.71296  0.04907  0.67285  Biso   1.000  C
  C1165    1.0000 0.63190  0.11343  0.69230  Biso   1.000  C
  C1166    1.0000 0.54912  0.17285  0.71296  Biso   1.000  C
  C1167    1.0000 0.82130  0.40105  0.65964  Biso   1.000  C
  H1121    1.0000 0.77580  0.37740  0.59129  Biso   1.000  H
  C1168    1.0000 0.90105  0.34040  0.67870  Biso   1.000  C
  H1122    1.0000 0.90871  0.27580  0.62260  Biso   1.000  H
  N171     1.0000 0.70017  0.01435  0.71094  Biso   1.000  N
  H1123    1.0000 0.74630  0.04272  0.65173  Biso   1.000  H
  H1124    1.0000 0.62260  0.09129  0.72420  Biso   1.000  H
  N172     1.0000 0.51439  0.21094  0.70017  Biso   1.000  N
  H1125    1.0000 0.54272  0.15168  0.74630  Biso   1.000  H
  C1169    1.0000 0.78704  0.45093  0.67285  Biso   1.000  C
  C1170    1.0000 0.86810  0.38657  0.69230  Biso   1.000  C
  C1171    1.0000 0.95093  0.32715  0.71296  Biso   1.000  C
  C1172    1.0000 0.73859  0.96776  0.72012  Biso   1.000  C
  C1173    1.0000 0.46776  0.22012  0.73859  Biso   1.000  C
  N173     1.0000 0.79987  0.48565  0.71094  Biso   1.000  N
  H1126    1.0000 0.75370  0.45732  0.65173  Biso   1.000  H
  H1127    1.0000 0.87740  0.40871  0.72420  Biso   1.000  H
  N174     1.0000 0.98565  0.28906  0.70017  Biso   1.000  N
  H1128    1.0000 0.95732  0.34832  0.74630  Biso   1.000  H
  C1174    1.0000 0.76141  0.96776  0.77988  Biso   1.000  C
  H1129    1.0000 0.77071  0.97071  0.69301  Biso   1.000  H
  C1175    1.0000 0.71040  0.91031  0.71343  Biso   1.000  C
  C1176    1.0000 0.46776  0.27988  0.76141  Biso   1.000  C
  H1130    1.0000 0.47071  0.19301  0.77071  Biso   1.000  H
  C1177    1.0000 0.41035  0.21343  0.71040  Biso   1.000  C
  C1178    1.0000 0.76141  0.53224  0.72012  Biso   1.000  C
  C1179    1.0000 0.03224  0.27988  0.73859  Biso   1.000  C
  N175     1.0000 0.79987  0.01435  0.78910  Biso   1.000  N
  H1131    1.0000 0.72929  0.97071  0.80703  Biso   1.000  H
  C1180    1.0000 0.78960  0.91031  0.78657  Biso   1.000  C
  H1132    1.0000 0.70960  0.89840  0.67353  Biso   1.000  H
  H1133    1.0000 0.67151  0.91082  0.72832  Biso   1.000  H
  C1181    1.0000 0.75000  0.87054  0.75000  Biso   1.000  C
  C1182    1.0000 0.73923  0.86343  0.71953  Biso   1.000  C
  N176     1.0000 0.51439  0.28906  0.79987  Biso   1.000  N
  H1134    1.0000 0.47071  0.30699  0.72929  Biso   1.000  H
  C1183    1.0000 0.41035  0.28657  0.78960  Biso   1.000  C
  H1135    1.0000 0.39840  0.17348  0.70960  Biso   1.000  H
  H1136    1.0000 0.41082  0.22828  0.67151  Biso   1.000  H
  C1184    1.0000 0.37054  0.25000  0.75000  Biso   1.000  C
  C1185    1.0000 0.36338  0.21949  0.73923  Biso   1.000  C
  C1186    1.0000 0.73859  0.53224  0.77988  Biso   1.000  C
  H1137    1.0000 0.72929  0.52929  0.69301  Biso   1.000  H
  C1187    1.0000 0.78960  0.58969  0.71343  Biso   1.000  C
  C1188    1.0000 0.03224  0.22012  0.76141  Biso   1.000  C
  H1138    1.0000 0.02929  0.30699  0.77071  Biso   1.000  H
  C1189    1.0000 0.08969  0.28657  0.71040  Biso   1.000  C
  C1190    1.0000 0.78704  0.04907  0.82715  Biso   1.000  C
  H1139    1.0000 0.79040  0.89840  0.82652  Biso   1.000  H
  H1140    1.0000 0.82849  0.91082  0.77172  Biso   1.000  H
  C1191    1.0000 0.76082  0.86343  0.78051  Biso   1.000  C
  H1141    1.0000 0.72710  0.84621  0.77492  Biso   1.000  H
  H1142    1.0000 0.77290  0.84621  0.72513  Biso   1.000  H
  H1143    1.0000 0.77113  0.86221  0.69272  Biso   1.000  H
  H1144    1.0000 0.71481  0.83030  0.71271  Biso   1.000  H
  C1192    1.0000 0.54912  0.32715  0.78704  Biso   1.000  C
  H1145    1.0000 0.39840  0.32652  0.79040  Biso   1.000  H
  H1146    1.0000 0.41082  0.27172  0.82849  Biso   1.000  H
  C1193    1.0000 0.36338  0.28051  0.76082  Biso   1.000  C
  H1147    1.0000 0.34621  0.22508  0.77290  Biso   1.000  H
  H1148    1.0000 0.34621  0.27492  0.72710  Biso   1.000  H
  H1149    1.0000 0.36221  0.19272  0.77113  Biso   1.000  H
  H1150    1.0000 0.33030  0.21271  0.71481  Biso   1.000  H
  N177     1.0000 0.70017  0.48565  0.78910  Biso   1.000  N
  H1151    1.0000 0.77071  0.52929  0.80703  Biso   1.000  H
  C1194    1.0000 0.71040  0.58969  0.78657  Biso   1.000  C
  H1152    1.0000 0.79040  0.60160  0.67353  Biso   1.000  H
  H1153    1.0000 0.82849  0.58923  0.72832  Biso   1.000  H
  C1195    1.0000 0.75000  0.62950  0.75000  Biso   1.000  C
  C1196    1.0000 0.76082  0.63662  0.71953  Biso   1.000  C
  N178     1.0000 0.98565  0.21094  0.79987  Biso   1.000  N
  H1154    1.0000 0.02929  0.19301  0.72929  Biso   1.000  H
  C1197    1.0000 0.08969  0.21343  0.78960  Biso   1.000  C
  C1198    1.0000 0.12950  0.25000  0.75000  Biso   1.000  C
  H1155    1.0000 0.10160  0.32652  0.70960  Biso   1.000  H
  H1156    1.0000 0.08923  0.27172  0.67151  Biso   1.000  H
  C1199    1.0000 0.13662  0.28051  0.73923  Biso   1.000  C
  H1157    1.0000 0.75370  0.04272  0.84832  Biso   1.000  H
  C1200    1.0000 0.82130  0.09899  0.84040  Biso   1.000  C
  H1158    1.0000 0.72891  0.86221  0.80732  Biso   1.000  H
  H1159    1.0000 0.78523  0.83030  0.78729  Biso   1.000  H
  H1160    1.0000 0.54272  0.34832  0.75370  Biso   1.000  H
  C1201    1.0000 0.59899  0.34040  0.82130  Biso   1.000  C
  H1161    1.0000 0.36221  0.30732  0.72891  Biso   1.000  H
  H1162    1.0000 0.33030  0.28729  0.78523  Biso   1.000  H
  C1202    1.0000 0.71296  0.45093  0.82715  Biso   1.000  C
  H1163    1.0000 0.70960  0.60160  0.82652  Biso   1.000  H
  H1164    1.0000 0.67151  0.58923  0.77172  Biso   1.000  H
  C1203    1.0000 0.73923  0.63662  0.78051  Biso   1.000  C
  H1165    1.0000 0.72710  0.65379  0.72513  Biso   1.000  H
  H1166    1.0000 0.77290  0.65379  0.77492  Biso   1.000  H
  H1167    1.0000 0.72891  0.63779  0.69272  Biso   1.000  H
  H1168    1.0000 0.78523  0.66970  0.71271  Biso   1.000  H
  C1204    1.0000 0.95093  0.17285  0.78704  Biso   1.000  C
  H1169    1.0000 0.10160  0.17348  0.79040  Biso   1.000  H
  H1170    1.0000 0.08923  0.22828  0.82849  Biso   1.000  H
  C1205    1.0000 0.13662  0.21949  0.76082  Biso   1.000  C
  H1171    1.0000 0.15383  0.22508  0.72710  Biso   1.000  H
  H1172    1.0000 0.15383  0.27492  0.77290  Biso   1.000  H
  H1173    1.0000 0.13779  0.30732  0.77113  Biso   1.000  H
  H1174    1.0000 0.16970  0.28729  0.71481  Biso   1.000  H
  C1206    1.0000 0.86810  0.11343  0.80770  Biso   1.000  C
  C1207    1.0000 0.80770  0.13190  0.88657  Biso   1.000  C
  C1208    1.0000 0.61347  0.30770  0.86810  Biso   1.000  C
  C1209    1.0000 0.63190  0.38657  0.80770  Biso   1.000  C
  H1175    1.0000 0.74630  0.45732  0.84832  Biso   1.000  H
  C1210    1.0000 0.67870  0.40105  0.84040  Biso   1.000  C
  H1176    1.0000 0.77113  0.63779  0.80732  Biso   1.000  H
  H1177    1.0000 0.71481  0.66970  0.78729  Biso   1.000  H
  H1178    1.0000 0.95732  0.15168  0.75370  Biso   1.000  H
  C1211    1.0000 0.90105  0.15964  0.82130  Biso   1.000  C
  H1179    1.0000 0.13779  0.19272  0.72891  Biso   1.000  H
  H1180    1.0000 0.16970  0.21271  0.78523  Biso   1.000  H
  H1181    1.0000 0.87740  0.09129  0.77580  Biso   1.000  H
  C1212    1.0000 0.84040  0.17870  0.90105  Biso   1.000  C
  H1182    1.0000 0.77580  0.12260  0.90871  Biso   1.000  H
  C1213    1.0000 0.65964  0.32130  0.90105  Biso   1.000  C
  H1183    1.0000 0.59129  0.27580  0.87740  Biso   1.000  H
  H1184    1.0000 0.62260  0.40871  0.77580  Biso   1.000  H
  C1214    1.0000 0.69230  0.36810  0.88657  Biso   1.000  C
  C1215    1.0000 0.88657  0.19230  0.86810  Biso   1.000  C
  C1216    1.0000 0.82715  0.21296  0.95093  Biso   1.000  C
  C1217    1.0000 0.67285  0.28704  0.95093  Biso   1.000  C
  H1185    1.0000 0.72420  0.37740  0.90871  Biso   1.000  H
  H1186    1.0000 0.90871  0.22420  0.87740  Biso   1.000  H
  N179     1.0000 0.78910  0.20017  0.98565  Biso   1.000  N
  H1187    1.0000 0.84832  0.24630  0.95732  Biso   1.000  H
  N180     1.0000 0.71094  0.29987  0.98565  Biso   1.000  N
  H1188    1.0000 0.65173  0.25370  0.95732  Biso   1.000  H
  C1218    1.0000 0.77988  0.23859  0.03224  Biso   1.000  C
  C1219    1.0000 0.72012  0.26141  0.03224  Biso   1.000  C
  H1189    1.0000 0.80703  0.27071  0.02929  Biso   1.000  H
  C1220    1.0000 0.78657  0.21040  0.08969  Biso   1.000  C
  H1190    1.0000 0.69301  0.22929  0.02929  Biso   1.000  H
  C1221    1.0000 0.71343  0.28960  0.08969  Biso   1.000  C
  H1191    1.0000 0.82652  0.20960  0.10160  Biso   1.000  H
  H1192    1.0000 0.77172  0.17151  0.08923  Biso   1.000  H
  C1222    1.0000 0.75000  0.25000  0.12950  Biso   1.000  C
  C1223    1.0000 0.78051  0.23918  0.13662  Biso   1.000  C
  H1193    1.0000 0.67353  0.29040  0.10160  Biso   1.000  H
  H1194    1.0000 0.72832  0.32849  0.08923  Biso   1.000  H
  C1224    1.0000 0.71953  0.26082  0.13662  Biso   1.000  C
  H1195    1.0000 0.77492  0.27290  0.15383  Biso   1.000  H
  H1196    1.0000 0.72513  0.22710  0.15383  Biso   1.000  H
  H1197    1.0000 0.80732  0.27109  0.13779  Biso   1.000  H
  H1198    1.0000 0.78729  0.21481  0.16970  Biso   1.000  H
  H1199    1.0000 0.69272  0.22891  0.13779  Biso   1.000  H
  H1200    1.0000 0.71271  0.28519  0.16970  Biso   1.000  H
  C1225    1.0000 0.36338  0.71953  0.23918  Biso   1.000  C
  C1226    1.0000 0.41035  0.71343  0.21040  Biso   1.000  C
  C1227    1.0000 0.36338  0.78051  0.26082  Biso   1.000  C
  H1201    1.0000 0.34621  0.72513  0.27290  Biso   1.000  H
  H1202    1.0000 0.36221  0.69272  0.27109  Biso   1.000  H
  H1203    1.0000 0.33030  0.71271  0.21481  Biso   1.000  H
  C1228    1.0000 0.46776  0.72012  0.23859  Biso   1.000  C
  H1204    1.0000 0.39840  0.67353  0.20960  Biso   1.000  H
  H1205    1.0000 0.41082  0.72832  0.17151  Biso   1.000  H
  C1229    1.0000 0.37054  0.75000  0.25000  Biso   1.000  C
  C1230    1.0000 0.41035  0.78657  0.28960  Biso   1.000  C
  H1206    1.0000 0.34621  0.77492  0.22710  Biso   1.000  H
  H1207    1.0000 0.36221  0.80732  0.22891  Biso   1.000  H
  H1208    1.0000 0.33030  0.78729  0.28519  Biso   1.000  H
  N181     1.0000 0.51439  0.71094  0.20017  Biso   1.000  N
  C1231    1.0000 0.46776  0.77988  0.26141  Biso   1.000  C
  H1209    1.0000 0.47071  0.69301  0.27071  Biso   1.000  H
  H1210    1.0000 0.39840  0.82652  0.29040  Biso   1.000  H
  H1211    1.0000 0.41082  0.77172  0.32849  Biso   1.000  H
  C1232    1.0000 0.54912  0.67285  0.21296  Biso   1.000  C
  N182     1.0000 0.51439  0.78910  0.29987  Biso   1.000  N
  H1212    1.0000 0.47071  0.80703  0.22929  Biso   1.000  H
  C1233    1.0000 0.59899  0.65964  0.17870  Biso   1.000  C
  H1213    1.0000 0.54272  0.65173  0.24630  Biso   1.000  H
  C1234    1.0000 0.54912  0.82715  0.28704  Biso   1.000  C
  C1235    1.0000 0.63190  0.61347  0.19230  Biso   1.000  C
  C1236    1.0000 0.61347  0.69230  0.13190  Biso   1.000  C
  H1214    1.0000 0.54272  0.84832  0.25370  Biso   1.000  H
  C1237    1.0000 0.59899  0.84040  0.32130  Biso   1.000  C
  C1238    1.0000 0.67870  0.59899  0.15964  Biso   1.000  C
  H1215    1.0000 0.62260  0.59129  0.22420  Biso   1.000  H
  C1239    1.0000 0.65964  0.67870  0.09899  Biso   1.000  C
  H1216    1.0000 0.59129  0.72420  0.12260  Biso   1.000  H
  C1240    1.0000 0.61347  0.80770  0.36810  Biso   1.000  C
  C1241    1.0000 0.63190  0.88657  0.30770  Biso   1.000  C
  C1242    1.0000 0.71296  0.54912  0.17285  Biso   1.000  C
  C1243    1.0000 0.69230  0.63190  0.11343  Biso   1.000  C
  C1244    1.0000 0.67285  0.71296  0.04907  Biso   1.000  C
  C1245    1.0000 0.65964  0.82130  0.40105  Biso   1.000  C
  H1217    1.0000 0.59129  0.77580  0.37740  Biso   1.000  H
  C1246    1.0000 0.67870  0.90105  0.34040  Biso   1.000  C
  H1218    1.0000 0.62260  0.90871  0.27580  Biso   1.000  H
  N183     1.0000 0.70017  0.51439  0.21094  Biso   1.000  N
  H1219    1.0000 0.74630  0.54272  0.15168  Biso   1.000  H
  H1220    1.0000 0.72420  0.62260  0.09129  Biso   1.000  H
  N184     1.0000 0.71094  0.70017  0.01435  Biso   1.000  N
  H1221    1.0000 0.65173  0.74630  0.04272  Biso   1.000  H
  C1247    1.0000 0.67285  0.78704  0.45093  Biso   1.000  C
  C1248    1.0000 0.69230  0.86810  0.38657  Biso   1.000  C
  C1249    1.0000 0.71296  0.95093  0.32715  Biso   1.000  C
  C1250    1.0000 0.73859  0.46776  0.22012  Biso   1.000  C
  C1251    1.0000 0.72012  0.73859  0.96776  Biso   1.000  C
  N185     1.0000 0.71094  0.79987  0.48565  Biso   1.000  N
  H1222    1.0000 0.65173  0.75370  0.45732  Biso   1.000  H
  H1223    1.0000 0.72420  0.87740  0.40871  Biso   1.000  H
  N186     1.0000 0.70017  0.98565  0.28906  Biso   1.000  N
  H1224    1.0000 0.74630  0.95732  0.34832  Biso   1.000  H
  C1252    1.0000 0.71040  0.41035  0.21343  Biso   1.000  C
  C1253    1.0000 0.76141  0.46776  0.27988  Biso   1.000  C
  H1225    1.0000 0.77071  0.47071  0.19301  Biso   1.000  H
  C1254    1.0000 0.77988  0.76141  0.96776  Biso   1.000  C
  H1226    1.0000 0.69301  0.77071  0.97071  Biso   1.000  H
  C1255    1.0000 0.71343  0.71040  0.91031  Biso   1.000  C
  C1256    1.0000 0.72012  0.76141  0.53224  Biso   1.000  C
  C1257    1.0000 0.73859  0.03224  0.27988  Biso   1.000  C
  H1227    1.0000 0.70960  0.39840  0.17348  Biso   1.000  H
  H1228    1.0000 0.67151  0.41082  0.22828  Biso   1.000  H
  C1258    1.0000 0.75000  0.37054  0.25000  Biso   1.000  C
  C1259    1.0000 0.73923  0.36338  0.21949  Biso   1.000  C
  C1260    1.0000 0.78960  0.41035  0.28657  Biso   1.000  C
  N187     1.0000 0.79987  0.51439  0.28906  Biso   1.000  N
  H1229    1.0000 0.72929  0.47071  0.30699  Biso   1.000  H
  N188     1.0000 0.78910  0.79987  0.01435  Biso   1.000  N
  H1230    1.0000 0.80703  0.72929  0.97071  Biso   1.000  H
  C1261    1.0000 0.78657  0.78960  0.91031  Biso   1.000  C
  H1231    1.0000 0.67353  0.70960  0.89840  Biso   1.000  H
  H1232    1.0000 0.72832  0.67151  0.91082  Biso   1.000  H
  C1262    1.0000 0.75000  0.75000  0.87054  Biso   1.000  C
  C1263    1.0000 0.71953  0.73923  0.86343  Biso   1.000  C
  C1264    1.0000 0.77988  0.73859  0.53224  Biso   1.000  C
  H1233    1.0000 0.69301  0.72929  0.52929  Biso   1.000  H
  C1265    1.0000 0.71343  0.78960  0.58969  Biso   1.000  C
  C1266    1.0000 0.76141  0.03224  0.22012  Biso   1.000  C
  H1234    1.0000 0.77071  0.02929  0.30699  Biso   1.000  H
  C1267    1.0000 0.71040  0.08969  0.28657  Biso   1.000  C
  H1235    1.0000 0.72710  0.34621  0.27492  Biso   1.000  H
  H1236    1.0000 0.77290  0.34621  0.22508  Biso   1.000  H
  H1237    1.0000 0.77113  0.36221  0.19272  Biso   1.000  H
  H1238    1.0000 0.71481  0.33030  0.21271  Biso   1.000  H
  C1268    1.0000 0.76082  0.36338  0.28051  Biso   1.000  C
  H1239    1.0000 0.79040  0.39840  0.32652  Biso   1.000  H
  H1240    1.0000 0.82849  0.41082  0.27172  Biso   1.000  H
  C1269    1.0000 0.78704  0.54912  0.32715  Biso   1.000  C
  C1270    1.0000 0.82715  0.78704  0.04907  Biso   1.000  C
  H1241    1.0000 0.82652  0.79040  0.89840  Biso   1.000  H
  H1242    1.0000 0.77172  0.82849  0.91082  Biso   1.000  H
  C1271    1.0000 0.78051  0.76082  0.86343  Biso   1.000  C
  H1243    1.0000 0.77492  0.72710  0.84621  Biso   1.000  H
  H1244    1.0000 0.72513  0.77290  0.84621  Biso   1.000  H
  H1245    1.0000 0.69272  0.77113  0.86221  Biso   1.000  H
  H1246    1.0000 0.71271  0.71481  0.83030  Biso   1.000  H
  N189     1.0000 0.78910  0.70017  0.48565  Biso   1.000  N
  H1247    1.0000 0.80703  0.77071  0.52929  Biso   1.000  H
  C1272    1.0000 0.78657  0.71040  0.58969  Biso   1.000  C
  C1273    1.0000 0.75000  0.75000  0.62950  Biso   1.000  C
  H1248    1.0000 0.67353  0.79040  0.60160  Biso   1.000  H
  H1249    1.0000 0.72832  0.82849  0.58923  Biso   1.000  H
  C1274    1.0000 0.71953  0.76082  0.63662  Biso   1.000  C
  N190     1.0000 0.79987  0.98565  0.21094  Biso   1.000  N
  H1250    1.0000 0.72929  0.02929  0.19301  Biso   1.000  H
  C1275    1.0000 0.78960  0.08969  0.21343  Biso   1.000  C
  C1276    1.0000 0.75000  0.12950  0.25000  Biso   1.000  C
  H1251    1.0000 0.70960  0.10160  0.32652  Biso   1.000  H
  H1252    1.0000 0.67151  0.08923  0.27172  Biso   1.000  H
  C1277    1.0000 0.73923  0.13662  0.28051  Biso   1.000  C
  H1253    1.0000 0.72891  0.36221  0.30732  Biso   1.000  H
  H1254    1.0000 0.78523  0.33030  0.28729  Biso   1.000  H
  H1255    1.0000 0.75370  0.54272  0.34832  Biso   1.000  H
  C1278    1.0000 0.82130  0.59899  0.34040  Biso   1.000  C
  H1256    1.0000 0.84832  0.75370  0.04272  Biso   1.000  H
  C1279    1.0000 0.84040  0.82130  0.09899  Biso   1.000  C
  H1257    1.0000 0.80732  0.72891  0.86221  Biso   1.000  H
  H1258    1.0000 0.78729  0.78523  0.83030  Biso   1.000  H
  C1280    1.0000 0.82715  0.71296  0.45093  Biso   1.000  C
  H1259    1.0000 0.82652  0.70960  0.60160  Biso   1.000  H
  H1260    1.0000 0.77172  0.67151  0.58923  Biso   1.000  H
  C1281    1.0000 0.78051  0.73923  0.63662  Biso   1.000  C
  H1261    1.0000 0.77492  0.77290  0.65379  Biso   1.000  H
  H1262    1.0000 0.72513  0.72710  0.65379  Biso   1.000  H
  H1263    1.0000 0.69272  0.72891  0.63779  Biso   1.000  H
  H1264    1.0000 0.71271  0.78523  0.66970  Biso   1.000  H
  C1282    1.0000 0.78704  0.95093  0.17285  Biso   1.000  C
  H1265    1.0000 0.79040  0.10160  0.17348  Biso   1.000  H
  H1266    1.0000 0.82849  0.08923  0.22828  Biso   1.000  H
  C1283    1.0000 0.76082  0.13662  0.21949  Biso   1.000  C
  H1267    1.0000 0.72710  0.15383  0.22508  Biso   1.000  H
  H1268    1.0000 0.77290  0.15383  0.27492  Biso   1.000  H
  H1269    1.0000 0.77113  0.13779  0.30732  Biso   1.000  H
  H1270    1.0000 0.71481  0.16970  0.28729  Biso   1.000  H
  C1284    1.0000 0.86810  0.61347  0.30770  Biso   1.000  C
  C1285    1.0000 0.80770  0.63190  0.38657  Biso   1.000  C
  C1286    1.0000 0.80770  0.86810  0.11343  Biso   1.000  C
  C1287    1.0000 0.88657  0.80770  0.13190  Biso   1.000  C
  C1288    1.0000 0.84040  0.67870  0.40105  Biso   1.000  C
  H1271    1.0000 0.84832  0.74630  0.45732  Biso   1.000  H
  H1272    1.0000 0.80732  0.77113  0.63779  Biso   1.000  H
  H1273    1.0000 0.78729  0.71481  0.66970  Biso   1.000  H
  C1289    1.0000 0.82130  0.90105  0.15964  Biso   1.000  C
  H1274    1.0000 0.75370  0.95732  0.15168  Biso   1.000  H
  H1275    1.0000 0.72891  0.13779  0.19272  Biso   1.000  H
  H1276    1.0000 0.78523  0.16970  0.21271  Biso   1.000  H
  C1290    1.0000 0.90105  0.65964  0.32130  Biso   1.000  C
  H1277    1.0000 0.87740  0.59129  0.27580  Biso   1.000  H
  H1278    1.0000 0.77580  0.62260  0.40871  Biso   1.000  H
  H1279    1.0000 0.77580  0.87740  0.09129  Biso   1.000  H
  C1291    1.0000 0.90105  0.84040  0.17870  Biso   1.000  C
  H1280    1.0000 0.90871  0.77580  0.12260  Biso   1.000  H
  C1292    1.0000 0.88657  0.69230  0.36810  Biso   1.000  C
  C1293    1.0000 0.86810  0.88657  0.19230  Biso   1.000  C
  C1294    1.0000 0.95093  0.67285  0.28704  Biso   1.000  C
  C1295    1.0000 0.95093  0.82715  0.21296  Biso   1.000  C
  H1281    1.0000 0.90871  0.72420  0.37740  Biso   1.000  H
  H1282    1.0000 0.87740  0.90871  0.22420  Biso   1.000  H
  N191     1.0000 0.98565  0.71094  0.29987  Biso   1.000  N
  H1283    1.0000 0.95732  0.65173  0.25370  Biso   1.000  H
  N192     1.0000 0.98565  0.78910  0.20017  Biso   1.000  N
  H1284    1.0000 0.95732  0.84832  0.24630  Biso   1.000  H
  C1296    1.0000 0.03224  0.72012  0.26141  Biso   1.000  C
  C1297    1.0000 0.03224  0.77988  0.23859  Biso   1.000  C
  H1285    1.0000 0.02929  0.69301  0.22929  Biso   1.000  H
  C1298    1.0000 0.08969  0.71343  0.28960  Biso   1.000  C
  H1286    1.0000 0.02929  0.80703  0.27071  Biso   1.000  H
  C1299    1.0000 0.08969  0.78657  0.21040  Biso   1.000  C
  C1300    1.0000 0.12950  0.75000  0.25000  Biso   1.000  C
  H1287    1.0000 0.10160  0.67353  0.29040  Biso   1.000  H
  H1288    1.0000 0.08923  0.72832  0.32849  Biso   1.000  H
  C1301    1.0000 0.13662  0.71953  0.26082  Biso   1.000  C
  H1289    1.0000 0.10160  0.82652  0.20960  Biso   1.000  H
  H1290    1.0000 0.08923  0.77172  0.17151  Biso   1.000  H
  C1302    1.0000 0.13662  0.78051  0.23918  Biso   1.000  C
  H1291    1.0000 0.15383  0.77492  0.27290  Biso   1.000  H
  H1292    1.0000 0.15383  0.72513  0.22710  Biso   1.000  H
  H1293    1.0000 0.13779  0.69272  0.22891  Biso   1.000  H
  H1294    1.0000 0.16970  0.71271  0.28519  Biso   1.000  H
  H1295    1.0000 0.13779  0.80732  0.27109  Biso   1.000  H
  H1296    1.0000 0.16970  0.78729  0.21481  Biso   1.000  H
  C1303    1.0000 0.23918  0.36338  0.71953  Biso   1.000  C
  C1304    1.0000 0.21040  0.41035  0.71343  Biso   1.000  C
  H1297    1.0000 0.27290  0.34621  0.72513  Biso   1.000  H
  C1305    1.0000 0.26082  0.36338  0.78051  Biso   1.000  C
  H1298    1.0000 0.27109  0.36221  0.69272  Biso   1.000  H
  H1299    1.0000 0.21481  0.33030  0.71271  Biso   1.000  H
  C1306    1.0000 0.23859  0.46776  0.72012  Biso   1.000  C
  H1300    1.0000 0.20960  0.39840  0.67353  Biso   1.000  H
  H1301    1.0000 0.17151  0.41082  0.72832  Biso   1.000  H
  C1307    1.0000 0.25000  0.37054  0.75000  Biso   1.000  C
  C1308    1.0000 0.28960  0.41035  0.78657  Biso   1.000  C
  H1302    1.0000 0.22710  0.34621  0.77492  Biso   1.000  H
  H1303    1.0000 0.22891  0.36221  0.80732  Biso   1.000  H
  H1304    1.0000 0.28519  0.33030  0.78729  Biso   1.000  H
  N193     1.0000 0.20017  0.51439  0.71094  Biso   1.000  N
  C1309    1.0000 0.26141  0.46776  0.77988  Biso   1.000  C
  H1305    1.0000 0.27071  0.47071  0.69301  Biso   1.000  H
  H1306    1.0000 0.29040  0.39840  0.82652  Biso   1.000  H
  H1307    1.0000 0.32849  0.41082  0.77172  Biso   1.000  H
  C1310    1.0000 0.21296  0.54912  0.67285  Biso   1.000  C
  N194     1.0000 0.29987  0.51439  0.78910  Biso   1.000  N
  H1308    1.0000 0.22929  0.47071  0.80703  Biso   1.000  H
  H1309    1.0000 0.24630  0.54272  0.65173  Biso   1.000  H
  C1311    1.0000 0.17870  0.59899  0.65964  Biso   1.000  C
  C1312    1.0000 0.28704  0.54912  0.82715  Biso   1.000  C
  C1313    1.0000 0.13190  0.61347  0.69230  Biso   1.000  C
  C1314    1.0000 0.19230  0.63190  0.61347  Biso   1.000  C
  H1310    1.0000 0.25370  0.54272  0.84832  Biso   1.000  H
  C1315    1.0000 0.32130  0.59899  0.84040  Biso   1.000  C
  C1316    1.0000 0.09899  0.65964  0.67870  Biso   1.000  C
  H1311    1.0000 0.12260  0.59129  0.72420  Biso   1.000  H
  C1317    1.0000 0.15964  0.67870  0.59899  Biso   1.000  C
  H1312    1.0000 0.22420  0.62260  0.59129  Biso   1.000  H
  C1318    1.0000 0.30770  0.63190  0.88657  Biso   1.000  C
  C1319    1.0000 0.36810  0.61347  0.80770  Biso   1.000  C
  C1320    1.0000 0.04907  0.67285  0.71296  Biso   1.000  C
  C1321    1.0000 0.11343  0.69230  0.63190  Biso   1.000  C
  C1322    1.0000 0.17285  0.71296  0.54912  Biso   1.000  C
  C1323    1.0000 0.34040  0.67870  0.90105  Biso   1.000  C
  H1313    1.0000 0.27580  0.62260  0.90871  Biso   1.000  H
  C1324    1.0000 0.40105  0.65964  0.82130  Biso   1.000  C
  H1314    1.0000 0.37740  0.59129  0.77580  Biso   1.000  H
  N195     1.0000 0.01435  0.71094  0.70017  Biso   1.000  N
  H1315    1.0000 0.04272  0.65173  0.74630  Biso   1.000  H
  H1316    1.0000 0.09129  0.72420  0.62260  Biso   1.000  H
  N196     1.0000 0.21094  0.70017  0.51439  Biso   1.000  N
  H1317    1.0000 0.15168  0.74630  0.54272  Biso   1.000  H
  C1325    1.0000 0.32715  0.71296  0.95093  Biso   1.000  C
  C1326    1.0000 0.38657  0.69230  0.86810  Biso   1.000  C
  C1327    1.0000 0.45093  0.67285  0.78704  Biso   1.000  C
  C1328    1.0000 0.96776  0.72012  0.73859  Biso   1.000  C
  C1329    1.0000 0.22012  0.73859  0.46776  Biso   1.000  C
  N197     1.0000 0.28906  0.70017  0.98565  Biso   1.000  N
  H1318    1.0000 0.34832  0.74630  0.95732  Biso   1.000  H
  H1319    1.0000 0.40871  0.72420  0.87740  Biso   1.000  H
  N198     1.0000 0.48565  0.71094  0.79987  Biso   1.000  N
  H1320    1.0000 0.45732  0.65173  0.75370  Biso   1.000  H
  C1330    1.0000 0.96776  0.77988  0.76141  Biso   1.000  C
  H1321    1.0000 0.97071  0.69301  0.77071  Biso   1.000  H
  C1331    1.0000 0.91031  0.71343  0.71040  Biso   1.000  C
  C1332    1.0000 0.27988  0.76141  0.46776  Biso   1.000  C
  H1322    1.0000 0.19301  0.77071  0.47071  Biso   1.000  H
  C1333    1.0000 0.21343  0.71040  0.41035  Biso   1.000  C
  C1334    1.0000 0.27988  0.73859  0.03224  Biso   1.000  C
  C1335    1.0000 0.53224  0.72012  0.76141  Biso   1.000  C
  N199     1.0000 0.01435  0.78910  0.79987  Biso   1.000  N
  H1323    1.0000 0.97071  0.80703  0.72929  Biso   1.000  H
  C1336    1.0000 0.91031  0.78657  0.78960  Biso   1.000  C
  C1337    1.0000 0.87054  0.75000  0.75000  Biso   1.000  C
  H1324    1.0000 0.89840  0.67353  0.70960  Biso   1.000  H
  H1325    1.0000 0.91082  0.72832  0.67151  Biso   1.000  H
  C1338    1.0000 0.86343  0.71953  0.73923  Biso   1.000  C
  N200     1.0000 0.28906  0.79987  0.51439  Biso   1.000  N
  H1326    1.0000 0.30699  0.72929  0.47071  Biso   1.000  H
  C1339    1.0000 0.28657  0.78960  0.41035  Biso   1.000  C
  H1327    1.0000 0.17348  0.70960  0.39840  Biso   1.000  H
  H1328    1.0000 0.22828  0.67151  0.41082  Biso   1.000  H
  C1340    1.0000 0.25000  0.75000  0.37054  Biso   1.000  C
  C1341    1.0000 0.21949  0.73923  0.36338  Biso   1.000  C
  C1342    1.0000 0.22012  0.76141  0.03224  Biso   1.000  C
  H1329    1.0000 0.30699  0.77071  0.02929  Biso   1.000  H
  C1343    1.0000 0.28657  0.71040  0.08969  Biso   1.000  C
  C1344    1.0000 0.53224  0.77988  0.73859  Biso   1.000  C
  H1330    1.0000 0.52929  0.69301  0.72929  Biso   1.000  H
  C1345    1.0000 0.58969  0.71343  0.78960  Biso   1.000  C
  C1346    1.0000 0.04907  0.82715  0.78704  Biso   1.000  C
  H1331    1.0000 0.89840  0.82652  0.79040  Biso   1.000  H
  H1332    1.0000 0.91082  0.77172  0.82849  Biso   1.000  H
  C1347    1.0000 0.86343  0.78051  0.76082  Biso   1.000  C
  H1333    1.0000 0.84621  0.77492  0.72710  Biso   1.000  H
  H1334    1.0000 0.84621  0.72513  0.77290  Biso   1.000  H
  H1335    1.0000 0.86221  0.69272  0.77113  Biso   1.000  H
  H1336    1.0000 0.83030  0.71271  0.71481  Biso   1.000  H
  C1348    1.0000 0.32715  0.78704  0.54912  Biso   1.000  C
  H1337    1.0000 0.32652  0.79040  0.39840  Biso   1.000  H
  H1338    1.0000 0.27172  0.82849  0.41082  Biso   1.000  H
  C1349    1.0000 0.28051  0.76082  0.36338  Biso   1.000  C
  H1339    1.0000 0.22508  0.77290  0.34621  Biso   1.000  H
  H1340    1.0000 0.27492  0.72710  0.34621  Biso   1.000  H
  H1341    1.0000 0.19272  0.77113  0.36221  Biso   1.000  H
  H1342    1.0000 0.21271  0.71481  0.33030  Biso   1.000  H
  N201     1.0000 0.21094  0.79987  0.98565  Biso   1.000  N
  H1343    1.0000 0.19301  0.72929  0.02929  Biso   1.000  H
  C1350    1.0000 0.21343  0.78960  0.08969  Biso   1.000  C
  H1344    1.0000 0.32652  0.70960  0.10160  Biso   1.000  H
  H1345    1.0000 0.27172  0.67151  0.08923  Biso   1.000  H
  C1351    1.0000 0.25000  0.75000  0.12950  Biso   1.000  C
  C1352    1.0000 0.28051  0.73923  0.13662  Biso   1.000  C
  N202     1.0000 0.48565  0.78910  0.70017  Biso   1.000  N
  H1346    1.0000 0.52929  0.80703  0.77071  Biso   1.000  H
  C1353    1.0000 0.58969  0.78657  0.71040  Biso   1.000  C
  H1347    1.0000 0.60160  0.67353  0.79040  Biso   1.000  H
  H1348    1.0000 0.58923  0.72832  0.82849  Biso   1.000  H
  C1354    1.0000 0.62950  0.75000  0.75000  Biso   1.000  C
  C1355    1.0000 0.63662  0.71953  0.76082  Biso   1.000  C
  H1349    1.0000 0.04272  0.84832  0.75370  Biso   1.000  H
  C1356    1.0000 0.09899  0.84040  0.82130  Biso   1.000  C
  H1350    1.0000 0.86221  0.80732  0.72891  Biso   1.000  H
  H1351    1.0000 0.83030  0.78729  0.78523  Biso   1.000  H
  H1352    1.0000 0.34832  0.75370  0.54272  Biso   1.000  H
  C1357    1.0000 0.34040  0.82130  0.59899  Biso   1.000  C
  H1353    1.0000 0.30732  0.72891  0.36221  Biso   1.000  H
  H1354    1.0000 0.28729  0.78523  0.33030  Biso   1.000  H
  C1358    1.0000 0.17285  0.78704  0.95093  Biso   1.000  C
  H1355    1.0000 0.17348  0.79040  0.10160  Biso   1.000  H
  H1356    1.0000 0.22828  0.82849  0.08923  Biso   1.000  H
  C1359    1.0000 0.21949  0.76082  0.13662  Biso   1.000  C
  H1357    1.0000 0.22508  0.72710  0.15383  Biso   1.000  H
  H1358    1.0000 0.27492  0.77290  0.15383  Biso   1.000  H
  H1359    1.0000 0.30732  0.77113  0.13779  Biso   1.000  H
  H1360    1.0000 0.28729  0.71481  0.16970  Biso   1.000  H
  C1360    1.0000 0.45093  0.82715  0.71296  Biso   1.000  C
  H1361    1.0000 0.60160  0.82652  0.70960  Biso   1.000  H
  H1362    1.0000 0.58923  0.77172  0.67151  Biso   1.000  H
  C1361    1.0000 0.63662  0.78051  0.73923  Biso   1.000  C
  H1363    1.0000 0.65379  0.77492  0.77290  Biso   1.000  H
  H1364    1.0000 0.65379  0.72513  0.72710  Biso   1.000  H
  H1365    1.0000 0.63779  0.69272  0.72891  Biso   1.000  H
  H1366    1.0000 0.66970  0.71271  0.78523  Biso   1.000  H
  C1362    1.0000 0.13190  0.88657  0.80770  Biso   1.000  C
  C1363    1.0000 0.11343  0.80770  0.86810  Biso   1.000  C
  C1364    1.0000 0.30770  0.86810  0.61347  Biso   1.000  C
  C1365    1.0000 0.38657  0.80770  0.63190  Biso   1.000  C
  H1367    1.0000 0.15168  0.75370  0.95732  Biso   1.000  H
  C1366    1.0000 0.15964  0.82130  0.90105  Biso   1.000  C
  H1368    1.0000 0.19272  0.72891  0.13779  Biso   1.000  H
  H1369    1.0000 0.21271  0.78523  0.16970  Biso   1.000  H
  H1370    1.0000 0.45732  0.84832  0.74630  Biso   1.000  H
  C1367    1.0000 0.40105  0.84040  0.67870  Biso   1.000  C
  H1371    1.0000 0.63779  0.80732  0.77113  Biso   1.000  H
  H1372    1.0000 0.66970  0.78729  0.71481  Biso   1.000  H
  H1373    1.0000 0.12260  0.90871  0.77580  Biso   1.000  H
  C1368    1.0000 0.17870  0.90105  0.84040  Biso   1.000  C
  H1374    1.0000 0.09129  0.77580  0.87740  Biso   1.000  H
  C1369    1.0000 0.32130  0.90105  0.65964  Biso   1.000  C
  H1375    1.0000 0.27580  0.87740  0.59129  Biso   1.000  H
  H1376    1.0000 0.40871  0.77580  0.62260  Biso   1.000  H
  C1370    1.0000 0.19230  0.86810  0.88657  Biso   1.000  C
  C1371    1.0000 0.36810  0.88657  0.69230  Biso   1.000  C
  C1372    1.0000 0.21296  0.95093  0.82715  Biso   1.000  C
  C1373    1.0000 0.28704  0.95093  0.67285  Biso   1.000  C
  H1377    1.0000 0.22420  0.87740  0.90871  Biso   1.000  H
  H1378    1.0000 0.37740  0.90871  0.72420  Biso   1.000  H
  N203     1.0000 0.20017  0.98565  0.78910  Biso   1.000  N
  H1379    1.0000 0.24630  0.95732  0.84832  Biso   1.000  H
  N204     1.0000 0.29987  0.98565  0.71094  Biso   1.000  N
  H1380    1.0000 0.25370  0.95732  0.65173  Biso   1.000  H
  C1374    1.0000 0.23859  0.03224  0.77988  Biso   1.000  C
  C1375    1.0000 0.26141  0.03224  0.72012  Biso   1.000  C
  H1381    1.0000 0.27071  0.02929  0.80703  Biso   1.000  H
  C1376    1.0000 0.21040  0.08969  0.78657  Biso   1.000  C
  H1382    1.0000 0.22929  0.02929  0.69301  Biso   1.000  H
  C1377    1.0000 0.28960  0.08969  0.71343  Biso   1.000  C
  H1383    1.0000 0.20960  0.10160  0.82652  Biso   1.000  H
  H1384    1.0000 0.17151  0.08923  0.77172  Biso   1.000  H
  C1378    1.0000 0.25000  0.12950  0.75000  Biso   1.000  C
  C1379    1.0000 0.23918  0.13662  0.78051  Biso   1.000  C
  H1385    1.0000 0.29040  0.10160  0.67353  Biso   1.000  H
  H1386    1.0000 0.32849  0.08923  0.72832  Biso   1.000  H
  C1380    1.0000 0.26082  0.13662  0.71953  Biso   1.000  C
  H1387    1.0000 0.27290  0.15383  0.77492  Biso   1.000  H
  H1388    1.0000 0.22710  0.15383  0.72513  Biso   1.000  H
  H1389    1.0000 0.27109  0.13779  0.80732  Biso   1.000  H
  H1390    1.0000 0.21481  0.16970  0.78729  Biso   1.000  H
  H1391    1.0000 0.22891  0.13779  0.69272  Biso   1.000  H
  H1392    1.0000 0.28519  0.16970  0.71271  Biso   1.000  H
