data_image0
_cell_length_a       15.843
_cell_length_b       16.284
_cell_length_c       34.474
_cell_angle_alpha    90
_cell_angle_beta     91.31
_cell_angle_gamma    90

_symmetry_space_group_name_H-M    "P 1"
_symmetry_int_tables_number       1

loop_
  _symmetry_equiv_pos_as_xyz
  'x, y, z'

loop_
  _atom_site_label
  _atom_site_occupancy
  _atom_site_fract_x
  _atom_site_fract_y
  _atom_site_fract_z
  _atom_site_thermal_displace_type
  _atom_site_B_iso_or_equiv
  _atom_site_type_symbol
  C1       1.0000 0.42010  0.27198  0.15685  Biso   1.000  C
  N1       1.0000 0.35713  0.20603  0.16362  Biso   1.000  N
  H1       1.0000 0.47475  0.24668  0.15021  Biso   1.000  H
  H2       1.0000 0.42881  0.30398  0.18100  Biso   1.000  H
  C2       1.0000 0.39199  0.32879  0.12474  Biso   1.000  C
  H3       1.0000 0.47468  0.24668  0.15021  Biso   1.000  H
  C3       1.0000 0.33838  0.18662  0.20035  Biso   1.000  C
  C4       1.0000 0.32161  0.16519  0.13364  Biso   1.000  C
  C5       1.0000 0.33844  0.18662  0.20035  Biso   1.000  C
  C6       1.0000 0.32100  0.37730  0.12772  Biso   1.000  C
  C7       1.0000 0.44103  0.33370  0.09172  Biso   1.000  C
  C8       1.0000 0.44097  0.33370  0.09175  Biso   1.000  C
  H4       1.0000 0.36335  0.21610  0.22141  Biso   1.000  H
  C9       1.0000 0.28355  0.12417  0.20708  Biso   1.000  C
  H5       1.0000 0.36328  0.21610  0.22141  Biso   1.000  H
  C10      1.0000 0.28348  0.12417  0.20708  Biso   1.000  C
  C11      1.0000 0.26850  0.10329  0.13936  Biso   1.000  C
  H6       1.0000 0.33460  0.18079  0.10791  Biso   1.000  H
  C12      1.0000 0.29811  0.43061  0.09761  Biso   1.000  C
  H7       1.0000 0.28773  0.37429  0.15030  Biso   1.000  H
  C13      1.0000 0.41953  0.38768  0.06160  Biso   1.000  C
  H8       1.0000 0.48960  0.29993  0.08971  Biso   1.000  H
  C14      1.0000 0.41946  0.38768  0.06160  Biso   1.000  C
  C15      1.0000 0.24814  0.08002  0.17670  Biso   1.000  C
  H9       1.0000 0.26943  0.11091  0.23299  Biso   1.000  H
  C16      1.0000 0.24808  0.08002  0.17670  Biso   1.000  C
  H10      1.0000 0.24445  0.07492  0.11771  Biso   1.000  H
  H11      1.0000 0.24438  0.07492  0.11771  Biso   1.000  H
  C17      1.0000 0.34760  0.43583  0.06482  Biso   1.000  C
  H12      1.0000 0.24884  0.46340  0.09941  Biso   1.000  H
  H13      1.0000 0.24878  0.46340  0.09941  Biso   1.000  H
  C18      1.0000 0.47352  0.39051  0.02666  Biso   1.000  C
  C19      1.0000 0.47346  0.39051  0.02666  Biso   1.000  C
  C20      1.0000 0.19091  0.01142  0.18355  Biso   1.000  C
  H14      1.0000 0.33214  0.47249  0.04451  Biso   1.000  H
  H15      1.0000 0.33208  0.47249  0.04451  Biso   1.000  H
  C21      1.0000 0.55978  0.40862  0.03255  Biso   1.000  C
  C22      1.0000 0.43532  0.37092  0.99092  Biso   1.000  C
  C23      1.0000 0.12830  0.98950  0.15694  Biso   1.000  C
  C24      1.0000 0.20235  0.96297  0.21680  Biso   1.000  C
  C25      1.0000 0.20229  0.96297  0.21680  Biso   1.000  C
  N2       1.0000 0.62163  0.40058  0.00572  Biso   1.000  N
  C26      1.0000 0.59621  0.43503  0.06943  Biso   1.000  C
  N3       1.0000 0.62157  0.40058  0.00572  Biso   1.000  N
  N4       1.0000 0.47549  0.36889  0.95590  Biso   1.000  N
  C27      1.0000 0.34950  0.34721  0.98366  Biso   1.000  C
  H16      1.0000 0.12073  0.02137  0.13411  Biso   1.000  H
  H17      1.0000 0.12066  0.02137  0.13411  Biso   1.000  H
  C28      1.0000 0.07665  0.92262  0.16277  Biso   1.000  C
  C29      1.0000 0.07658  0.92262  0.16277  Biso   1.000  C
  H18      1.0000 0.24532  0.97599  0.23540  Biso   1.000  H
  C30      1.0000 0.15061  0.89659  0.22214  Biso   1.000  C
  C31      1.0000 0.69619  0.41777  0.02501  Biso   1.000  C
  H19      1.0000 0.56649  0.44651  0.09241  Biso   1.000  H
  C32      1.0000 0.68062  0.44013  0.06482  Biso   1.000  C
  H20      1.0000 0.53639  0.36600  0.95189  Biso   1.000  H
  C33      1.0000 0.41853  0.34598  0.92738  Biso   1.000  C
  H21      1.0000 0.30708  0.34181  0.00261  Biso   1.000  H
  C34      1.0000 0.33895  0.33382  0.94534  Biso   1.000  C
  C35      1.0000 0.33888  0.33382  0.94536  Biso   1.000  C
  N5       1.0000 0.08912  0.87767  0.19524  Biso   1.000  N
  H22      1.0000 0.03344  0.90850  0.14441  Biso   1.000  H
  H23      1.0000 0.03338  0.90850  0.14441  Biso   1.000  H
  H24      1.0000 0.15760  0.86361  0.24471  Biso   1.000  H
  C36      1.0000 0.77741  0.41268  0.00949  Biso   1.000  C
  H25      1.0000 0.72159  0.45542  0.08400  Biso   1.000  H
  C37      1.0000 0.43584  0.33419  0.88844  Biso   1.000  C
  C38      1.0000 0.43578  0.33419  0.88844  Biso   1.000  C
  H26      1.0000 0.28762  0.31878  0.93251  Biso   1.000  H
  C39      1.0000 0.03862  0.80171  0.20038  Biso   1.000  C
  C40      1.0000 0.85223  0.42637  0.03540  Biso   1.000  C
  C41      1.0000 0.85217  0.42637  0.03540  Biso   1.000  C
  C42      1.0000 0.79493  0.39309  0.97099  Biso   1.000  C
  C43      1.0000 0.51684  0.33653  0.87213  Biso   1.000  C
  C44      1.0000 0.36261  0.31602  0.86157  Biso   1.000  C
  C45      1.0000 0.51677  0.33653  0.87213  Biso   1.000  C
  H27      1.0000 0.99492  0.79692  0.17949  Biso   1.000  H
  H28      1.0000 0.99492  0.79692  0.17952  Biso   1.000  H
  H29      1.0000 0.98803  0.80558  0.18311  Biso   1.000  H
  C46      1.0000 0.09983  0.73059  0.19861  Biso   1.000  C
  H30      1.0000 0.01034  0.80251  0.22571  Biso   1.000  H
  H31      1.0000 0.01028  0.80251  0.22571  Biso   1.000  H
  C47      1.0000 0.08003  0.71997  0.19280  Biso   1.000  C
  H32      1.0000 0.01863  0.80109  0.22739  Biso   1.000  H
  C48      1.0000 0.86761  0.50258  0.05275  Biso   1.000  C
  C49      1.0000 0.90982  0.36269  0.04219  Biso   1.000  C
  N6       1.0000 0.73694  0.37472  0.94212  Biso   1.000  N
  C50      1.0000 0.87664  0.39290  0.95378  Biso   1.000  C
  N7       1.0000 0.73688  0.37472  0.94212  Biso   1.000  N
  C51      1.0000 0.87657  0.39290  0.95378  Biso   1.000  C
  N8       1.0000 0.59133  0.35041  0.89137  Biso   1.000  N
  C52      1.0000 0.53191  0.32197  0.83125  Biso   1.000  C
  C53      1.0000 0.35588  0.23962  0.84422  Biso   1.000  C
  C54      1.0000 0.30340  0.37571  0.85246  Biso   1.000  C
  C55      1.0000 0.14612  0.71672  0.16611  Biso   1.000  C
  C56      1.0000 0.10720  0.67612  0.22881  Biso   1.000  C
  C57      1.0000 0.15297  0.72900  0.16431  Biso   1.000  C
  C58      1.0000 0.06419  0.65101  0.21320  Biso   1.000  C
  H33      1.0000 0.82959  0.54710  0.04851  Biso   1.000  H
  C59      1.0000 0.93903  0.51240  0.07616  Biso   1.000  C
  C60      1.0000 0.93897  0.51240  0.07616  Biso   1.000  C
  C61      1.0000 0.98024  0.37270  0.06583  Biso   1.000  C
  H34      1.0000 0.90001  0.31098  0.03020  Biso   1.000  H
  C62      1.0000 0.98017  0.37270  0.06583  Biso   1.000  C
  C63      1.0000 0.77790  0.36582  0.90765  Biso   1.000  C
  H35      1.0000 0.67591  0.36398  0.94600  Biso   1.000  H
  H36      1.0000 0.92893  0.40260  0.96701  Biso   1.000  H
  C64      1.0000 0.86621  0.37638  0.91539  Biso   1.000  C
  C65      1.0000 0.65271  0.34500  0.86401  Biso   1.000  C
  C66      1.0000 0.61568  0.32639  0.82655  Biso   1.000  C
  H37      1.0000 0.49028  0.31147  0.81161  Biso   1.000  H
  H38      1.0000 0.39639  0.19817  0.85020  Biso   1.000  H
  C67      1.0000 0.29014  0.22323  0.81808  Biso   1.000  C
  C68      1.0000 0.29007  0.22323  0.81808  Biso   1.000  C
  C69      1.0000 0.23763  0.35937  0.82707  Biso   1.000  C
  H39      1.0000 0.30832  0.42858  0.86389  Biso   1.000  H
  C70      1.0000 0.23756  0.35937  0.82707  Biso   1.000  C
  C71      1.0000 0.20514  0.65709  0.16379  Biso   1.000  C
  H40      1.0000 0.13612  0.75068  0.14409  Biso   1.000  H
  C72      1.0000 0.20508  0.65709  0.16379  Biso   1.000  C
  C73      1.0000 0.19099  0.64198  0.15839  Biso   1.000  C
  H41      1.0000 0.17151  0.77837  0.15259  Biso   1.000  H
  H42      1.0000 0.07455  0.68300  0.25141  Biso   1.000  H
  C74      1.0000 0.16223  0.61158  0.22620  Biso   1.000  C
  H43      1.0000 0.07449  0.68300  0.25141  Biso   1.000  H
  C75      1.0000 0.10908  0.57738  0.20821  Biso   1.000  C
  H44      1.0000 0.02074  0.65242  0.23160  Biso   1.000  H
  H45      1.0000 0.95009  0.56411  0.08789  Biso   1.000  H
  C76      1.0000 0.99503  0.44749  0.08275  Biso   1.000  C
  H46      1.0000 0.95009  0.56411  0.08792  Biso   1.000  H
  C77      1.0000 0.99496  0.44749  0.08275  Biso   1.000  C
  C78      1.0000 0.04040  0.30171  0.07231  Biso   1.000  C
  C79      1.0000 0.74049  0.35237  0.87138  Biso   1.000  C
  H47      1.0000 0.90979  0.37270  0.89700  Biso   1.000  H
  H48      1.0000 0.64481  0.31878  0.80299  Biso   1.000  H
  C80      1.0000 0.28552  0.13989  0.79890  Biso   1.000  C
  C81      1.0000 0.23083  0.28267  0.80972  Biso   1.000  C
  C82      1.0000 0.28546  0.13989  0.79890  Biso   1.000  C
  C83      1.0000 0.23077  0.28267  0.80972  Biso   1.000  C
  H49      1.0000 0.19682  0.40070  0.82130  Biso   1.000  H
  C84      1.0000 0.25963  0.64763  0.12862  Biso   1.000  C
  C85      1.0000 0.21232  0.60041  0.19379  Biso   1.000  C
  C86      1.0000 0.25957  0.64763  0.12862  Biso   1.000  C
  C87      1.0000 0.17191  0.57480  0.17960  Biso   1.000  C
  H50      1.0000 0.16655  0.57338  0.24700  Biso   1.000  H
  H51      1.0000 0.16649  0.57338  0.24700  Biso   1.000  H
  H52      1.0000 0.09773  0.53058  0.22371  Biso   1.000  H
  H53      1.0000 0.04350  0.45529  0.09909  Biso   1.000  H
  H54      1.0000 0.04350  0.45529  0.09912  Biso   1.000  H
  N9       1.0000 0.99460  0.23059  0.09073  Biso   1.000  N
  H55      1.0000 0.06344  0.28421  0.04709  Biso   1.000  H
  H56      1.0000 0.08814  0.31927  0.08940  Biso   1.000  H
  H57      1.0000 0.06338  0.28421  0.04709  Biso   1.000  H
  H58      1.0000 0.08808  0.31927  0.08940  Biso   1.000  H
  C88      1.0000 0.79498  0.34291  0.83621  Biso   1.000  C
  C89      1.0000 0.80914  0.35802  0.84161  Biso   1.000  C
  N10      1.0000 0.23133  0.08069  0.81970  Biso   1.000  N
  H59      1.0000 0.26323  0.14659  0.77200  Biso   1.000  H
  H60      1.0000 0.34320  0.11711  0.79739  Biso   1.000  H
  N11      1.0000 0.23126  0.08069  0.81970  Biso   1.000  N
  H61      1.0000 0.26316  0.14659  0.77200  Biso   1.000  H
  H62      1.0000 0.18520  0.27131  0.79211  Biso   1.000  H
  C90      1.0000 0.22223  0.63418  0.09235  Biso   1.000  C
  C91      1.0000 0.34742  0.65500  0.13599  Biso   1.000  C
  C92      1.0000 0.22217  0.63418  0.09235  Biso   1.000  C
  H63      1.0000 0.25011  0.55533  0.19231  Biso   1.000  H
  H64      1.0000 0.20097  0.52469  0.17511  Biso   1.000  H
  C93      1.0000 0.94813  0.24650  0.12085  Biso   1.000  C
  C94      1.0000 0.94807  0.24650  0.12085  Biso   1.000  C
  C95      1.0000 0.00414  0.15770  0.07820  Biso   1.000  C
  C96      1.0000 0.00408  0.15770  0.07820  Biso   1.000  C
  C97      1.0000 0.85401  0.28328  0.83389  Biso   1.000  C
  C98      1.0000 0.78781  0.39959  0.80621  Biso   1.000  C
  C99      1.0000 0.84709  0.27100  0.83569  Biso   1.000  C
  C100     1.0000 0.82822  0.42520  0.82040  Biso   1.000  C
  C101     1.0000 0.16423  0.04808  0.80310  Biso   1.000  C
  C102     1.0000 0.25219  0.05981  0.85719  Biso   1.000  C
  C103     1.0000 0.16416  0.04808  0.80310  Biso   1.000  C
  C104     1.0000 0.20531  0.01308  0.79800  Biso   1.000  C
  C105     1.0000 0.20610  0.08389  0.85559  Biso   1.000  C
  N12      1.0000 0.26318  0.62528  0.05788  Biso   1.000  N
  C106     1.0000 0.13392  0.62362  0.08461  Biso   1.000  C
  N13      1.0000 0.40880  0.64959  0.10863  Biso   1.000  N
  C107     1.0000 0.38444  0.67361  0.17345  Biso   1.000  C
  C108     1.0000 0.38438  0.67361  0.17345  Biso   1.000  C
  H65      1.0000 0.94382  0.30079  0.13060  Biso   1.000  H
  C109     1.0000 0.90482  0.18171  0.13834  Biso   1.000  C
  C110     1.0000 0.96050  0.09261  0.09421  Biso   1.000  C
  H66      1.0000 0.04162  0.14781  0.05759  Biso   1.000  H
  H67      1.0000 0.86401  0.24932  0.85591  Biso   1.000  H
  C111     1.0000 0.90030  0.26941  0.80139  Biso   1.000  C
  H68      1.0000 0.82861  0.22163  0.84741  Biso   1.000  H
  C112     1.0000 0.92009  0.28003  0.80720  Biso   1.000  C
  C113     1.0000 0.83789  0.38842  0.77380  Biso   1.000  C
  H69      1.0000 0.75001  0.44467  0.80769  Biso   1.000  H
  C114     1.0000 0.89099  0.42262  0.79179  Biso   1.000  C
  H70      1.0000 0.79909  0.47531  0.82489  Biso   1.000  H
  C115     1.0000 0.11739  0.98938  0.82095  Biso   1.000  C
  C116     1.0000 0.16076  0.95020  0.81329  Biso   1.000  C
  H71      1.0000 0.14763  0.06577  0.77780  Biso   1.000  H
  H72      1.0000 0.14757  0.06577  0.77780  Biso   1.000  H
  H73      1.0000 0.29909  0.08542  0.86990  Biso   1.000  H
  C117     1.0000 0.20569  0.00178  0.87669  Biso   1.000  C
  C118     1.0000 0.16407  0.02198  0.87361  Biso   1.000  C
  H74      1.0000 0.21926  0.01069  0.77130  Biso   1.000  H
  H75      1.0000 0.21729  0.13252  0.87001  Biso   1.000  H
  C119     1.0000 0.20519  0.60691  0.02901  Biso   1.000  C
  H76      1.0000 0.32422  0.63602  0.05400  Biso   1.000  H
  C120     1.0000 0.12349  0.60710  0.04622  Biso   1.000  C
  H77      1.0000 0.09034  0.62730  0.10300  Biso   1.000  H
  H78      1.0000 0.09027  0.62730  0.10300  Biso   1.000  H
  C121     1.0000 0.48329  0.66347  0.12787  Biso   1.000  C
  H79      1.0000 0.35532  0.68122  0.19701  Biso   1.000  H
  C122     1.0000 0.46822  0.67803  0.16875  Biso   1.000  C
  H80      1.0000 0.87164  0.19270  0.16039  Biso   1.000  H
  C123     1.0000 0.90901  0.10440  0.12488  Biso   1.000  C
  H81      1.0000 0.87158  0.19270  0.16039  Biso   1.000  H
  H82      1.0000 0.96654  0.03918  0.08359  Biso   1.000  H
  H83      1.0000 0.96648  0.03918  0.08359  Biso   1.000  H
  C124     1.0000 0.89293  0.32388  0.77119  Biso   1.000  C
  C125     1.0000 0.96150  0.19829  0.79962  Biso   1.000  C
  C126     1.0000 0.89287  0.32388  0.77119  Biso   1.000  C
  C127     1.0000 0.93593  0.34899  0.78680  Biso   1.000  C
  H84      1.0000 0.83357  0.42662  0.75300  Biso   1.000  H
  H85      1.0000 0.90240  0.46942  0.77629  Biso   1.000  H
  C128     1.0000 0.13869  0.96272  0.85687  Biso   1.000  C
  H86      1.0000 0.06928  0.96702  0.80789  Biso   1.000  H
  H87      1.0000 0.14451  0.90291  0.79881  Biso   1.000  H
  H88      1.0000 0.21881  0.98870  0.90300  Biso   1.000  H
  H89      1.0000 0.15531  0.02622  0.90059  Biso   1.000  H
  C129     1.0000 0.22272  0.58732  0.99051  Biso   1.000  C
  H90      1.0000 0.07120  0.59740  0.03299  Biso   1.000  H
  C130     1.0000 0.56435  0.66581  0.11156  Biso   1.000  C
  C131     1.0000 0.56428  0.66581  0.11156  Biso   1.000  C
  H91      1.0000 0.50985  0.68853  0.18839  Biso   1.000  H
  H92      1.0000 0.50978  0.68853  0.18839  Biso   1.000  H
  C132     1.0000 0.86144  0.03728  0.14313  Biso   1.000  C
  C133     1.0000 0.86138  0.03728  0.14313  Biso   1.000  C
  H93      1.0000 0.92557  0.31700  0.74859  Biso   1.000  H
  H94      1.0000 0.92557  0.31700  0.74861  Biso   1.000  H
  N14      1.0000 0.91101  0.12233  0.80476  Biso   1.000  N
  H95      1.0000 0.98978  0.19749  0.77429  Biso   1.000  H
  H96      1.0000 0.98149  0.19891  0.77261  Biso   1.000  H
  H97      1.0000 0.00521  0.20308  0.82051  Biso   1.000  H
  H98      1.0000 0.01210  0.19442  0.81689  Biso   1.000  H
  H99      1.0000 0.97939  0.34758  0.76840  Biso   1.000  H
  C134     1.0000 0.09112  0.89560  0.87512  Biso   1.000  C
  C135     1.0000 0.30394  0.58223  0.97499  Biso   1.000  C
  C136     1.0000 0.14790  0.57363  0.96460  Biso   1.000  C
  C137     1.0000 0.30387  0.58223  0.97499  Biso   1.000  C
  C138     1.0000 0.58160  0.65402  0.07262  Biso   1.000  C
  C139     1.0000 0.63751  0.68398  0.13843  Biso   1.000  C
  C140     1.0000 0.88273  0.01062  0.17905  Biso   1.000  C
  C141     1.0000 0.83931  0.04980  0.18671  Biso   1.000  C
  C142     1.0000 0.79443  0.99822  0.12331  Biso   1.000  C
  C143     1.0000 0.79437  0.99822  0.12331  Biso   1.000  C
  C144     1.0000 0.83599  0.97802  0.12639  Biso   1.000  C
  C145     1.0000 0.92354  0.07738  0.83723  Biso   1.000  C
  C146     1.0000 0.84952  0.10341  0.77786  Biso   1.000  C
  C147     1.0000 0.92348  0.07738  0.83726  Biso   1.000  C
  C148     1.0000 0.84946  0.10341  0.77786  Biso   1.000  C
  C149     1.0000 0.09531  0.81829  0.86166  Biso   1.000  C
  C150     1.0000 0.03962  0.90739  0.90579  Biso   1.000  C
  N15      1.0000 0.37856  0.59942  0.99428  Biso   1.000  N
  C151     1.0000 0.31950  0.55987  0.93518  Biso   1.000  C
  N16      1.0000 0.37849  0.59942  0.99428  Biso   1.000  N
  C152     1.0000 0.13251  0.49742  0.94725  Biso   1.000  C
  C153     1.0000 0.09031  0.63731  0.95781  Biso   1.000  C
  N17      1.0000 0.52463  0.63111  0.04410  Biso   1.000  N
  C154     1.0000 0.66118  0.66618  0.05466  Biso   1.000  C
  N18      1.0000 0.52457  0.63111  0.04410  Biso   1.000  N
  C155     1.0000 0.64425  0.76038  0.15578  Biso   1.000  C
  C156     1.0000 0.69673  0.62429  0.14754  Biso   1.000  C
  C157     1.0000 0.64418  0.76038  0.15578  Biso   1.000  C
  H100     1.0000 0.93085  0.03298  0.19211  Biso   1.000  H
  H101     1.0000 0.93078  0.03298  0.19211  Biso   1.000  H
  C158     1.0000 0.83590  0.95192  0.19690  Biso   1.000  C
  C159     1.0000 0.79481  0.98692  0.20200  Biso   1.000  C
  H102     1.0000 0.85562  0.09709  0.20119  Biso   1.000  H
  H103     1.0000 0.78132  0.01130  0.09700  Biso   1.000  H
  C160     1.0000 0.74794  0.94019  0.14281  Biso   1.000  C
  C161     1.0000 0.74787  0.94019  0.14281  Biso   1.000  C
  C162     1.0000 0.79403  0.91611  0.14441  Biso   1.000  C
  H104     1.0000 0.84481  0.97378  0.09941  Biso   1.000  H
  H105     1.0000 0.96668  0.09150  0.85559  Biso   1.000  H
  C163     1.0000 0.87182  0.01050  0.84306  Biso   1.000  C
  C164     1.0000 0.79784  0.03703  0.78320  Biso   1.000  C
  H106     1.0000 0.84253  0.13639  0.75529  Biso   1.000  H
  C165     1.0000 0.79777  0.03703  0.78320  Biso   1.000  C
  H107     1.0000 0.84246  0.13639  0.75529  Biso   1.000  H
  C166     1.0000 0.05199  0.75350  0.87915  Biso   1.000  C
  H108     1.0000 0.12848  0.80730  0.83961  Biso   1.000  H
  C167     1.0000 0.99605  0.84230  0.92180  Biso   1.000  C
  C168     1.0000 0.99598  0.84230  0.92180  Biso   1.000  C
  H109     1.0000 0.03359  0.96082  0.91641  Biso   1.000  H
  C169     1.0000 0.44034  0.59138  0.96745  Biso   1.000  C
  C170     1.0000 0.44028  0.59138  0.96745  Biso   1.000  C
  C171     1.0000 0.40392  0.56497  0.93057  Biso   1.000  C
  H110     1.0000 0.27853  0.54458  0.91600  Biso   1.000  H
  H111     1.0000 0.27847  0.54458  0.91600  Biso   1.000  H
  H112     1.0000 0.17053  0.45290  0.95149  Biso   1.000  H
  C172     1.0000 0.06110  0.48760  0.92384  Biso   1.000  C
  H113     1.0000 0.17047  0.45290  0.95149  Biso   1.000  H
  C173     1.0000 0.06110  0.48760  0.92386  Biso   1.000  C
  C174     1.0000 0.01989  0.62730  0.93417  Biso   1.000  C
  H114     1.0000 0.10012  0.68902  0.96980  Biso   1.000  H
  H115     1.0000 0.46373  0.63400  0.04811  Biso   1.000  H
  C175     1.0000 0.56480  0.62908  0.00908  Biso   1.000  C
  H116     1.0000 0.46367  0.63400  0.04811  Biso   1.000  H
  H117     1.0000 0.71250  0.68122  0.06749  Biso   1.000  H
  C176     1.0000 0.65063  0.65279  0.01634  Biso   1.000  C
  C177     1.0000 0.65056  0.65279  0.01634  Biso   1.000  C
  H118     1.0000 0.60374  0.80183  0.14980  Biso   1.000  H
  C178     1.0000 0.71005  0.77677  0.18192  Biso   1.000  C
  H119     1.0000 0.60368  0.80183  0.14980  Biso   1.000  H
  C179     1.0000 0.70999  0.77677  0.18192  Biso   1.000  C
  C180     1.0000 0.76250  0.64063  0.17293  Biso   1.000  C
  H120     1.0000 0.69181  0.57142  0.13611  Biso   1.000  H
  N19      1.0000 0.76880  0.91931  0.18030  Biso   1.000  N
  H121     1.0000 0.85256  0.93423  0.22220  Biso   1.000  H
  H122     1.0000 0.85250  0.93423  0.22220  Biso   1.000  H
  H123     1.0000 0.78080  0.98931  0.22870  Biso   1.000  H
  H124     1.0000 0.70104  0.91458  0.13010  Biso   1.000  H
  H125     1.0000 0.70097  0.91458  0.13010  Biso   1.000  H
  H126     1.0000 0.78283  0.86748  0.12999  Biso   1.000  H
  H127     1.0000 0.87940  0.97863  0.86589  Biso   1.000  H
  C181     1.0000 0.80921  0.98858  0.81645  Biso   1.000  C
  H128     1.0000 0.75481  0.02401  0.76460  Biso   1.000  H
  N20      1.0000 0.00552  0.76941  0.90927  Biso   1.000  N
  H129     1.0000 0.05631  0.69921  0.86940  Biso   1.000  H
  H130     1.0000 0.95851  0.85219  0.94241  Biso   1.000  H
  C182     1.0000 0.52660  0.60949  0.97334  Biso   1.000  C
  H131     1.0000 0.43364  0.55349  0.90759  Biso   1.000  H
  H132     1.0000 0.43358  0.55349  0.90759  Biso   1.000  H
  H133     1.0000 0.05004  0.43589  0.91211  Biso   1.000  H
  C183     1.0000 0.00510  0.55251  0.91725  Biso   1.000  C
  H134     1.0000 0.04997  0.43589  0.91211  Biso   1.000  H
  C184     1.0000 0.95973  0.69829  0.92769  Biso   1.000  C
  C185     1.0000 0.95967  0.69829  0.92769  Biso   1.000  C
  H135     1.0000 0.69305  0.65819  0.99739  Biso   1.000  H
  H136     1.0000 0.69298  0.65819  0.99739  Biso   1.000  H
  C186     1.0000 0.76930  0.71733  0.19028  Biso   1.000  C
  C187     1.0000 0.71461  0.86011  0.20110  Biso   1.000  C
  H137     1.0000 0.80331  0.59930  0.17870  Biso   1.000  H
  C188     1.0000 0.75199  0.91998  0.82330  Biso   1.000  C
  C189     1.0000 0.58060  0.61232  0.93840  Biso   1.000  C
  H138     1.0000 0.95663  0.54471  0.90091  Biso   1.000  H
  H139     1.0000 0.95657  0.54471  0.90091  Biso   1.000  H
  H140     1.0000 0.93675  0.71579  0.95291  Biso   1.000  H
  H141     1.0000 0.91205  0.68073  0.91060  Biso   1.000  H
  H142     1.0000 0.93668  0.71579  0.95291  Biso   1.000  H
  H143     1.0000 0.91198  0.68073  0.91060  Biso   1.000  H
  H144     1.0000 0.81492  0.72869  0.20789  Biso   1.000  H
  H145     1.0000 0.73690  0.85341  0.22800  Biso   1.000  H
  H146     1.0000 0.65693  0.88289  0.20261  Biso   1.000  H
  C190     1.0000 0.73163  0.89671  0.86064  Biso   1.000  C
  C191     1.0000 0.71658  0.87583  0.79292  Biso   1.000  C
  C192     1.0000 0.73156  0.89671  0.86064  Biso   1.000  C
  C193     1.0000 0.65252  0.56417  0.93518  Biso   1.000  C
  C194     1.0000 0.55909  0.66630  0.90828  Biso   1.000  C
  H147     1.0000 0.75574  0.92508  0.88229  Biso   1.000  H
  C195     1.0000 0.67851  0.83481  0.86636  Biso   1.000  C
  H148     1.0000 0.75568  0.92508  0.88229  Biso   1.000  H
  C196     1.0000 0.66169  0.81338  0.79965  Biso   1.000  C
  H149     1.0000 0.73069  0.88909  0.76701  Biso   1.000  H
  H150     1.0000 0.66805  0.52751  0.95549  Biso   1.000  H
  C197     1.0000 0.70202  0.56939  0.90239  Biso   1.000  C
  H151     1.0000 0.66799  0.52751  0.95549  Biso   1.000  H
  C198     1.0000 0.60814  0.67121  0.87526  Biso   1.000  C
  H152     1.0000 0.51053  0.70007  0.91029  Biso   1.000  H
  C199     1.0000 0.60807  0.67121  0.87526  Biso   1.000  C
  H153     1.0000 0.51053  0.70007  0.91031  Biso   1.000  H
  N21      1.0000 0.64300  0.79397  0.83638  Biso   1.000  N
  H154     1.0000 0.66553  0.81921  0.89209  Biso   1.000  H
  H155     1.0000 0.63678  0.78390  0.77859  Biso   1.000  H
  H156     1.0000 0.75129  0.53660  0.90059  Biso   1.000  H
  C200     1.0000 0.67912  0.62270  0.87228  Biso   1.000  C
  C201     1.0000 0.58003  0.72802  0.84315  Biso   1.000  C
  C202     1.0000 0.57996  0.72802  0.84315  Biso   1.000  C
  H157     1.0000 0.71240  0.62571  0.84970  Biso   1.000  H
  H158     1.0000 0.52538  0.75332  0.84979  Biso   1.000  H
  H159     1.0000 0.57132  0.69602  0.81900  Biso   1.000  H
  C203     1.0000 0.42010  0.27198  0.15685  Biso   1.000  C
  N22      1.0000 0.35713  0.20603  0.16362  Biso   1.000  N
  H160     1.0000 0.42881  0.30398  0.18100  Biso   1.000  H
  C204     1.0000 0.39199  0.32879  0.12474  Biso   1.000  C
  H161     1.0000 0.47475  0.24668  0.15021  Biso   1.000  H
  H162     1.0000 0.47468  0.24668  0.15021  Biso   1.000  H
  C205     1.0000 0.33838  0.18662  0.20035  Biso   1.000  C
  C206     1.0000 0.32161  0.16519  0.13364  Biso   1.000  C
  C207     1.0000 0.33844  0.18662  0.20035  Biso   1.000  C
  C208     1.0000 0.32100  0.37730  0.12772  Biso   1.000  C
  C209     1.0000 0.44103  0.33370  0.09172  Biso   1.000  C
  C210     1.0000 0.44097  0.33370  0.09175  Biso   1.000  C
  H163     1.0000 0.36335  0.21610  0.22141  Biso   1.000  H
  C211     1.0000 0.28355  0.12417  0.20708  Biso   1.000  C
  H164     1.0000 0.36328  0.21610  0.22141  Biso   1.000  H
  C212     1.0000 0.28348  0.12417  0.20708  Biso   1.000  C
  C213     1.0000 0.26850  0.10329  0.13936  Biso   1.000  C
  H165     1.0000 0.33460  0.18079  0.10791  Biso   1.000  H
  C214     1.0000 0.29811  0.43061  0.09761  Biso   1.000  C
  H166     1.0000 0.28773  0.37429  0.15030  Biso   1.000  H
  H167     1.0000 0.48960  0.29993  0.08971  Biso   1.000  H
  C215     1.0000 0.41953  0.38768  0.06160  Biso   1.000  C
  C216     1.0000 0.41946  0.38768  0.06160  Biso   1.000  C
  H168     1.0000 0.26943  0.11091  0.23299  Biso   1.000  H
  C217     1.0000 0.24814  0.08002  0.17670  Biso   1.000  C
  C218     1.0000 0.24808  0.08002  0.17670  Biso   1.000  C
  H169     1.0000 0.24445  0.07492  0.11771  Biso   1.000  H
  H170     1.0000 0.24438  0.07492  0.11771  Biso   1.000  H
  C219     1.0000 0.34760  0.43583  0.06482  Biso   1.000  C
  H171     1.0000 0.24884  0.46340  0.09941  Biso   1.000  H
  H172     1.0000 0.24878  0.46340  0.09941  Biso   1.000  H
  C220     1.0000 0.47352  0.39051  0.02666  Biso   1.000  C
  C221     1.0000 0.47346  0.39051  0.02666  Biso   1.000  C
  C222     1.0000 0.19091  0.01142  0.18355  Biso   1.000  C
  H173     1.0000 0.33214  0.47249  0.04451  Biso   1.000  H
  H174     1.0000 0.33208  0.47249  0.04451  Biso   1.000  H
  C223     1.0000 0.55978  0.40862  0.03255  Biso   1.000  C
  C224     1.0000 0.43532  0.37092  0.99092  Biso   1.000  C
  C225     1.0000 0.12830  0.98950  0.15694  Biso   1.000  C
  C226     1.0000 0.20235  0.96297  0.21680  Biso   1.000  C
  C227     1.0000 0.20229  0.96297  0.21680  Biso   1.000  C
  C228     1.0000 0.59621  0.43503  0.06943  Biso   1.000  C
  N23      1.0000 0.62163  0.40058  0.00572  Biso   1.000  N
  N24      1.0000 0.62157  0.40058  0.00572  Biso   1.000  N
  N25      1.0000 0.47549  0.36889  0.95590  Biso   1.000  N
  C229     1.0000 0.34950  0.34721  0.98366  Biso   1.000  C
  H175     1.0000 0.12073  0.02137  0.13411  Biso   1.000  H
  H176     1.0000 0.12066  0.02137  0.13411  Biso   1.000  H
  C230     1.0000 0.07665  0.92262  0.16277  Biso   1.000  C
  C231     1.0000 0.07658  0.92262  0.16277  Biso   1.000  C
  H177     1.0000 0.24532  0.97599  0.23540  Biso   1.000  H
  C232     1.0000 0.15061  0.89659  0.22214  Biso   1.000  C
  H178     1.0000 0.56649  0.44651  0.09241  Biso   1.000  H
  C233     1.0000 0.68062  0.44013  0.06482  Biso   1.000  C
  C234     1.0000 0.69619  0.41777  0.02501  Biso   1.000  C
  H179     1.0000 0.53639  0.36600  0.95189  Biso   1.000  H
  C235     1.0000 0.41853  0.34598  0.92738  Biso   1.000  C
  H180     1.0000 0.30708  0.34181  0.00261  Biso   1.000  H
  C236     1.0000 0.33895  0.33382  0.94534  Biso   1.000  C
  C237     1.0000 0.33888  0.33382  0.94536  Biso   1.000  C
  N26      1.0000 0.08912  0.87767  0.19524  Biso   1.000  N
  H181     1.0000 0.03344  0.90850  0.14441  Biso   1.000  H
  H182     1.0000 0.03338  0.90850  0.14441  Biso   1.000  H
  H183     1.0000 0.15760  0.86361  0.24471  Biso   1.000  H
  H184     1.0000 0.72159  0.45542  0.08400  Biso   1.000  H
  C238     1.0000 0.77741  0.41268  0.00949  Biso   1.000  C
  C239     1.0000 0.43584  0.33419  0.88844  Biso   1.000  C
  C240     1.0000 0.43578  0.33419  0.88844  Biso   1.000  C
  H185     1.0000 0.28762  0.31878  0.93251  Biso   1.000  H
  C241     1.0000 0.03862  0.80171  0.20038  Biso   1.000  C
  C242     1.0000 0.85223  0.42637  0.03540  Biso   1.000  C
  C243     1.0000 0.85217  0.42637  0.03540  Biso   1.000  C
  C244     1.0000 0.79493  0.39309  0.97099  Biso   1.000  C
  C245     1.0000 0.51684  0.33653  0.87213  Biso   1.000  C
  C246     1.0000 0.36261  0.31602  0.86157  Biso   1.000  C
  C247     1.0000 0.51677  0.33653  0.87213  Biso   1.000  C
  H186     1.0000 0.99492  0.79692  0.17949  Biso   1.000  H
  H187     1.0000 0.99492  0.79692  0.17952  Biso   1.000  H
  H188     1.0000 0.98803  0.80558  0.18311  Biso   1.000  H
  C248     1.0000 0.09983  0.73059  0.19861  Biso   1.000  C
  H189     1.0000 0.01034  0.80251  0.22571  Biso   1.000  H
  H190     1.0000 0.01028  0.80251  0.22571  Biso   1.000  H
  C249     1.0000 0.08003  0.71997  0.19280  Biso   1.000  C
  H191     1.0000 0.01863  0.80109  0.22739  Biso   1.000  H
  C250     1.0000 0.86761  0.50258  0.05275  Biso   1.000  C
  C251     1.0000 0.90982  0.36269  0.04219  Biso   1.000  C
  N27      1.0000 0.73694  0.37472  0.94212  Biso   1.000  N
  C252     1.0000 0.87664  0.39290  0.95378  Biso   1.000  C
  N28      1.0000 0.73688  0.37472  0.94212  Biso   1.000  N
  C253     1.0000 0.87657  0.39290  0.95378  Biso   1.000  C
  N29      1.0000 0.59133  0.35041  0.89137  Biso   1.000  N
  C254     1.0000 0.53191  0.32197  0.83125  Biso   1.000  C
  C255     1.0000 0.35588  0.23962  0.84422  Biso   1.000  C
  C256     1.0000 0.30340  0.37571  0.85246  Biso   1.000  C
  C257     1.0000 0.14612  0.71672  0.16611  Biso   1.000  C
  C258     1.0000 0.10720  0.67612  0.22881  Biso   1.000  C
  C259     1.0000 0.15297  0.72900  0.16431  Biso   1.000  C
  C260     1.0000 0.06419  0.65101  0.21320  Biso   1.000  C
  H192     1.0000 0.82959  0.54710  0.04851  Biso   1.000  H
  C261     1.0000 0.93903  0.51240  0.07616  Biso   1.000  C
  C262     1.0000 0.93897  0.51240  0.07616  Biso   1.000  C
  H193     1.0000 0.90001  0.31098  0.03020  Biso   1.000  H
  C263     1.0000 0.98024  0.37270  0.06583  Biso   1.000  C
  C264     1.0000 0.98017  0.37270  0.06583  Biso   1.000  C
  C265     1.0000 0.77790  0.36582  0.90765  Biso   1.000  C
  H194     1.0000 0.67591  0.36398  0.94600  Biso   1.000  H
  H195     1.0000 0.92893  0.40260  0.96701  Biso   1.000  H
  C266     1.0000 0.86621  0.37638  0.91539  Biso   1.000  C
  C267     1.0000 0.65271  0.34500  0.86401  Biso   1.000  C
  C268     1.0000 0.61568  0.32639  0.82655  Biso   1.000  C
  H196     1.0000 0.49028  0.31147  0.81161  Biso   1.000  H
  H197     1.0000 0.39639  0.19817  0.85020  Biso   1.000  H
  C269     1.0000 0.29014  0.22323  0.81808  Biso   1.000  C
  C270     1.0000 0.29007  0.22323  0.81808  Biso   1.000  C
  C271     1.0000 0.23763  0.35937  0.82707  Biso   1.000  C
  H198     1.0000 0.30832  0.42858  0.86389  Biso   1.000  H
  C272     1.0000 0.23756  0.35937  0.82707  Biso   1.000  C
  C273     1.0000 0.20514  0.65709  0.16379  Biso   1.000  C
  H199     1.0000 0.13612  0.75068  0.14409  Biso   1.000  H
  C274     1.0000 0.20508  0.65709  0.16379  Biso   1.000  C
  C275     1.0000 0.19099  0.64198  0.15839  Biso   1.000  C
  H200     1.0000 0.17151  0.77837  0.15259  Biso   1.000  H
  H201     1.0000 0.07455  0.68300  0.25141  Biso   1.000  H
  C276     1.0000 0.16223  0.61158  0.22620  Biso   1.000  C
  H202     1.0000 0.07449  0.68300  0.25141  Biso   1.000  H
  C277     1.0000 0.10908  0.57738  0.20821  Biso   1.000  C
  H203     1.0000 0.02074  0.65242  0.23160  Biso   1.000  H
  H204     1.0000 0.95009  0.56411  0.08789  Biso   1.000  H
  C278     1.0000 0.99503  0.44749  0.08275  Biso   1.000  C
  H205     1.0000 0.95009  0.56411  0.08792  Biso   1.000  H
  C279     1.0000 0.99496  0.44749  0.08275  Biso   1.000  C
  C280     1.0000 0.04040  0.30171  0.07231  Biso   1.000  C
  C281     1.0000 0.74049  0.35237  0.87138  Biso   1.000  C
  H206     1.0000 0.90979  0.37270  0.89700  Biso   1.000  H
  H207     1.0000 0.64481  0.31878  0.80299  Biso   1.000  H
  C282     1.0000 0.28552  0.13989  0.79890  Biso   1.000  C
  C283     1.0000 0.23083  0.28267  0.80972  Biso   1.000  C
  C284     1.0000 0.28546  0.13989  0.79890  Biso   1.000  C
  C285     1.0000 0.23077  0.28267  0.80972  Biso   1.000  C
  H208     1.0000 0.19682  0.40070  0.82130  Biso   1.000  H
  C286     1.0000 0.25963  0.64763  0.12862  Biso   1.000  C
  C287     1.0000 0.21232  0.60041  0.19379  Biso   1.000  C
  C288     1.0000 0.25957  0.64763  0.12862  Biso   1.000  C
  C289     1.0000 0.17191  0.57480  0.17960  Biso   1.000  C
  H209     1.0000 0.16655  0.57338  0.24700  Biso   1.000  H
  H210     1.0000 0.16649  0.57338  0.24700  Biso   1.000  H
  H211     1.0000 0.09773  0.53058  0.22371  Biso   1.000  H
  H212     1.0000 0.04350  0.45529  0.09909  Biso   1.000  H
  H213     1.0000 0.04350  0.45529  0.09912  Biso   1.000  H
  N30      1.0000 0.99460  0.23059  0.09073  Biso   1.000  N
  H214     1.0000 0.06344  0.28421  0.04709  Biso   1.000  H
  H215     1.0000 0.08814  0.31927  0.08940  Biso   1.000  H
  H216     1.0000 0.06338  0.28421  0.04709  Biso   1.000  H
  H217     1.0000 0.08808  0.31927  0.08940  Biso   1.000  H
  C290     1.0000 0.79498  0.34291  0.83621  Biso   1.000  C
  C291     1.0000 0.80914  0.35802  0.84161  Biso   1.000  C
  N31      1.0000 0.23133  0.08069  0.81970  Biso   1.000  N
  H218     1.0000 0.26323  0.14659  0.77200  Biso   1.000  H
  H219     1.0000 0.34320  0.11711  0.79739  Biso   1.000  H
  N32      1.0000 0.23126  0.08069  0.81970  Biso   1.000  N
  H220     1.0000 0.26316  0.14659  0.77200  Biso   1.000  H
  H221     1.0000 0.18520  0.27131  0.79211  Biso   1.000  H
  C292     1.0000 0.22223  0.63418  0.09235  Biso   1.000  C
  C293     1.0000 0.34742  0.65500  0.13599  Biso   1.000  C
  C294     1.0000 0.22217  0.63418  0.09235  Biso   1.000  C
  H222     1.0000 0.25011  0.55533  0.19231  Biso   1.000  H
  H223     1.0000 0.20097  0.52469  0.17511  Biso   1.000  H
  C295     1.0000 0.94813  0.24650  0.12085  Biso   1.000  C
  C296     1.0000 0.94807  0.24650  0.12085  Biso   1.000  C
  C297     1.0000 0.00414  0.15770  0.07820  Biso   1.000  C
  C298     1.0000 0.00408  0.15770  0.07820  Biso   1.000  C
  C299     1.0000 0.85401  0.28328  0.83389  Biso   1.000  C
  C300     1.0000 0.78781  0.39959  0.80621  Biso   1.000  C
  C301     1.0000 0.84709  0.27100  0.83569  Biso   1.000  C
  C302     1.0000 0.82822  0.42520  0.82040  Biso   1.000  C
  C303     1.0000 0.16423  0.04808  0.80310  Biso   1.000  C
  C304     1.0000 0.25219  0.05981  0.85719  Biso   1.000  C
  C305     1.0000 0.16416  0.04808  0.80310  Biso   1.000  C
  C306     1.0000 0.20531  0.01308  0.79800  Biso   1.000  C
  C307     1.0000 0.20610  0.08389  0.85559  Biso   1.000  C
  N33      1.0000 0.26318  0.62528  0.05788  Biso   1.000  N
  C308     1.0000 0.13392  0.62362  0.08461  Biso   1.000  C
  N34      1.0000 0.40880  0.64959  0.10863  Biso   1.000  N
  C309     1.0000 0.38444  0.67361  0.17345  Biso   1.000  C
  C310     1.0000 0.38438  0.67361  0.17345  Biso   1.000  C
  H224     1.0000 0.94382  0.30079  0.13060  Biso   1.000  H
  C311     1.0000 0.90482  0.18171  0.13834  Biso   1.000  C
  C312     1.0000 0.96050  0.09261  0.09421  Biso   1.000  C
  H225     1.0000 0.04162  0.14781  0.05759  Biso   1.000  H
  H226     1.0000 0.86401  0.24932  0.85591  Biso   1.000  H
  C313     1.0000 0.90030  0.26941  0.80139  Biso   1.000  C
  H227     1.0000 0.82861  0.22163  0.84741  Biso   1.000  H
  C314     1.0000 0.92009  0.28003  0.80720  Biso   1.000  C
  C315     1.0000 0.83789  0.38842  0.77380  Biso   1.000  C
  H228     1.0000 0.75001  0.44467  0.80769  Biso   1.000  H
  C316     1.0000 0.89099  0.42262  0.79179  Biso   1.000  C
  H229     1.0000 0.79909  0.47531  0.82489  Biso   1.000  H
  C317     1.0000 0.11739  0.98938  0.82095  Biso   1.000  C
  C318     1.0000 0.16076  0.95020  0.81329  Biso   1.000  C
  H230     1.0000 0.14763  0.06577  0.77780  Biso   1.000  H
  H231     1.0000 0.14757  0.06577  0.77780  Biso   1.000  H
  H232     1.0000 0.29909  0.08542  0.86990  Biso   1.000  H
  C319     1.0000 0.20569  0.00178  0.87669  Biso   1.000  C
  C320     1.0000 0.16407  0.02198  0.87361  Biso   1.000  C
  H233     1.0000 0.21926  0.01069  0.77130  Biso   1.000  H
  H234     1.0000 0.21729  0.13252  0.87001  Biso   1.000  H
  C321     1.0000 0.20519  0.60691  0.02901  Biso   1.000  C
  H235     1.0000 0.32422  0.63602  0.05400  Biso   1.000  H
  C322     1.0000 0.12349  0.60710  0.04622  Biso   1.000  C
  H236     1.0000 0.09034  0.62730  0.10300  Biso   1.000  H
  H237     1.0000 0.09027  0.62730  0.10300  Biso   1.000  H
  C323     1.0000 0.48329  0.66347  0.12787  Biso   1.000  C
  H238     1.0000 0.35532  0.68122  0.19701  Biso   1.000  H
  C324     1.0000 0.46822  0.67803  0.16875  Biso   1.000  C
  C325     1.0000 0.90901  0.10440  0.12488  Biso   1.000  C
  H239     1.0000 0.87164  0.19270  0.16039  Biso   1.000  H
  H240     1.0000 0.87158  0.19270  0.16039  Biso   1.000  H
  H241     1.0000 0.96654  0.03918  0.08359  Biso   1.000  H
  H242     1.0000 0.96648  0.03918  0.08359  Biso   1.000  H
  C326     1.0000 0.89293  0.32388  0.77119  Biso   1.000  C
  C327     1.0000 0.96150  0.19829  0.79962  Biso   1.000  C
  C328     1.0000 0.89287  0.32388  0.77119  Biso   1.000  C
  C329     1.0000 0.93593  0.34899  0.78680  Biso   1.000  C
  H243     1.0000 0.83357  0.42662  0.75300  Biso   1.000  H
  H244     1.0000 0.90240  0.46942  0.77629  Biso   1.000  H
  C330     1.0000 0.13869  0.96272  0.85687  Biso   1.000  C
  H245     1.0000 0.06928  0.96702  0.80789  Biso   1.000  H
  H246     1.0000 0.14451  0.90291  0.79881  Biso   1.000  H
  H247     1.0000 0.21881  0.98870  0.90300  Biso   1.000  H
  H248     1.0000 0.15531  0.02622  0.90059  Biso   1.000  H
  C331     1.0000 0.22272  0.58732  0.99051  Biso   1.000  C
  H249     1.0000 0.07120  0.59740  0.03299  Biso   1.000  H
  C332     1.0000 0.56435  0.66581  0.11156  Biso   1.000  C
  C333     1.0000 0.56428  0.66581  0.11156  Biso   1.000  C
  H250     1.0000 0.50985  0.68853  0.18839  Biso   1.000  H
  H251     1.0000 0.50978  0.68853  0.18839  Biso   1.000  H
  C334     1.0000 0.86144  0.03728  0.14313  Biso   1.000  C
  C335     1.0000 0.86138  0.03728  0.14313  Biso   1.000  C
  H252     1.0000 0.92557  0.31700  0.74859  Biso   1.000  H
  H253     1.0000 0.92557  0.31700  0.74861  Biso   1.000  H
  N35      1.0000 0.91101  0.12233  0.80476  Biso   1.000  N
  H254     1.0000 0.98978  0.19749  0.77429  Biso   1.000  H
  H255     1.0000 0.98149  0.19891  0.77261  Biso   1.000  H
  H256     1.0000 0.00521  0.20308  0.82051  Biso   1.000  H
  H257     1.0000 0.01210  0.19442  0.81689  Biso   1.000  H
  H258     1.0000 0.97939  0.34758  0.76840  Biso   1.000  H
  C336     1.0000 0.09112  0.89560  0.87512  Biso   1.000  C
  C337     1.0000 0.30394  0.58223  0.97499  Biso   1.000  C
  C338     1.0000 0.14790  0.57363  0.96460  Biso   1.000  C
  C339     1.0000 0.30387  0.58223  0.97499  Biso   1.000  C
  C340     1.0000 0.58160  0.65402  0.07262  Biso   1.000  C
  C341     1.0000 0.63751  0.68398  0.13843  Biso   1.000  C
  C342     1.0000 0.88273  0.01062  0.17905  Biso   1.000  C
  C343     1.0000 0.79443  0.99822  0.12331  Biso   1.000  C
  C344     1.0000 0.79437  0.99822  0.12331  Biso   1.000  C
  C345     1.0000 0.83599  0.97802  0.12639  Biso   1.000  C
  C346     1.0000 0.83931  0.04980  0.18671  Biso   1.000  C
  C347     1.0000 0.92354  0.07738  0.83723  Biso   1.000  C
  C348     1.0000 0.84952  0.10341  0.77786  Biso   1.000  C
  C349     1.0000 0.92348  0.07738  0.83726  Biso   1.000  C
  C350     1.0000 0.84946  0.10341  0.77786  Biso   1.000  C
  C351     1.0000 0.09531  0.81829  0.86166  Biso   1.000  C
  C352     1.0000 0.03962  0.90739  0.90579  Biso   1.000  C
  N36      1.0000 0.37856  0.59942  0.99428  Biso   1.000  N
  C353     1.0000 0.31950  0.55987  0.93518  Biso   1.000  C
  N37      1.0000 0.37849  0.59942  0.99428  Biso   1.000  N
  C354     1.0000 0.13251  0.49742  0.94725  Biso   1.000  C
  C355     1.0000 0.09031  0.63731  0.95781  Biso   1.000  C
  N38      1.0000 0.52463  0.63111  0.04410  Biso   1.000  N
  C356     1.0000 0.66118  0.66618  0.05466  Biso   1.000  C
  N39      1.0000 0.52457  0.63111  0.04410  Biso   1.000  N
  C357     1.0000 0.64425  0.76038  0.15578  Biso   1.000  C
  C358     1.0000 0.69673  0.62429  0.14754  Biso   1.000  C
  C359     1.0000 0.64418  0.76038  0.15578  Biso   1.000  C
  H259     1.0000 0.93085  0.03298  0.19211  Biso   1.000  H
  H260     1.0000 0.93078  0.03298  0.19211  Biso   1.000  H
  C360     1.0000 0.83590  0.95192  0.19690  Biso   1.000  C
  C361     1.0000 0.79481  0.98692  0.20200  Biso   1.000  C
  H261     1.0000 0.78132  0.01130  0.09700  Biso   1.000  H
  C362     1.0000 0.74794  0.94019  0.14281  Biso   1.000  C
  C363     1.0000 0.74787  0.94019  0.14281  Biso   1.000  C
  C364     1.0000 0.79403  0.91611  0.14441  Biso   1.000  C
  H262     1.0000 0.84481  0.97378  0.09941  Biso   1.000  H
  H263     1.0000 0.85562  0.09709  0.20119  Biso   1.000  H
  H264     1.0000 0.96668  0.09150  0.85559  Biso   1.000  H
  C365     1.0000 0.87182  0.01050  0.84306  Biso   1.000  C
  C366     1.0000 0.79784  0.03703  0.78320  Biso   1.000  C
  H265     1.0000 0.84253  0.13639  0.75529  Biso   1.000  H
  C367     1.0000 0.79777  0.03703  0.78320  Biso   1.000  C
  H266     1.0000 0.84246  0.13639  0.75529  Biso   1.000  H
  C368     1.0000 0.05199  0.75350  0.87915  Biso   1.000  C
  H267     1.0000 0.12848  0.80730  0.83961  Biso   1.000  H
  C369     1.0000 0.99605  0.84230  0.92180  Biso   1.000  C
  C370     1.0000 0.99598  0.84230  0.92180  Biso   1.000  C
  H268     1.0000 0.03359  0.96082  0.91641  Biso   1.000  H
  C371     1.0000 0.44034  0.59138  0.96745  Biso   1.000  C
  C372     1.0000 0.44028  0.59138  0.96745  Biso   1.000  C
  C373     1.0000 0.40392  0.56497  0.93057  Biso   1.000  C
  H269     1.0000 0.27853  0.54458  0.91600  Biso   1.000  H
  H270     1.0000 0.27847  0.54458  0.91600  Biso   1.000  H
  H271     1.0000 0.17053  0.45290  0.95149  Biso   1.000  H
  C374     1.0000 0.06110  0.48760  0.92384  Biso   1.000  C
  H272     1.0000 0.17047  0.45290  0.95149  Biso   1.000  H
  C375     1.0000 0.06110  0.48760  0.92386  Biso   1.000  C
  C376     1.0000 0.01989  0.62730  0.93417  Biso   1.000  C
  H273     1.0000 0.10012  0.68902  0.96980  Biso   1.000  H
  H274     1.0000 0.46373  0.63400  0.04811  Biso   1.000  H
  C377     1.0000 0.56480  0.62908  0.00908  Biso   1.000  C
  H275     1.0000 0.46367  0.63400  0.04811  Biso   1.000  H
  H276     1.0000 0.71250  0.68122  0.06749  Biso   1.000  H
  C378     1.0000 0.65063  0.65279  0.01634  Biso   1.000  C
  C379     1.0000 0.65056  0.65279  0.01634  Biso   1.000  C
  H277     1.0000 0.60374  0.80183  0.14980  Biso   1.000  H
  C380     1.0000 0.71005  0.77677  0.18192  Biso   1.000  C
  H278     1.0000 0.60368  0.80183  0.14980  Biso   1.000  H
  C381     1.0000 0.70999  0.77677  0.18192  Biso   1.000  C
  C382     1.0000 0.76250  0.64063  0.17293  Biso   1.000  C
  H279     1.0000 0.69181  0.57142  0.13611  Biso   1.000  H
  N40      1.0000 0.76880  0.91931  0.18030  Biso   1.000  N
  H280     1.0000 0.85256  0.93423  0.22220  Biso   1.000  H
  H281     1.0000 0.85250  0.93423  0.22220  Biso   1.000  H
  H282     1.0000 0.78080  0.98931  0.22870  Biso   1.000  H
  H283     1.0000 0.70104  0.91458  0.13010  Biso   1.000  H
  H284     1.0000 0.70097  0.91458  0.13010  Biso   1.000  H
  H285     1.0000 0.78283  0.86748  0.12999  Biso   1.000  H
  H286     1.0000 0.87940  0.97863  0.86589  Biso   1.000  H
  C383     1.0000 0.80921  0.98858  0.81645  Biso   1.000  C
  H287     1.0000 0.75481  0.02401  0.76460  Biso   1.000  H
  N41      1.0000 0.00552  0.76941  0.90927  Biso   1.000  N
  H288     1.0000 0.05631  0.69921  0.86940  Biso   1.000  H
  H289     1.0000 0.95851  0.85219  0.94241  Biso   1.000  H
  C384     1.0000 0.52660  0.60949  0.97334  Biso   1.000  C
  H290     1.0000 0.43364  0.55349  0.90759  Biso   1.000  H
  H291     1.0000 0.43358  0.55349  0.90759  Biso   1.000  H
  H292     1.0000 0.05004  0.43589  0.91211  Biso   1.000  H
  C385     1.0000 0.00510  0.55251  0.91725  Biso   1.000  C
  H293     1.0000 0.04997  0.43589  0.91211  Biso   1.000  H
  C386     1.0000 0.95973  0.69829  0.92769  Biso   1.000  C
  C387     1.0000 0.95967  0.69829  0.92769  Biso   1.000  C
  H294     1.0000 0.69305  0.65819  0.99739  Biso   1.000  H
  H295     1.0000 0.69298  0.65819  0.99739  Biso   1.000  H
  C388     1.0000 0.76930  0.71733  0.19028  Biso   1.000  C
  C389     1.0000 0.71461  0.86011  0.20110  Biso   1.000  C
  H296     1.0000 0.80331  0.59930  0.17870  Biso   1.000  H
  C390     1.0000 0.75199  0.91998  0.82330  Biso   1.000  C
  C391     1.0000 0.58060  0.61232  0.93840  Biso   1.000  C
  H297     1.0000 0.95663  0.54471  0.90091  Biso   1.000  H
  H298     1.0000 0.95657  0.54471  0.90091  Biso   1.000  H
  H299     1.0000 0.93675  0.71579  0.95291  Biso   1.000  H
  H300     1.0000 0.91205  0.68073  0.91060  Biso   1.000  H
  H301     1.0000 0.93668  0.71579  0.95291  Biso   1.000  H
  H302     1.0000 0.91198  0.68073  0.91060  Biso   1.000  H
  H303     1.0000 0.81492  0.72869  0.20789  Biso   1.000  H
  H304     1.0000 0.73690  0.85341  0.22800  Biso   1.000  H
  H305     1.0000 0.65693  0.88289  0.20261  Biso   1.000  H
  C392     1.0000 0.73163  0.89671  0.86064  Biso   1.000  C
  C393     1.0000 0.71658  0.87583  0.79292  Biso   1.000  C
  C394     1.0000 0.73156  0.89671  0.86064  Biso   1.000  C
  C395     1.0000 0.65252  0.56417  0.93518  Biso   1.000  C
  C396     1.0000 0.55909  0.66630  0.90828  Biso   1.000  C
  H306     1.0000 0.75574  0.92508  0.88229  Biso   1.000  H
  C397     1.0000 0.67851  0.83481  0.86636  Biso   1.000  C
  H307     1.0000 0.75568  0.92508  0.88229  Biso   1.000  H
  C398     1.0000 0.66169  0.81338  0.79965  Biso   1.000  C
  H308     1.0000 0.73069  0.88909  0.76701  Biso   1.000  H
  H309     1.0000 0.66805  0.52751  0.95549  Biso   1.000  H
  C399     1.0000 0.70202  0.56939  0.90239  Biso   1.000  C
  H310     1.0000 0.66799  0.52751  0.95549  Biso   1.000  H
  C400     1.0000 0.60814  0.67121  0.87526  Biso   1.000  C
  H311     1.0000 0.51053  0.70007  0.91029  Biso   1.000  H
  C401     1.0000 0.60807  0.67121  0.87526  Biso   1.000  C
  H312     1.0000 0.51053  0.70007  0.91031  Biso   1.000  H
  N42      1.0000 0.64300  0.79397  0.83638  Biso   1.000  N
  H313     1.0000 0.66553  0.81921  0.89209  Biso   1.000  H
  H314     1.0000 0.63678  0.78390  0.77859  Biso   1.000  H
  H315     1.0000 0.75129  0.53660  0.90059  Biso   1.000  H
  C402     1.0000 0.67912  0.62270  0.87228  Biso   1.000  C
  C403     1.0000 0.58003  0.72802  0.84315  Biso   1.000  C
  C404     1.0000 0.57996  0.72802  0.84315  Biso   1.000  C
  H316     1.0000 0.71240  0.62571  0.84970  Biso   1.000  H
  H317     1.0000 0.52538  0.75332  0.84979  Biso   1.000  H
  H318     1.0000 0.57132  0.69602  0.81900  Biso   1.000  H
  C405     1.0000 0.42010  0.27198  0.15685  Biso   1.000  C
  N43      1.0000 0.35713  0.20603  0.16362  Biso   1.000  N
  H319     1.0000 0.42881  0.30398  0.18100  Biso   1.000  H
  C406     1.0000 0.39199  0.32879  0.12474  Biso   1.000  C
  H320     1.0000 0.47475  0.24668  0.15021  Biso   1.000  H
  H321     1.0000 0.47468  0.24668  0.15021  Biso   1.000  H
  C407     1.0000 0.32161  0.16519  0.13364  Biso   1.000  C
  C408     1.0000 0.33844  0.18662  0.20035  Biso   1.000  C
  C409     1.0000 0.33838  0.18662  0.20035  Biso   1.000  C
  C410     1.0000 0.32100  0.37730  0.12772  Biso   1.000  C
  C411     1.0000 0.44103  0.33370  0.09172  Biso   1.000  C
  C412     1.0000 0.44097  0.33370  0.09175  Biso   1.000  C
  C413     1.0000 0.26850  0.10329  0.13936  Biso   1.000  C
  H322     1.0000 0.33460  0.18079  0.10791  Biso   1.000  H
  H323     1.0000 0.36335  0.21610  0.22141  Biso   1.000  H
  C414     1.0000 0.28355  0.12417  0.20708  Biso   1.000  C
  H324     1.0000 0.36328  0.21610  0.22141  Biso   1.000  H
  C415     1.0000 0.28348  0.12417  0.20708  Biso   1.000  C
  C416     1.0000 0.29811  0.43061  0.09761  Biso   1.000  C
  H325     1.0000 0.28773  0.37429  0.15030  Biso   1.000  H
  H326     1.0000 0.48960  0.29993  0.08971  Biso   1.000  H
  C417     1.0000 0.41953  0.38768  0.06160  Biso   1.000  C
  C418     1.0000 0.41946  0.38768  0.06160  Biso   1.000  C
  C419     1.0000 0.24814  0.08002  0.17670  Biso   1.000  C
  H327     1.0000 0.24445  0.07492  0.11771  Biso   1.000  H
  C420     1.0000 0.24808  0.08002  0.17670  Biso   1.000  C
  H328     1.0000 0.24438  0.07492  0.11771  Biso   1.000  H
  H329     1.0000 0.26943  0.11091  0.23299  Biso   1.000  H
  C421     1.0000 0.34760  0.43583  0.06482  Biso   1.000  C
  H330     1.0000 0.24884  0.46340  0.09941  Biso   1.000  H
  H331     1.0000 0.24878  0.46340  0.09941  Biso   1.000  H
  C422     1.0000 0.47352  0.39051  0.02666  Biso   1.000  C
  C423     1.0000 0.47346  0.39051  0.02666  Biso   1.000  C
  C424     1.0000 0.19091  0.01142  0.18355  Biso   1.000  C
  H332     1.0000 0.33214  0.47249  0.04451  Biso   1.000  H
  H333     1.0000 0.33208  0.47249  0.04451  Biso   1.000  H
  C425     1.0000 0.55978  0.40862  0.03255  Biso   1.000  C
  C426     1.0000 0.43532  0.37092  0.99092  Biso   1.000  C
  C427     1.0000 0.12830  0.98950  0.15694  Biso   1.000  C
  C428     1.0000 0.20235  0.96297  0.21680  Biso   1.000  C
  C429     1.0000 0.20229  0.96297  0.21680  Biso   1.000  C
  C430     1.0000 0.59621  0.43503  0.06943  Biso   1.000  C
  N44      1.0000 0.62163  0.40058  0.00572  Biso   1.000  N
  N45      1.0000 0.62157  0.40058  0.00572  Biso   1.000  N
  N46      1.0000 0.47549  0.36889  0.95590  Biso   1.000  N
  C431     1.0000 0.34950  0.34721  0.98366  Biso   1.000  C
  C432     1.0000 0.07665  0.92262  0.16277  Biso   1.000  C
  C433     1.0000 0.07658  0.92262  0.16277  Biso   1.000  C
  H334     1.0000 0.12073  0.02137  0.13411  Biso   1.000  H
  H335     1.0000 0.12066  0.02137  0.13411  Biso   1.000  H
  H336     1.0000 0.24532  0.97599  0.23540  Biso   1.000  H
  C434     1.0000 0.15061  0.89659  0.22214  Biso   1.000  C
  H337     1.0000 0.56649  0.44651  0.09241  Biso   1.000  H
  C435     1.0000 0.68062  0.44013  0.06482  Biso   1.000  C
  C436     1.0000 0.69619  0.41777  0.02501  Biso   1.000  C
  H338     1.0000 0.53639  0.36600  0.95189  Biso   1.000  H
  C437     1.0000 0.41853  0.34598  0.92738  Biso   1.000  C
  H339     1.0000 0.30708  0.34181  0.00261  Biso   1.000  H
  C438     1.0000 0.33895  0.33382  0.94534  Biso   1.000  C
  C439     1.0000 0.33888  0.33382  0.94536  Biso   1.000  C
  N47      1.0000 0.08912  0.87767  0.19524  Biso   1.000  N
  H340     1.0000 0.03344  0.90850  0.14441  Biso   1.000  H
  H341     1.0000 0.03338  0.90850  0.14441  Biso   1.000  H
  H342     1.0000 0.15760  0.86361  0.24471  Biso   1.000  H
  H343     1.0000 0.72159  0.45542  0.08400  Biso   1.000  H
  C440     1.0000 0.77741  0.41268  0.00949  Biso   1.000  C
  C441     1.0000 0.43584  0.33419  0.88844  Biso   1.000  C
  C442     1.0000 0.43578  0.33419  0.88844  Biso   1.000  C
  H344     1.0000 0.28762  0.31878  0.93251  Biso   1.000  H
  C443     1.0000 0.03862  0.80171  0.20038  Biso   1.000  C
  C444     1.0000 0.79493  0.39309  0.97099  Biso   1.000  C
  C445     1.0000 0.85223  0.42637  0.03540  Biso   1.000  C
  C446     1.0000 0.85217  0.42637  0.03540  Biso   1.000  C
  C447     1.0000 0.51684  0.33653  0.87213  Biso   1.000  C
  C448     1.0000 0.36261  0.31602  0.86157  Biso   1.000  C
  C449     1.0000 0.51677  0.33653  0.87213  Biso   1.000  C
  H345     1.0000 0.99492  0.79692  0.17949  Biso   1.000  H
  H346     1.0000 0.99492  0.79692  0.17952  Biso   1.000  H
  H347     1.0000 0.98803  0.80558  0.18311  Biso   1.000  H
  C450     1.0000 0.09983  0.73059  0.19861  Biso   1.000  C
  H348     1.0000 0.01034  0.80251  0.22571  Biso   1.000  H
  H349     1.0000 0.01028  0.80251  0.22571  Biso   1.000  H
  C451     1.0000 0.08003  0.71997  0.19280  Biso   1.000  C
  H350     1.0000 0.01863  0.80109  0.22739  Biso   1.000  H
  N48      1.0000 0.73694  0.37472  0.94212  Biso   1.000  N
  C452     1.0000 0.87664  0.39290  0.95378  Biso   1.000  C
  N49      1.0000 0.73688  0.37472  0.94212  Biso   1.000  N
  C453     1.0000 0.87657  0.39290  0.95378  Biso   1.000  C
  C454     1.0000 0.86761  0.50258  0.05275  Biso   1.000  C
  C455     1.0000 0.90982  0.36269  0.04219  Biso   1.000  C
  N50      1.0000 0.59133  0.35041  0.89137  Biso   1.000  N
  C456     1.0000 0.53191  0.32197  0.83125  Biso   1.000  C
  C457     1.0000 0.35588  0.23962  0.84422  Biso   1.000  C
  C458     1.0000 0.30340  0.37571  0.85246  Biso   1.000  C
  C459     1.0000 0.14612  0.71672  0.16611  Biso   1.000  C
  C460     1.0000 0.10720  0.67612  0.22881  Biso   1.000  C
  C461     1.0000 0.15297  0.72900  0.16431  Biso   1.000  C
  C462     1.0000 0.06419  0.65101  0.21320  Biso   1.000  C
  C463     1.0000 0.77790  0.36582  0.90765  Biso   1.000  C
  H351     1.0000 0.67591  0.36398  0.94600  Biso   1.000  H
  H352     1.0000 0.92893  0.40260  0.96701  Biso   1.000  H
  C464     1.0000 0.86621  0.37638  0.91539  Biso   1.000  C
  H353     1.0000 0.82959  0.54710  0.04851  Biso   1.000  H
  C465     1.0000 0.93903  0.51240  0.07616  Biso   1.000  C
  C466     1.0000 0.93897  0.51240  0.07616  Biso   1.000  C
  H354     1.0000 0.90001  0.31098  0.03020  Biso   1.000  H
  C467     1.0000 0.98024  0.37270  0.06583  Biso   1.000  C
  C468     1.0000 0.98017  0.37270  0.06583  Biso   1.000  C
  C469     1.0000 0.65271  0.34500  0.86401  Biso   1.000  C
  C470     1.0000 0.61568  0.32639  0.82655  Biso   1.000  C
  H355     1.0000 0.49028  0.31147  0.81161  Biso   1.000  H
  H356     1.0000 0.39639  0.19817  0.85020  Biso   1.000  H
  C471     1.0000 0.29014  0.22323  0.81808  Biso   1.000  C
  C472     1.0000 0.29007  0.22323  0.81808  Biso   1.000  C
  C473     1.0000 0.23763  0.35937  0.82707  Biso   1.000  C
  H357     1.0000 0.30832  0.42858  0.86389  Biso   1.000  H
  C474     1.0000 0.23756  0.35937  0.82707  Biso   1.000  C
  C475     1.0000 0.20514  0.65709  0.16379  Biso   1.000  C
  H358     1.0000 0.13612  0.75068  0.14409  Biso   1.000  H
  C476     1.0000 0.20508  0.65709  0.16379  Biso   1.000  C
  C477     1.0000 0.19099  0.64198  0.15839  Biso   1.000  C
  H359     1.0000 0.17151  0.77837  0.15259  Biso   1.000  H
  H360     1.0000 0.07455  0.68300  0.25141  Biso   1.000  H
  C478     1.0000 0.16223  0.61158  0.22620  Biso   1.000  C
  H361     1.0000 0.07449  0.68300  0.25141  Biso   1.000  H
  C479     1.0000 0.10908  0.57738  0.20821  Biso   1.000  C
  H362     1.0000 0.02074  0.65242  0.23160  Biso   1.000  H
  C480     1.0000 0.74049  0.35237  0.87138  Biso   1.000  C
  H363     1.0000 0.90979  0.37270  0.89700  Biso   1.000  H
  H364     1.0000 0.95009  0.56411  0.08789  Biso   1.000  H
  C481     1.0000 0.99503  0.44749  0.08275  Biso   1.000  C
  H365     1.0000 0.95009  0.56411  0.08792  Biso   1.000  H
  C482     1.0000 0.99496  0.44749  0.08275  Biso   1.000  C
  C483     1.0000 0.04040  0.30171  0.07231  Biso   1.000  C
  H366     1.0000 0.64481  0.31878  0.80299  Biso   1.000  H
  C484     1.0000 0.28552  0.13989  0.79890  Biso   1.000  C
  C485     1.0000 0.23083  0.28267  0.80972  Biso   1.000  C
  C486     1.0000 0.28546  0.13989  0.79890  Biso   1.000  C
  C487     1.0000 0.23077  0.28267  0.80972  Biso   1.000  C
  H367     1.0000 0.19682  0.40070  0.82130  Biso   1.000  H
  C488     1.0000 0.25963  0.64763  0.12862  Biso   1.000  C
  C489     1.0000 0.21232  0.60041  0.19379  Biso   1.000  C
  C490     1.0000 0.25957  0.64763  0.12862  Biso   1.000  C
  C491     1.0000 0.17191  0.57480  0.17960  Biso   1.000  C
  H368     1.0000 0.16655  0.57338  0.24700  Biso   1.000  H
  H369     1.0000 0.16649  0.57338  0.24700  Biso   1.000  H
  H370     1.0000 0.09773  0.53058  0.22371  Biso   1.000  H
  C492     1.0000 0.79498  0.34291  0.83621  Biso   1.000  C
  C493     1.0000 0.80914  0.35802  0.84161  Biso   1.000  C
  H371     1.0000 0.04350  0.45529  0.09909  Biso   1.000  H
  H372     1.0000 0.04350  0.45529  0.09912  Biso   1.000  H
  N51      1.0000 0.99460  0.23059  0.09073  Biso   1.000  N
  H373     1.0000 0.06344  0.28421  0.04709  Biso   1.000  H
  H374     1.0000 0.08814  0.31927  0.08940  Biso   1.000  H
  H375     1.0000 0.06338  0.28421  0.04709  Biso   1.000  H
  H376     1.0000 0.08808  0.31927  0.08940  Biso   1.000  H
  N52      1.0000 0.23133  0.08069  0.81970  Biso   1.000  N
  H377     1.0000 0.26323  0.14659  0.77200  Biso   1.000  H
  H378     1.0000 0.34320  0.11711  0.79739  Biso   1.000  H
  N53      1.0000 0.23126  0.08069  0.81970  Biso   1.000  N
  H379     1.0000 0.26316  0.14659  0.77200  Biso   1.000  H
  H380     1.0000 0.18520  0.27131  0.79211  Biso   1.000  H
  C494     1.0000 0.22223  0.63418  0.09235  Biso   1.000  C
  C495     1.0000 0.34742  0.65500  0.13599  Biso   1.000  C
  C496     1.0000 0.22217  0.63418  0.09235  Biso   1.000  C
  H381     1.0000 0.25011  0.55533  0.19231  Biso   1.000  H
  H382     1.0000 0.20097  0.52469  0.17511  Biso   1.000  H
  C497     1.0000 0.85401  0.28328  0.83389  Biso   1.000  C
  C498     1.0000 0.78781  0.39959  0.80621  Biso   1.000  C
  C499     1.0000 0.84709  0.27100  0.83569  Biso   1.000  C
  C500     1.0000 0.82822  0.42520  0.82040  Biso   1.000  C
  C501     1.0000 0.94813  0.24650  0.12085  Biso   1.000  C
  C502     1.0000 0.94807  0.24650  0.12085  Biso   1.000  C
  C503     1.0000 0.00414  0.15770  0.07820  Biso   1.000  C
  C504     1.0000 0.00408  0.15770  0.07820  Biso   1.000  C
  C505     1.0000 0.16423  0.04808  0.80310  Biso   1.000  C
  C506     1.0000 0.25219  0.05981  0.85719  Biso   1.000  C
  C507     1.0000 0.16416  0.04808  0.80310  Biso   1.000  C
  C508     1.0000 0.20531  0.01308  0.79800  Biso   1.000  C
  C509     1.0000 0.20610  0.08389  0.85559  Biso   1.000  C
  N54      1.0000 0.26318  0.62528  0.05788  Biso   1.000  N
  C510     1.0000 0.13392  0.62362  0.08461  Biso   1.000  C
  N55      1.0000 0.40880  0.64959  0.10863  Biso   1.000  N
  C511     1.0000 0.38444  0.67361  0.17345  Biso   1.000  C
  C512     1.0000 0.38438  0.67361  0.17345  Biso   1.000  C
  H383     1.0000 0.86401  0.24932  0.85591  Biso   1.000  H
  C513     1.0000 0.90030  0.26941  0.80139  Biso   1.000  C
  H384     1.0000 0.82861  0.22163  0.84741  Biso   1.000  H
  C514     1.0000 0.92009  0.28003  0.80720  Biso   1.000  C
  C515     1.0000 0.83789  0.38842  0.77380  Biso   1.000  C
  H385     1.0000 0.75001  0.44467  0.80769  Biso   1.000  H
  C516     1.0000 0.89099  0.42262  0.79179  Biso   1.000  C
  H386     1.0000 0.79909  0.47531  0.82489  Biso   1.000  H
  H387     1.0000 0.94382  0.30079  0.13060  Biso   1.000  H
  C517     1.0000 0.90482  0.18171  0.13834  Biso   1.000  C
  C518     1.0000 0.96050  0.09261  0.09421  Biso   1.000  C
  H388     1.0000 0.04162  0.14781  0.05759  Biso   1.000  H
  C519     1.0000 0.11739  0.98938  0.82095  Biso   1.000  C
  C520     1.0000 0.16076  0.95020  0.81329  Biso   1.000  C
  H389     1.0000 0.14763  0.06577  0.77780  Biso   1.000  H
  H390     1.0000 0.14757  0.06577  0.77780  Biso   1.000  H
  H391     1.0000 0.29909  0.08542  0.86990  Biso   1.000  H
  C521     1.0000 0.20569  0.00178  0.87669  Biso   1.000  C
  C522     1.0000 0.16407  0.02198  0.87361  Biso   1.000  C
  H392     1.0000 0.21926  0.01069  0.77130  Biso   1.000  H
  H393     1.0000 0.21729  0.13252  0.87001  Biso   1.000  H
  C523     1.0000 0.20519  0.60691  0.02901  Biso   1.000  C
  H394     1.0000 0.32422  0.63602  0.05400  Biso   1.000  H
  C524     1.0000 0.12349  0.60710  0.04622  Biso   1.000  C
  H395     1.0000 0.09034  0.62730  0.10300  Biso   1.000  H
  H396     1.0000 0.09027  0.62730  0.10300  Biso   1.000  H
  C525     1.0000 0.48329  0.66347  0.12787  Biso   1.000  C
  H397     1.0000 0.35532  0.68122  0.19701  Biso   1.000  H
  C526     1.0000 0.46822  0.67803  0.16875  Biso   1.000  C
  C527     1.0000 0.89293  0.32388  0.77119  Biso   1.000  C
  C528     1.0000 0.96150  0.19829  0.79962  Biso   1.000  C
  C529     1.0000 0.89287  0.32388  0.77119  Biso   1.000  C
  C530     1.0000 0.93593  0.34899  0.78680  Biso   1.000  C
  H398     1.0000 0.83357  0.42662  0.75300  Biso   1.000  H
  H399     1.0000 0.90240  0.46942  0.77629  Biso   1.000  H
  C531     1.0000 0.90901  0.10440  0.12488  Biso   1.000  C
  H400     1.0000 0.87164  0.19270  0.16039  Biso   1.000  H
  H401     1.0000 0.87158  0.19270  0.16039  Biso   1.000  H
  H402     1.0000 0.96654  0.03918  0.08359  Biso   1.000  H
  H403     1.0000 0.96648  0.03918  0.08359  Biso   1.000  H
  C532     1.0000 0.13869  0.96272  0.85687  Biso   1.000  C
  H404     1.0000 0.06928  0.96702  0.80789  Biso   1.000  H
  H405     1.0000 0.14451  0.90291  0.79881  Biso   1.000  H
  H406     1.0000 0.21881  0.98870  0.90300  Biso   1.000  H
  H407     1.0000 0.15531  0.02622  0.90059  Biso   1.000  H
  C533     1.0000 0.22272  0.58732  0.99051  Biso   1.000  C
  H408     1.0000 0.07120  0.59740  0.03299  Biso   1.000  H
  C534     1.0000 0.56435  0.66581  0.11156  Biso   1.000  C
  C535     1.0000 0.56428  0.66581  0.11156  Biso   1.000  C
  H409     1.0000 0.50985  0.68853  0.18839  Biso   1.000  H
  H410     1.0000 0.50978  0.68853  0.18839  Biso   1.000  H
  H411     1.0000 0.92557  0.31700  0.74859  Biso   1.000  H
  H412     1.0000 0.92557  0.31700  0.74861  Biso   1.000  H
  N56      1.0000 0.91101  0.12233  0.80476  Biso   1.000  N
  H413     1.0000 0.98978  0.19749  0.77429  Biso   1.000  H
  H414     1.0000 0.98149  0.19891  0.77261  Biso   1.000  H
  H415     1.0000 0.00521  0.20308  0.82051  Biso   1.000  H
  H416     1.0000 0.01210  0.19442  0.81689  Biso   1.000  H
  H417     1.0000 0.97939  0.34758  0.76840  Biso   1.000  H
  C536     1.0000 0.86144  0.03728  0.14313  Biso   1.000  C
  C537     1.0000 0.86138  0.03728  0.14313  Biso   1.000  C
  C538     1.0000 0.09112  0.89560  0.87512  Biso   1.000  C
  C539     1.0000 0.30394  0.58223  0.97499  Biso   1.000  C
  C540     1.0000 0.14790  0.57363  0.96460  Biso   1.000  C
  C541     1.0000 0.30387  0.58223  0.97499  Biso   1.000  C
  C542     1.0000 0.58160  0.65402  0.07262  Biso   1.000  C
  C543     1.0000 0.63751  0.68398  0.13843  Biso   1.000  C
  C544     1.0000 0.92354  0.07738  0.83723  Biso   1.000  C
  C545     1.0000 0.84952  0.10341  0.77786  Biso   1.000  C
  C546     1.0000 0.92348  0.07738  0.83726  Biso   1.000  C
  C547     1.0000 0.84946  0.10341  0.77786  Biso   1.000  C
  C548     1.0000 0.88273  0.01062  0.17905  Biso   1.000  C
  C549     1.0000 0.79443  0.99822  0.12331  Biso   1.000  C
  C550     1.0000 0.79437  0.99822  0.12331  Biso   1.000  C
  C551     1.0000 0.83599  0.97802  0.12639  Biso   1.000  C
  C552     1.0000 0.83931  0.04980  0.18671  Biso   1.000  C
  C553     1.0000 0.09531  0.81829  0.86166  Biso   1.000  C
  C554     1.0000 0.03962  0.90739  0.90579  Biso   1.000  C
  N57      1.0000 0.37856  0.59942  0.99428  Biso   1.000  N
  C555     1.0000 0.31950  0.55987  0.93518  Biso   1.000  C
  N58      1.0000 0.37849  0.59942  0.99428  Biso   1.000  N
  C556     1.0000 0.13251  0.49742  0.94725  Biso   1.000  C
  C557     1.0000 0.09031  0.63731  0.95781  Biso   1.000  C
  N59      1.0000 0.52463  0.63111  0.04410  Biso   1.000  N
  C558     1.0000 0.66118  0.66618  0.05466  Biso   1.000  C
  N60      1.0000 0.52457  0.63111  0.04410  Biso   1.000  N
  C559     1.0000 0.64425  0.76038  0.15578  Biso   1.000  C
  C560     1.0000 0.69673  0.62429  0.14754  Biso   1.000  C
  C561     1.0000 0.64418  0.76038  0.15578  Biso   1.000  C
  H418     1.0000 0.96668  0.09150  0.85559  Biso   1.000  H
  C562     1.0000 0.87182  0.01050  0.84306  Biso   1.000  C
  C563     1.0000 0.79784  0.03703  0.78320  Biso   1.000  C
  H419     1.0000 0.84253  0.13639  0.75529  Biso   1.000  H
  C564     1.0000 0.79777  0.03703  0.78320  Biso   1.000  C
  H420     1.0000 0.84246  0.13639  0.75529  Biso   1.000  H
  C565     1.0000 0.83590  0.95192  0.19690  Biso   1.000  C
  C566     1.0000 0.79481  0.98692  0.20200  Biso   1.000  C
  H421     1.0000 0.93085  0.03298  0.19211  Biso   1.000  H
  H422     1.0000 0.93078  0.03298  0.19211  Biso   1.000  H
  H423     1.0000 0.78132  0.01130  0.09700  Biso   1.000  H
  C567     1.0000 0.74794  0.94019  0.14281  Biso   1.000  C
  C568     1.0000 0.74787  0.94019  0.14281  Biso   1.000  C
  C569     1.0000 0.79403  0.91611  0.14441  Biso   1.000  C
  H424     1.0000 0.84481  0.97378  0.09941  Biso   1.000  H
  H425     1.0000 0.85562  0.09709  0.20119  Biso   1.000  H
  C570     1.0000 0.05199  0.75350  0.87915  Biso   1.000  C
  H426     1.0000 0.12848  0.80730  0.83961  Biso   1.000  H
  C571     1.0000 0.99605  0.84230  0.92180  Biso   1.000  C
  C572     1.0000 0.99598  0.84230  0.92180  Biso   1.000  C
  H427     1.0000 0.03359  0.96082  0.91641  Biso   1.000  H
  C573     1.0000 0.44034  0.59138  0.96745  Biso   1.000  C
  C574     1.0000 0.44028  0.59138  0.96745  Biso   1.000  C
  C575     1.0000 0.40392  0.56497  0.93057  Biso   1.000  C
  H428     1.0000 0.27853  0.54458  0.91600  Biso   1.000  H
  H429     1.0000 0.27847  0.54458  0.91600  Biso   1.000  H
  H430     1.0000 0.17053  0.45290  0.95149  Biso   1.000  H
  C576     1.0000 0.06110  0.48760  0.92384  Biso   1.000  C
  H431     1.0000 0.17047  0.45290  0.95149  Biso   1.000  H
  C577     1.0000 0.06110  0.48760  0.92386  Biso   1.000  C
  C578     1.0000 0.01989  0.62730  0.93417  Biso   1.000  C
  H432     1.0000 0.10012  0.68902  0.96980  Biso   1.000  H
  H433     1.0000 0.46373  0.63400  0.04811  Biso   1.000  H
  C579     1.0000 0.56480  0.62908  0.00908  Biso   1.000  C
  H434     1.0000 0.46367  0.63400  0.04811  Biso   1.000  H
  H435     1.0000 0.71250  0.68122  0.06749  Biso   1.000  H
  C580     1.0000 0.65063  0.65279  0.01634  Biso   1.000  C
  C581     1.0000 0.65056  0.65279  0.01634  Biso   1.000  C
  H436     1.0000 0.60374  0.80183  0.14980  Biso   1.000  H
  C582     1.0000 0.71005  0.77677  0.18192  Biso   1.000  C
  H437     1.0000 0.60368  0.80183  0.14980  Biso   1.000  H
  C583     1.0000 0.70999  0.77677  0.18192  Biso   1.000  C
  C584     1.0000 0.76250  0.64063  0.17293  Biso   1.000  C
  H438     1.0000 0.69181  0.57142  0.13611  Biso   1.000  H
  H439     1.0000 0.87940  0.97863  0.86589  Biso   1.000  H
  C585     1.0000 0.80921  0.98858  0.81645  Biso   1.000  C
  H440     1.0000 0.75481  0.02401  0.76460  Biso   1.000  H
  N61      1.0000 0.76880  0.91931  0.18030  Biso   1.000  N
  H441     1.0000 0.85256  0.93423  0.22220  Biso   1.000  H
  H442     1.0000 0.85250  0.93423  0.22220  Biso   1.000  H
  H443     1.0000 0.78080  0.98931  0.22870  Biso   1.000  H
  H444     1.0000 0.70104  0.91458  0.13010  Biso   1.000  H
  H445     1.0000 0.70097  0.91458  0.13010  Biso   1.000  H
  H446     1.0000 0.78283  0.86748  0.12999  Biso   1.000  H
  N62      1.0000 0.00552  0.76941  0.90927  Biso   1.000  N
  H447     1.0000 0.05631  0.69921  0.86940  Biso   1.000  H
  H448     1.0000 0.95851  0.85219  0.94241  Biso   1.000  H
  C586     1.0000 0.52660  0.60949  0.97334  Biso   1.000  C
  H449     1.0000 0.43364  0.55349  0.90759  Biso   1.000  H
  H450     1.0000 0.43358  0.55349  0.90759  Biso   1.000  H
  H451     1.0000 0.05004  0.43589  0.91211  Biso   1.000  H
  C587     1.0000 0.00510  0.55251  0.91725  Biso   1.000  C
  H452     1.0000 0.04997  0.43589  0.91211  Biso   1.000  H
  C588     1.0000 0.95973  0.69829  0.92769  Biso   1.000  C
  C589     1.0000 0.95967  0.69829  0.92769  Biso   1.000  C
  H453     1.0000 0.69305  0.65819  0.99739  Biso   1.000  H
  H454     1.0000 0.69298  0.65819  0.99739  Biso   1.000  H
  C590     1.0000 0.76930  0.71733  0.19028  Biso   1.000  C
  C591     1.0000 0.71461  0.86011  0.20110  Biso   1.000  C
  H455     1.0000 0.80331  0.59930  0.17870  Biso   1.000  H
  C592     1.0000 0.75199  0.91998  0.82330  Biso   1.000  C
  C593     1.0000 0.58060  0.61232  0.93840  Biso   1.000  C
  H456     1.0000 0.95663  0.54471  0.90091  Biso   1.000  H
  H457     1.0000 0.95657  0.54471  0.90091  Biso   1.000  H
  H458     1.0000 0.93675  0.71579  0.95291  Biso   1.000  H
  H459     1.0000 0.91205  0.68073  0.91060  Biso   1.000  H
  H460     1.0000 0.93668  0.71579  0.95291  Biso   1.000  H
  H461     1.0000 0.91198  0.68073  0.91060  Biso   1.000  H
  H462     1.0000 0.81492  0.72869  0.20789  Biso   1.000  H
  H463     1.0000 0.73690  0.85341  0.22800  Biso   1.000  H
  H464     1.0000 0.65693  0.88289  0.20261  Biso   1.000  H
  C594     1.0000 0.73163  0.89671  0.86064  Biso   1.000  C
  C595     1.0000 0.71658  0.87583  0.79292  Biso   1.000  C
  C596     1.0000 0.73156  0.89671  0.86064  Biso   1.000  C
  C597     1.0000 0.65252  0.56417  0.93518  Biso   1.000  C
  C598     1.0000 0.55909  0.66630  0.90828  Biso   1.000  C
  H465     1.0000 0.75574  0.92508  0.88229  Biso   1.000  H
  C599     1.0000 0.67851  0.83481  0.86636  Biso   1.000  C
  H466     1.0000 0.75568  0.92508  0.88229  Biso   1.000  H
  C600     1.0000 0.66169  0.81338  0.79965  Biso   1.000  C
  H467     1.0000 0.73069  0.88909  0.76701  Biso   1.000  H
  H468     1.0000 0.66805  0.52751  0.95549  Biso   1.000  H
  C601     1.0000 0.70202  0.56939  0.90239  Biso   1.000  C
  H469     1.0000 0.66799  0.52751  0.95549  Biso   1.000  H
  C602     1.0000 0.60814  0.67121  0.87526  Biso   1.000  C
  H470     1.0000 0.51053  0.70007  0.91029  Biso   1.000  H
  C603     1.0000 0.60807  0.67121  0.87526  Biso   1.000  C
  H471     1.0000 0.51053  0.70007  0.91031  Biso   1.000  H
  N63      1.0000 0.64300  0.79397  0.83638  Biso   1.000  N
  H472     1.0000 0.66553  0.81921  0.89209  Biso   1.000  H
  H473     1.0000 0.63678  0.78390  0.77859  Biso   1.000  H
  H474     1.0000 0.75129  0.53660  0.90059  Biso   1.000  H
  C604     1.0000 0.67912  0.62270  0.87228  Biso   1.000  C
  C605     1.0000 0.58003  0.72802  0.84315  Biso   1.000  C
  C606     1.0000 0.57996  0.72802  0.84315  Biso   1.000  C
  H475     1.0000 0.71240  0.62571  0.84970  Biso   1.000  H
  H476     1.0000 0.52538  0.75332  0.84979  Biso   1.000  H
  H477     1.0000 0.57132  0.69602  0.81900  Biso   1.000  H
  C607     1.0000 0.42010  0.27198  0.15685  Biso   1.000  C
  N64      1.0000 0.35713  0.20603  0.16362  Biso   1.000  N
  H478     1.0000 0.42881  0.30398  0.18100  Biso   1.000  H
  C608     1.0000 0.39199  0.32879  0.12474  Biso   1.000  C
  H479     1.0000 0.47475  0.24668  0.15021  Biso   1.000  H
  H480     1.0000 0.47468  0.24668  0.15021  Biso   1.000  H
  C609     1.0000 0.32161  0.16519  0.13364  Biso   1.000  C
  C610     1.0000 0.33844  0.18662  0.20035  Biso   1.000  C
  C611     1.0000 0.33838  0.18662  0.20035  Biso   1.000  C
  C612     1.0000 0.32100  0.37730  0.12772  Biso   1.000  C
  C613     1.0000 0.44103  0.33370  0.09172  Biso   1.000  C
  C614     1.0000 0.44097  0.33370  0.09175  Biso   1.000  C
  C615     1.0000 0.26850  0.10329  0.13936  Biso   1.000  C
  H481     1.0000 0.33460  0.18079  0.10791  Biso   1.000  H
  H482     1.0000 0.36335  0.21610  0.22141  Biso   1.000  H
  C616     1.0000 0.28355  0.12417  0.20708  Biso   1.000  C
  H483     1.0000 0.36328  0.21610  0.22141  Biso   1.000  H
  C617     1.0000 0.28348  0.12417  0.20708  Biso   1.000  C
  C618     1.0000 0.29811  0.43061  0.09761  Biso   1.000  C
  H484     1.0000 0.28773  0.37429  0.15030  Biso   1.000  H
  H485     1.0000 0.48960  0.29993  0.08971  Biso   1.000  H
  C619     1.0000 0.41953  0.38768  0.06160  Biso   1.000  C
  C620     1.0000 0.41946  0.38768  0.06160  Biso   1.000  C
  C621     1.0000 0.24814  0.08002  0.17670  Biso   1.000  C
  H486     1.0000 0.24445  0.07492  0.11771  Biso   1.000  H
  C622     1.0000 0.24808  0.08002  0.17670  Biso   1.000  C
  H487     1.0000 0.24438  0.07492  0.11771  Biso   1.000  H
  H488     1.0000 0.26943  0.11091  0.23299  Biso   1.000  H
  C623     1.0000 0.34760  0.43583  0.06482  Biso   1.000  C
  H489     1.0000 0.24884  0.46340  0.09941  Biso   1.000  H
  H490     1.0000 0.24878  0.46340  0.09941  Biso   1.000  H
  C624     1.0000 0.47352  0.39051  0.02666  Biso   1.000  C
  C625     1.0000 0.47346  0.39051  0.02666  Biso   1.000  C
  C626     1.0000 0.19091  0.01142  0.18355  Biso   1.000  C
  H491     1.0000 0.33214  0.47249  0.04451  Biso   1.000  H
  H492     1.0000 0.33208  0.47249  0.04451  Biso   1.000  H
  C627     1.0000 0.55978  0.40862  0.03255  Biso   1.000  C
  C628     1.0000 0.43532  0.37092  0.99092  Biso   1.000  C
  C629     1.0000 0.12830  0.98950  0.15694  Biso   1.000  C
  C630     1.0000 0.20235  0.96297  0.21680  Biso   1.000  C
  C631     1.0000 0.20229  0.96297  0.21680  Biso   1.000  C
  C632     1.0000 0.59621  0.43503  0.06943  Biso   1.000  C
  N65      1.0000 0.62163  0.40058  0.00572  Biso   1.000  N
  N66      1.0000 0.62157  0.40058  0.00572  Biso   1.000  N
  N67      1.0000 0.47549  0.36889  0.95590  Biso   1.000  N
  C633     1.0000 0.34950  0.34721  0.98366  Biso   1.000  C
  C634     1.0000 0.07665  0.92262  0.16277  Biso   1.000  C
  C635     1.0000 0.07658  0.92262  0.16277  Biso   1.000  C
  H493     1.0000 0.12073  0.02137  0.13411  Biso   1.000  H
  H494     1.0000 0.12066  0.02137  0.13411  Biso   1.000  H
  H495     1.0000 0.24532  0.97599  0.23540  Biso   1.000  H
  C636     1.0000 0.15061  0.89659  0.22214  Biso   1.000  C
  H496     1.0000 0.56649  0.44651  0.09241  Biso   1.000  H
  C637     1.0000 0.68062  0.44013  0.06482  Biso   1.000  C
  C638     1.0000 0.69619  0.41777  0.02501  Biso   1.000  C
  H497     1.0000 0.53639  0.36600  0.95189  Biso   1.000  H
  C639     1.0000 0.41853  0.34598  0.92738  Biso   1.000  C
  H498     1.0000 0.30708  0.34181  0.00261  Biso   1.000  H
  C640     1.0000 0.33895  0.33382  0.94534  Biso   1.000  C
  C641     1.0000 0.33888  0.33382  0.94536  Biso   1.000  C
  N68      1.0000 0.08912  0.87767  0.19524  Biso   1.000  N
  H499     1.0000 0.03344  0.90850  0.14441  Biso   1.000  H
  H500     1.0000 0.03338  0.90850  0.14441  Biso   1.000  H
  H501     1.0000 0.15760  0.86361  0.24471  Biso   1.000  H
  H502     1.0000 0.72159  0.45542  0.08400  Biso   1.000  H
  C642     1.0000 0.77741  0.41268  0.00949  Biso   1.000  C
  C643     1.0000 0.43584  0.33419  0.88844  Biso   1.000  C
  C644     1.0000 0.43578  0.33419  0.88844  Biso   1.000  C
  H503     1.0000 0.28762  0.31878  0.93251  Biso   1.000  H
  C645     1.0000 0.03862  0.80171  0.20038  Biso   1.000  C
  C646     1.0000 0.79493  0.39309  0.97099  Biso   1.000  C
  C647     1.0000 0.85223  0.42637  0.03540  Biso   1.000  C
  C648     1.0000 0.85217  0.42637  0.03540  Biso   1.000  C
  C649     1.0000 0.51684  0.33653  0.87213  Biso   1.000  C
  C650     1.0000 0.36261  0.31602  0.86157  Biso   1.000  C
  C651     1.0000 0.51677  0.33653  0.87213  Biso   1.000  C
  H504     1.0000 0.99492  0.79692  0.17949  Biso   1.000  H
  H505     1.0000 0.99492  0.79692  0.17952  Biso   1.000  H
  H506     1.0000 0.98803  0.80558  0.18311  Biso   1.000  H
  C652     1.0000 0.09983  0.73059  0.19861  Biso   1.000  C
  H507     1.0000 0.01034  0.80251  0.22571  Biso   1.000  H
  H508     1.0000 0.01028  0.80251  0.22571  Biso   1.000  H
  C653     1.0000 0.08003  0.71997  0.19280  Biso   1.000  C
  H509     1.0000 0.01863  0.80109  0.22739  Biso   1.000  H
  N69      1.0000 0.73694  0.37472  0.94212  Biso   1.000  N
  C654     1.0000 0.87664  0.39290  0.95378  Biso   1.000  C
  N70      1.0000 0.73688  0.37472  0.94212  Biso   1.000  N
  C655     1.0000 0.87657  0.39290  0.95378  Biso   1.000  C
  C656     1.0000 0.86761  0.50258  0.05275  Biso   1.000  C
  C657     1.0000 0.90982  0.36269  0.04219  Biso   1.000  C
  N71      1.0000 0.59133  0.35041  0.89137  Biso   1.000  N
  C658     1.0000 0.53191  0.32197  0.83125  Biso   1.000  C
  C659     1.0000 0.35588  0.23962  0.84422  Biso   1.000  C
  C660     1.0000 0.30340  0.37571  0.85246  Biso   1.000  C
  C661     1.0000 0.14612  0.71672  0.16611  Biso   1.000  C
  C662     1.0000 0.10720  0.67612  0.22881  Biso   1.000  C
  C663     1.0000 0.15297  0.72900  0.16431  Biso   1.000  C
  C664     1.0000 0.06419  0.65101  0.21320  Biso   1.000  C
  C665     1.0000 0.77790  0.36582  0.90765  Biso   1.000  C
  H510     1.0000 0.67591  0.36398  0.94600  Biso   1.000  H
  H511     1.0000 0.92893  0.40260  0.96701  Biso   1.000  H
  C666     1.0000 0.86621  0.37638  0.91539  Biso   1.000  C
  H512     1.0000 0.82959  0.54710  0.04851  Biso   1.000  H
  C667     1.0000 0.93903  0.51240  0.07616  Biso   1.000  C
  C668     1.0000 0.93897  0.51240  0.07616  Biso   1.000  C
  H513     1.0000 0.90001  0.31098  0.03020  Biso   1.000  H
  C669     1.0000 0.98024  0.37270  0.06583  Biso   1.000  C
  C670     1.0000 0.98017  0.37270  0.06583  Biso   1.000  C
  C671     1.0000 0.65271  0.34500  0.86401  Biso   1.000  C
  C672     1.0000 0.61568  0.32639  0.82655  Biso   1.000  C
  H514     1.0000 0.49028  0.31147  0.81161  Biso   1.000  H
  H515     1.0000 0.39639  0.19817  0.85020  Biso   1.000  H
  C673     1.0000 0.29014  0.22323  0.81808  Biso   1.000  C
  C674     1.0000 0.29007  0.22323  0.81808  Biso   1.000  C
  C675     1.0000 0.23763  0.35937  0.82707  Biso   1.000  C
  H516     1.0000 0.30832  0.42858  0.86389  Biso   1.000  H
  C676     1.0000 0.23756  0.35937  0.82707  Biso   1.000  C
  C677     1.0000 0.20514  0.65709  0.16379  Biso   1.000  C
  H517     1.0000 0.13612  0.75068  0.14409  Biso   1.000  H
  C678     1.0000 0.20508  0.65709  0.16379  Biso   1.000  C
  C679     1.0000 0.19099  0.64198  0.15839  Biso   1.000  C
  H518     1.0000 0.17151  0.77837  0.15259  Biso   1.000  H
  H519     1.0000 0.07455  0.68300  0.25141  Biso   1.000  H
  C680     1.0000 0.16223  0.61158  0.22620  Biso   1.000  C
  H520     1.0000 0.07449  0.68300  0.25141  Biso   1.000  H
  C681     1.0000 0.10908  0.57738  0.20821  Biso   1.000  C
  H521     1.0000 0.02074  0.65242  0.23160  Biso   1.000  H
  C682     1.0000 0.74049  0.35237  0.87138  Biso   1.000  C
  H522     1.0000 0.90979  0.37270  0.89700  Biso   1.000  H
  H523     1.0000 0.95009  0.56411  0.08789  Biso   1.000  H
  C683     1.0000 0.99503  0.44749  0.08275  Biso   1.000  C
  H524     1.0000 0.95009  0.56411  0.08792  Biso   1.000  H
  C684     1.0000 0.99496  0.44749  0.08275  Biso   1.000  C
  C685     1.0000 0.04040  0.30171  0.07231  Biso   1.000  C
  H525     1.0000 0.64481  0.31878  0.80299  Biso   1.000  H
  C686     1.0000 0.28552  0.13989  0.79890  Biso   1.000  C
  C687     1.0000 0.23083  0.28267  0.80972  Biso   1.000  C
  C688     1.0000 0.28546  0.13989  0.79890  Biso   1.000  C
  C689     1.0000 0.23077  0.28267  0.80972  Biso   1.000  C
  H526     1.0000 0.19682  0.40070  0.82130  Biso   1.000  H
  C690     1.0000 0.25963  0.64763  0.12862  Biso   1.000  C
  C691     1.0000 0.21232  0.60041  0.19379  Biso   1.000  C
  C692     1.0000 0.25957  0.64763  0.12862  Biso   1.000  C
  C693     1.0000 0.17191  0.57480  0.17960  Biso   1.000  C
  H527     1.0000 0.16655  0.57338  0.24700  Biso   1.000  H
  H528     1.0000 0.16649  0.57338  0.24700  Biso   1.000  H
  H529     1.0000 0.09773  0.53058  0.22371  Biso   1.000  H
  C694     1.0000 0.79498  0.34291  0.83621  Biso   1.000  C
  C695     1.0000 0.80914  0.35802  0.84161  Biso   1.000  C
  H530     1.0000 0.04350  0.45529  0.09909  Biso   1.000  H
  H531     1.0000 0.04350  0.45529  0.09912  Biso   1.000  H
  N72      1.0000 0.99460  0.23059  0.09073  Biso   1.000  N
  H532     1.0000 0.06344  0.28421  0.04709  Biso   1.000  H
  H533     1.0000 0.08814  0.31927  0.08940  Biso   1.000  H
  H534     1.0000 0.06338  0.28421  0.04709  Biso   1.000  H
  H535     1.0000 0.08808  0.31927  0.08940  Biso   1.000  H
  N73      1.0000 0.23133  0.08069  0.81970  Biso   1.000  N
  H536     1.0000 0.26323  0.14659  0.77200  Biso   1.000  H
  H537     1.0000 0.34320  0.11711  0.79739  Biso   1.000  H
  N74      1.0000 0.23126  0.08069  0.81970  Biso   1.000  N
  H538     1.0000 0.26316  0.14659  0.77200  Biso   1.000  H
  H539     1.0000 0.18520  0.27131  0.79211  Biso   1.000  H
  C696     1.0000 0.22223  0.63418  0.09235  Biso   1.000  C
  C697     1.0000 0.34742  0.65500  0.13599  Biso   1.000  C
  C698     1.0000 0.22217  0.63418  0.09235  Biso   1.000  C
  H540     1.0000 0.25011  0.55533  0.19231  Biso   1.000  H
  H541     1.0000 0.20097  0.52469  0.17511  Biso   1.000  H
  C699     1.0000 0.85401  0.28328  0.83389  Biso   1.000  C
  C700     1.0000 0.78781  0.39959  0.80621  Biso   1.000  C
  C701     1.0000 0.84709  0.27100  0.83569  Biso   1.000  C
  C702     1.0000 0.82822  0.42520  0.82040  Biso   1.000  C
  C703     1.0000 0.94813  0.24650  0.12085  Biso   1.000  C
  C704     1.0000 0.94807  0.24650  0.12085  Biso   1.000  C
  C705     1.0000 0.00414  0.15770  0.07820  Biso   1.000  C
  C706     1.0000 0.00408  0.15770  0.07820  Biso   1.000  C
  C707     1.0000 0.16423  0.04808  0.80310  Biso   1.000  C
  C708     1.0000 0.25219  0.05981  0.85719  Biso   1.000  C
  C709     1.0000 0.16416  0.04808  0.80310  Biso   1.000  C
  C710     1.0000 0.20531  0.01308  0.79800  Biso   1.000  C
  C711     1.0000 0.20610  0.08389  0.85559  Biso   1.000  C
  N75      1.0000 0.26318  0.62528  0.05788  Biso   1.000  N
  C712     1.0000 0.13392  0.62362  0.08461  Biso   1.000  C
  N76      1.0000 0.40880  0.64959  0.10863  Biso   1.000  N
  C713     1.0000 0.38444  0.67361  0.17345  Biso   1.000  C
  C714     1.0000 0.38438  0.67361  0.17345  Biso   1.000  C
  H542     1.0000 0.86401  0.24932  0.85591  Biso   1.000  H
  C715     1.0000 0.90030  0.26941  0.80139  Biso   1.000  C
  H543     1.0000 0.82861  0.22163  0.84741  Biso   1.000  H
  C716     1.0000 0.92009  0.28003  0.80720  Biso   1.000  C
  C717     1.0000 0.83789  0.38842  0.77380  Biso   1.000  C
  H544     1.0000 0.75001  0.44467  0.80769  Biso   1.000  H
  C718     1.0000 0.89099  0.42262  0.79179  Biso   1.000  C
  H545     1.0000 0.79909  0.47531  0.82489  Biso   1.000  H
  H546     1.0000 0.94382  0.30079  0.13060  Biso   1.000  H
  C719     1.0000 0.90482  0.18171  0.13834  Biso   1.000  C
  C720     1.0000 0.96050  0.09261  0.09421  Biso   1.000  C
  H547     1.0000 0.04162  0.14781  0.05759  Biso   1.000  H
  C721     1.0000 0.11739  0.98938  0.82095  Biso   1.000  C
  C722     1.0000 0.16076  0.95020  0.81329  Biso   1.000  C
  H548     1.0000 0.14763  0.06577  0.77780  Biso   1.000  H
  H549     1.0000 0.14757  0.06577  0.77780  Biso   1.000  H
  H550     1.0000 0.29909  0.08542  0.86990  Biso   1.000  H
  C723     1.0000 0.20569  0.00178  0.87669  Biso   1.000  C
  C724     1.0000 0.16407  0.02198  0.87361  Biso   1.000  C
  H551     1.0000 0.21926  0.01069  0.77130  Biso   1.000  H
  H552     1.0000 0.21729  0.13252  0.87001  Biso   1.000  H
  C725     1.0000 0.20519  0.60691  0.02901  Biso   1.000  C
  H553     1.0000 0.32422  0.63602  0.05400  Biso   1.000  H
  C726     1.0000 0.12349  0.60710  0.04622  Biso   1.000  C
  H554     1.0000 0.09034  0.62730  0.10300  Biso   1.000  H
  H555     1.0000 0.09027  0.62730  0.10300  Biso   1.000  H
  C727     1.0000 0.48329  0.66347  0.12787  Biso   1.000  C
  H556     1.0000 0.35532  0.68122  0.19701  Biso   1.000  H
  C728     1.0000 0.46822  0.67803  0.16875  Biso   1.000  C
  C729     1.0000 0.89293  0.32388  0.77119  Biso   1.000  C
  C730     1.0000 0.96150  0.19829  0.79962  Biso   1.000  C
  C731     1.0000 0.89287  0.32388  0.77119  Biso   1.000  C
  C732     1.0000 0.93593  0.34899  0.78680  Biso   1.000  C
  H557     1.0000 0.83357  0.42662  0.75300  Biso   1.000  H
  H558     1.0000 0.90240  0.46942  0.77629  Biso   1.000  H
  C733     1.0000 0.90901  0.10440  0.12488  Biso   1.000  C
  H559     1.0000 0.87164  0.19270  0.16039  Biso   1.000  H
  H560     1.0000 0.87158  0.19270  0.16039  Biso   1.000  H
  H561     1.0000 0.96654  0.03918  0.08359  Biso   1.000  H
  H562     1.0000 0.96648  0.03918  0.08359  Biso   1.000  H
  C734     1.0000 0.13869  0.96272  0.85687  Biso   1.000  C
  H563     1.0000 0.06928  0.96702  0.80789  Biso   1.000  H
  H564     1.0000 0.14451  0.90291  0.79881  Biso   1.000  H
  H565     1.0000 0.21881  0.98870  0.90300  Biso   1.000  H
  H566     1.0000 0.15531  0.02622  0.90059  Biso   1.000  H
  C735     1.0000 0.22272  0.58732  0.99051  Biso   1.000  C
  H567     1.0000 0.07120  0.59740  0.03299  Biso   1.000  H
  C736     1.0000 0.56435  0.66581  0.11156  Biso   1.000  C
  C737     1.0000 0.56428  0.66581  0.11156  Biso   1.000  C
  H568     1.0000 0.50985  0.68853  0.18839  Biso   1.000  H
  H569     1.0000 0.50978  0.68853  0.18839  Biso   1.000  H
  H570     1.0000 0.92557  0.31700  0.74859  Biso   1.000  H
  H571     1.0000 0.92557  0.31700  0.74861  Biso   1.000  H
  N77      1.0000 0.91101  0.12233  0.80476  Biso   1.000  N
  H572     1.0000 0.98978  0.19749  0.77429  Biso   1.000  H
  H573     1.0000 0.98149  0.19891  0.77261  Biso   1.000  H
  H574     1.0000 0.00521  0.20308  0.82051  Biso   1.000  H
  H575     1.0000 0.01210  0.19442  0.81689  Biso   1.000  H
  H576     1.0000 0.97939  0.34758  0.76840  Biso   1.000  H
  C738     1.0000 0.86144  0.03728  0.14313  Biso   1.000  C
  C739     1.0000 0.86138  0.03728  0.14313  Biso   1.000  C
  C740     1.0000 0.09112  0.89560  0.87512  Biso   1.000  C
  C741     1.0000 0.30394  0.58223  0.97499  Biso   1.000  C
  C742     1.0000 0.14790  0.57363  0.96460  Biso   1.000  C
  C743     1.0000 0.30387  0.58223  0.97499  Biso   1.000  C
  C744     1.0000 0.58160  0.65402  0.07262  Biso   1.000  C
  C745     1.0000 0.63751  0.68398  0.13843  Biso   1.000  C
  C746     1.0000 0.92354  0.07738  0.83723  Biso   1.000  C
  C747     1.0000 0.84952  0.10341  0.77786  Biso   1.000  C
  C748     1.0000 0.92348  0.07738  0.83726  Biso   1.000  C
  C749     1.0000 0.84946  0.10341  0.77786  Biso   1.000  C
  C750     1.0000 0.88273  0.01062  0.17905  Biso   1.000  C
  C751     1.0000 0.79443  0.99822  0.12331  Biso   1.000  C
  C752     1.0000 0.79437  0.99822  0.12331  Biso   1.000  C
  C753     1.0000 0.83599  0.97802  0.12639  Biso   1.000  C
  C754     1.0000 0.83931  0.04980  0.18671  Biso   1.000  C
  C755     1.0000 0.09531  0.81829  0.86166  Biso   1.000  C
  C756     1.0000 0.03962  0.90739  0.90579  Biso   1.000  C
  N78      1.0000 0.37856  0.59942  0.99428  Biso   1.000  N
  C757     1.0000 0.31950  0.55987  0.93518  Biso   1.000  C
  N79      1.0000 0.37849  0.59942  0.99428  Biso   1.000  N
  C758     1.0000 0.13251  0.49742  0.94725  Biso   1.000  C
  C759     1.0000 0.09031  0.63731  0.95781  Biso   1.000  C
  N80      1.0000 0.52463  0.63111  0.04410  Biso   1.000  N
  C760     1.0000 0.66118  0.66618  0.05466  Biso   1.000  C
  N81      1.0000 0.52457  0.63111  0.04410  Biso   1.000  N
  C761     1.0000 0.64425  0.76038  0.15578  Biso   1.000  C
  C762     1.0000 0.69673  0.62429  0.14754  Biso   1.000  C
  C763     1.0000 0.64418  0.76038  0.15578  Biso   1.000  C
  H577     1.0000 0.96668  0.09150  0.85559  Biso   1.000  H
  C764     1.0000 0.87182  0.01050  0.84306  Biso   1.000  C
  C765     1.0000 0.79784  0.03703  0.78320  Biso   1.000  C
  H578     1.0000 0.84253  0.13639  0.75529  Biso   1.000  H
  C766     1.0000 0.79777  0.03703  0.78320  Biso   1.000  C
  H579     1.0000 0.84246  0.13639  0.75529  Biso   1.000  H
  C767     1.0000 0.83590  0.95192  0.19690  Biso   1.000  C
  C768     1.0000 0.79481  0.98692  0.20200  Biso   1.000  C
  H580     1.0000 0.93085  0.03298  0.19211  Biso   1.000  H
  H581     1.0000 0.93078  0.03298  0.19211  Biso   1.000  H
  H582     1.0000 0.78132  0.01130  0.09700  Biso   1.000  H
  C769     1.0000 0.74794  0.94019  0.14281  Biso   1.000  C
  C770     1.0000 0.74787  0.94019  0.14281  Biso   1.000  C
  C771     1.0000 0.79403  0.91611  0.14441  Biso   1.000  C
  H583     1.0000 0.84481  0.97378  0.09941  Biso   1.000  H
  H584     1.0000 0.85562  0.09709  0.20119  Biso   1.000  H
  C772     1.0000 0.05199  0.75350  0.87915  Biso   1.000  C
  H585     1.0000 0.12848  0.80730  0.83961  Biso   1.000  H
  C773     1.0000 0.99605  0.84230  0.92180  Biso   1.000  C
  C774     1.0000 0.99598  0.84230  0.92180  Biso   1.000  C
  H586     1.0000 0.03359  0.96082  0.91641  Biso   1.000  H
  C775     1.0000 0.44034  0.59138  0.96745  Biso   1.000  C
  C776     1.0000 0.44028  0.59138  0.96745  Biso   1.000  C
  C777     1.0000 0.40392  0.56497  0.93057  Biso   1.000  C
  H587     1.0000 0.27853  0.54458  0.91600  Biso   1.000  H
  H588     1.0000 0.27847  0.54458  0.91600  Biso   1.000  H
  H589     1.0000 0.17053  0.45290  0.95149  Biso   1.000  H
  C778     1.0000 0.06110  0.48760  0.92384  Biso   1.000  C
  H590     1.0000 0.17047  0.45290  0.95149  Biso   1.000  H
  C779     1.0000 0.06110  0.48760  0.92386  Biso   1.000  C
  C780     1.0000 0.01989  0.62730  0.93417  Biso   1.000  C
  H591     1.0000 0.10012  0.68902  0.96980  Biso   1.000  H
  H592     1.0000 0.46373  0.63400  0.04811  Biso   1.000  H
  C781     1.0000 0.56480  0.62908  0.00908  Biso   1.000  C
  H593     1.0000 0.46367  0.63400  0.04811  Biso   1.000  H
  H594     1.0000 0.71250  0.68122  0.06749  Biso   1.000  H
  C782     1.0000 0.65063  0.65279  0.01634  Biso   1.000  C
  C783     1.0000 0.65056  0.65279  0.01634  Biso   1.000  C
  H595     1.0000 0.60374  0.80183  0.14980  Biso   1.000  H
  C784     1.0000 0.71005  0.77677  0.18192  Biso   1.000  C
  H596     1.0000 0.60368  0.80183  0.14980  Biso   1.000  H
  C785     1.0000 0.70999  0.77677  0.18192  Biso   1.000  C
  C786     1.0000 0.76250  0.64063  0.17293  Biso   1.000  C
  H597     1.0000 0.69181  0.57142  0.13611  Biso   1.000  H
  H598     1.0000 0.87940  0.97863  0.86589  Biso   1.000  H
  C787     1.0000 0.80921  0.98858  0.81645  Biso   1.000  C
  H599     1.0000 0.75481  0.02401  0.76460  Biso   1.000  H
  N82      1.0000 0.76880  0.91931  0.18030  Biso   1.000  N
  H600     1.0000 0.85256  0.93423  0.22220  Biso   1.000  H
  H601     1.0000 0.85250  0.93423  0.22220  Biso   1.000  H
  H602     1.0000 0.78080  0.98931  0.22870  Biso   1.000  H
  H603     1.0000 0.70104  0.91458  0.13010  Biso   1.000  H
  H604     1.0000 0.70097  0.91458  0.13010  Biso   1.000  H
  H605     1.0000 0.78283  0.86748  0.12999  Biso   1.000  H
  N83      1.0000 0.00552  0.76941  0.90927  Biso   1.000  N
  H606     1.0000 0.05631  0.69921  0.86940  Biso   1.000  H
  H607     1.0000 0.95851  0.85219  0.94241  Biso   1.000  H
  C788     1.0000 0.52660  0.60949  0.97334  Biso   1.000  C
  H608     1.0000 0.43364  0.55349  0.90759  Biso   1.000  H
  H609     1.0000 0.43358  0.55349  0.90759  Biso   1.000  H
  H610     1.0000 0.05004  0.43589  0.91211  Biso   1.000  H
  C789     1.0000 0.00510  0.55251  0.91725  Biso   1.000  C
  H611     1.0000 0.04997  0.43589  0.91211  Biso   1.000  H
  C790     1.0000 0.95973  0.69829  0.92769  Biso   1.000  C
  C791     1.0000 0.95967  0.69829  0.92769  Biso   1.000  C
  H612     1.0000 0.69305  0.65819  0.99739  Biso   1.000  H
  H613     1.0000 0.69298  0.65819  0.99739  Biso   1.000  H
  C792     1.0000 0.76930  0.71733  0.19028  Biso   1.000  C
  C793     1.0000 0.71461  0.86011  0.20110  Biso   1.000  C
  H614     1.0000 0.80331  0.59930  0.17870  Biso   1.000  H
  C794     1.0000 0.75199  0.91998  0.82330  Biso   1.000  C
  C795     1.0000 0.58060  0.61232  0.93840  Biso   1.000  C
  H615     1.0000 0.95663  0.54471  0.90091  Biso   1.000  H
  H616     1.0000 0.95657  0.54471  0.90091  Biso   1.000  H
  H617     1.0000 0.93675  0.71579  0.95291  Biso   1.000  H
  H618     1.0000 0.91205  0.68073  0.91060  Biso   1.000  H
  H619     1.0000 0.93668  0.71579  0.95291  Biso   1.000  H
  H620     1.0000 0.91198  0.68073  0.91060  Biso   1.000  H
  H621     1.0000 0.81492  0.72869  0.20789  Biso   1.000  H
  H622     1.0000 0.73690  0.85341  0.22800  Biso   1.000  H
  H623     1.0000 0.65693  0.88289  0.20261  Biso   1.000  H
  C796     1.0000 0.73163  0.89671  0.86064  Biso   1.000  C
  C797     1.0000 0.71658  0.87583  0.79292  Biso   1.000  C
  C798     1.0000 0.73156  0.89671  0.86064  Biso   1.000  C
  C799     1.0000 0.65252  0.56417  0.93518  Biso   1.000  C
  C800     1.0000 0.55909  0.66630  0.90828  Biso   1.000  C
  H624     1.0000 0.75574  0.92508  0.88229  Biso   1.000  H
  C801     1.0000 0.67851  0.83481  0.86636  Biso   1.000  C
  H625     1.0000 0.75568  0.92508  0.88229  Biso   1.000  H
  C802     1.0000 0.66169  0.81338  0.79965  Biso   1.000  C
  H626     1.0000 0.73069  0.88909  0.76701  Biso   1.000  H
  H627     1.0000 0.66805  0.52751  0.95549  Biso   1.000  H
  C803     1.0000 0.70202  0.56939  0.90239  Biso   1.000  C
  H628     1.0000 0.66799  0.52751  0.95549  Biso   1.000  H
  C804     1.0000 0.60814  0.67121  0.87526  Biso   1.000  C
  H629     1.0000 0.51053  0.70007  0.91029  Biso   1.000  H
  C805     1.0000 0.60807  0.67121  0.87526  Biso   1.000  C
  H630     1.0000 0.51053  0.70007  0.91031  Biso   1.000  H
  N84      1.0000 0.64300  0.79397  0.83638  Biso   1.000  N
  H631     1.0000 0.66553  0.81921  0.89209  Biso   1.000  H
  H632     1.0000 0.63678  0.78390  0.77859  Biso   1.000  H
  H633     1.0000 0.75129  0.53660  0.90059  Biso   1.000  H
  C806     1.0000 0.67912  0.62270  0.87228  Biso   1.000  C
  C807     1.0000 0.58003  0.72802  0.84315  Biso   1.000  C
  C808     1.0000 0.57996  0.72802  0.84315  Biso   1.000  C
  H634     1.0000 0.71240  0.62571  0.84970  Biso   1.000  H
  H635     1.0000 0.52538  0.75332  0.84979  Biso   1.000  H
  H636     1.0000 0.57132  0.69602  0.81900  Biso   1.000  H
  C809     1.0000 0.53185  0.17803  0.33126  Biso   1.000  C
  C810     1.0000 0.51678  0.16347  0.37212  Biso   1.000  C
  C811     1.0000 0.61563  0.17361  0.32656  Biso   1.000  C
  H637     1.0000 0.49022  0.18853  0.31159  Biso   1.000  H
  C812     1.0000 0.43572  0.16581  0.38845  Biso   1.000  C
  N85      1.0000 0.59127  0.14959  0.39138  Biso   1.000  N
  C813     1.0000 0.65265  0.15500  0.36399  Biso   1.000  C
  H638     1.0000 0.64475  0.18122  0.30300  Biso   1.000  H
  C814     1.0000 0.36256  0.18398  0.36158  Biso   1.000  C
  C815     1.0000 0.41847  0.15402  0.42736  Biso   1.000  C
  C816     1.0000 0.74043  0.14763  0.37139  Biso   1.000  C
  C817     1.0000 0.35582  0.26038  0.34420  Biso   1.000  C
  C818     1.0000 0.30334  0.12429  0.35247  Biso   1.000  C
  N86      1.0000 0.47544  0.13111  0.45591  Biso   1.000  N
  C819     1.0000 0.33882  0.16618  0.44535  Biso   1.000  C
  C820     1.0000 0.77784  0.13418  0.40766  Biso   1.000  C
  C821     1.0000 0.79492  0.15709  0.33620  Biso   1.000  C
  C822     1.0000 0.80901  0.14198  0.34159  Biso   1.000  C
  C823     1.0000 0.29001  0.27677  0.31809  Biso   1.000  C
  H639     1.0000 0.39633  0.30183  0.35021  Biso   1.000  H
  C824     1.0000 0.23757  0.14063  0.32706  Biso   1.000  C
  H640     1.0000 0.30826  0.07142  0.36391  Biso   1.000  H
  H641     1.0000 0.53634  0.13400  0.45191  Biso   1.000  H
  C825     1.0000 0.43527  0.12908  0.49093  Biso   1.000  C
  H642     1.0000 0.28756  0.18122  0.43250  Biso   1.000  H
  C826     1.0000 0.34944  0.15279  0.48365  Biso   1.000  C
  N87      1.0000 0.73688  0.12528  0.44213  Biso   1.000  N
  C827     1.0000 0.86615  0.12362  0.41538  Biso   1.000  C
  C828     1.0000 0.85395  0.21672  0.33390  Biso   1.000  C
  C829     1.0000 0.78775  0.10041  0.30619  Biso   1.000  C
  C830     1.0000 0.84704  0.22900  0.33570  Biso   1.000  C
  C831     1.0000 0.82816  0.07480  0.32041  Biso   1.000  C
  C832     1.0000 0.23071  0.21733  0.30973  Biso   1.000  C
  C833     1.0000 0.28546  0.36011  0.29891  Biso   1.000  C
  H643     1.0000 0.19676  0.09930  0.32131  Biso   1.000  H
  C834     1.0000 0.47359  0.10949  0.52665  Biso   1.000  C
  H644     1.0000 0.30715  0.15819  0.50260  Biso   1.000  H
  C835     1.0000 0.79487  0.10691  0.47097  Biso   1.000  C
  H645     1.0000 0.67585  0.13602  0.44599  Biso   1.000  H
  C836     1.0000 0.87658  0.10710  0.45379  Biso   1.000  C
  H646     1.0000 0.90973  0.12730  0.39701  Biso   1.000  H
  H647     1.0000 0.86395  0.25068  0.35590  Biso   1.000  H
  C837     1.0000 0.90024  0.23059  0.30141  Biso   1.000  C
  H648     1.0000 0.82855  0.27837  0.34740  Biso   1.000  H
  C838     1.0000 0.92004  0.21997  0.30721  Biso   1.000  C
  C839     1.0000 0.83783  0.11158  0.27381  Biso   1.000  C
  H649     1.0000 0.74995  0.05533  0.30770  Biso   1.000  H
  C840     1.0000 0.89093  0.07738  0.29180  Biso   1.000  C
  H650     1.0000 0.79903  0.02469  0.32491  Biso   1.000  H
  H651     1.0000 0.18514  0.22869  0.29209  Biso   1.000  H
  N88      1.0000 0.23127  0.41931  0.31969  Biso   1.000  N
  H652     1.0000 0.26310  0.35341  0.27199  Biso   1.000  H
  H653     1.0000 0.34314  0.38289  0.29740  Biso   1.000  H
  C841     1.0000 0.55985  0.09138  0.53254  Biso   1.000  C
  C842     1.0000 0.41959  0.11232  0.56161  Biso   1.000  C
  C843     1.0000 0.77748  0.08732  0.50950  Biso   1.000  C
  H654     1.0000 0.92887  0.09740  0.46700  Biso   1.000  H
  C844     1.0000 0.89281  0.17612  0.27120  Biso   1.000  C
  C845     1.0000 0.96144  0.30171  0.29961  Biso   1.000  C
  C846     1.0000 0.93581  0.15101  0.28681  Biso   1.000  C
  H655     1.0000 0.83352  0.07338  0.25301  Biso   1.000  H
  H656     1.0000 0.90234  0.03058  0.27631  Biso   1.000  H
  C847     1.0000 0.16417  0.45192  0.30309  Biso   1.000  C
  C848     1.0000 0.25213  0.44019  0.35720  Biso   1.000  C
  C849     1.0000 0.20526  0.48692  0.29801  Biso   1.000  C
  C850     1.0000 0.20604  0.41611  0.35561  Biso   1.000  C
  N89      1.0000 0.62163  0.09942  0.50570  Biso   1.000  N
  C851     1.0000 0.59627  0.06497  0.56942  Biso   1.000  C
  C852     1.0000 0.34767  0.06417  0.56481  Biso   1.000  C
  C853     1.0000 0.44110  0.16630  0.59173  Biso   1.000  C
  C854     1.0000 0.69626  0.08223  0.52500  Biso   1.000  C
  C855     1.0000 0.85224  0.07363  0.53541  Biso   1.000  C
  H657     1.0000 0.92551  0.18300  0.24860  Biso   1.000  H
  N90      1.0000 0.91095  0.37767  0.30474  Biso   1.000  N
  H658     1.0000 0.98972  0.30251  0.27431  Biso   1.000  H
  H659     1.0000 0.98143  0.30109  0.27260  Biso   1.000  H
  H660     1.0000 0.00515  0.29692  0.32050  Biso   1.000  H
  H661     1.0000 0.01204  0.30558  0.31690  Biso   1.000  H
  H662     1.0000 0.97933  0.15242  0.26839  Biso   1.000  H
  C856     1.0000 0.11734  0.51062  0.32096  Biso   1.000  C
  H663     1.0000 0.14751  0.43423  0.27779  Biso   1.000  H
  C857     1.0000 0.16076  0.54980  0.31330  Biso   1.000  C
  H664     1.0000 0.29903  0.41458  0.36991  Biso   1.000  H
  C858     1.0000 0.20564  0.49822  0.37670  Biso   1.000  C
  C859     1.0000 0.16401  0.47802  0.37360  Biso   1.000  C
  H665     1.0000 0.21920  0.48931  0.27129  Biso   1.000  H
  H666     1.0000 0.21723  0.36748  0.37000  Biso   1.000  H
  H667     1.0000 0.56655  0.05349  0.59240  Biso   1.000  H
  C860     1.0000 0.68069  0.05987  0.56483  Biso   1.000  C
  H668     1.0000 0.33214  0.02751  0.54449  Biso   1.000  H
  C861     1.0000 0.29817  0.06939  0.59759  Biso   1.000  C
  C862     1.0000 0.39206  0.17121  0.62472  Biso   1.000  C
  H669     1.0000 0.48967  0.20007  0.58970  Biso   1.000  H
  C863     1.0000 0.90989  0.13731  0.54220  Biso   1.000  C
  C864     1.0000 0.86768  0.99742  0.55273  Biso   1.000  C
  C865     1.0000 0.92342  0.42262  0.33724  Biso   1.000  C
  C866     1.0000 0.84946  0.39659  0.27785  Biso   1.000  C
  C867     1.0000 0.13863  0.53728  0.35688  Biso   1.000  C
  H670     1.0000 0.06922  0.53298  0.30791  Biso   1.000  H
  H671     1.0000 0.14445  0.59709  0.29880  Biso   1.000  H
  H672     1.0000 0.21875  0.51130  0.40299  Biso   1.000  H
  H673     1.0000 0.15526  0.47378  0.40061  Biso   1.000  H
  H674     1.0000 0.72166  0.04458  0.58401  Biso   1.000  H
  H675     1.0000 0.24884  0.03660  0.59939  Biso   1.000  H
  C868     1.0000 0.32107  0.12270  0.62771  Biso   1.000  C
  C869     1.0000 0.42017  0.22802  0.65687  Biso   1.000  C
  C870     1.0000 0.98024  0.12730  0.56585  Biso   1.000  C
  H676     1.0000 0.90007  0.18902  0.53019  Biso   1.000  H
  H677     1.0000 0.82966  0.95290  0.54850  Biso   1.000  H
  C871     1.0000 0.93910  0.98760  0.57615  Biso   1.000  C
  H678     1.0000 0.96663  0.40850  0.35561  Biso   1.000  H
  C872     1.0000 0.87176  0.48950  0.34304  Biso   1.000  C
  C873     1.0000 0.79771  0.46297  0.28319  Biso   1.000  C
  H679     1.0000 0.84240  0.36361  0.25530  Biso   1.000  H
  C874     1.0000 0.09106  0.60440  0.37513  Biso   1.000  C
  H680     1.0000 0.28779  0.12571  0.65031  Biso   1.000  H
  N91      1.0000 0.35719  0.29397  0.66363  Biso   1.000  N
  H681     1.0000 0.47475  0.25332  0.65020  Biso   1.000  H
  H682     1.0000 0.42888  0.19602  0.68101  Biso   1.000  H
  C875     1.0000 0.99510  0.05251  0.58277  Biso   1.000  C
  C876     1.0000 0.04046  0.19829  0.57229  Biso   1.000  C
  H683     1.0000 0.95016  0.93589  0.58790  Biso   1.000  H
  H684     1.0000 0.87934  0.52137  0.36591  Biso   1.000  H
  C877     1.0000 0.80915  0.51142  0.31644  Biso   1.000  C
  H685     1.0000 0.75475  0.47599  0.26459  Biso   1.000  H
  C878     1.0000 0.09525  0.68171  0.36164  Biso   1.000  C
  C879     1.0000 0.03957  0.59261  0.40580  Biso   1.000  C
  C880     1.0000 0.32168  0.33481  0.63363  Biso   1.000  C
  C881     1.0000 0.33851  0.31338  0.70033  Biso   1.000  C
  H686     1.0000 0.04356  0.04471  0.59910  Biso   1.000  H
  N92      1.0000 0.99467  0.26941  0.59074  Biso   1.000  N
  H687     1.0000 0.06345  0.21579  0.54711  Biso   1.000  H
  H688     1.0000 0.08815  0.18073  0.58941  Biso   1.000  H
  C882     1.0000 0.75193  0.58002  0.32331  Biso   1.000  C
  C883     1.0000 0.05194  0.74650  0.37917  Biso   1.000  C
  H689     1.0000 0.12843  0.69270  0.33959  Biso   1.000  H
  H690     1.0000 0.03353  0.53918  0.41639  Biso   1.000  H
  C884     1.0000 0.99592  0.65770  0.42179  Biso   1.000  C
  C885     1.0000 0.26857  0.39671  0.63934  Biso   1.000  C
  H691     1.0000 0.33467  0.31921  0.60789  Biso   1.000  H
  H692     1.0000 0.36341  0.28390  0.72140  Biso   1.000  H
  C886     1.0000 0.28361  0.37583  0.70709  Biso   1.000  C
  C887     1.0000 0.94820  0.25350  0.62083  Biso   1.000  C
  C888     1.0000 0.00415  0.34230  0.57821  Biso   1.000  C
  C889     1.0000 0.73157  0.60329  0.36066  Biso   1.000  C
  C890     1.0000 0.71652  0.62417  0.29291  Biso   1.000  C
  N93      1.0000 0.00546  0.73059  0.40926  Biso   1.000  N
  H693     1.0000 0.05625  0.80079  0.36939  Biso   1.000  H
  H694     1.0000 0.95845  0.64781  0.44239  Biso   1.000  H
  C891     1.0000 0.24821  0.41998  0.67669  Biso   1.000  C
  H695     1.0000 0.24445  0.42508  0.61770  Biso   1.000  H
  H696     1.0000 0.26950  0.38909  0.73300  Biso   1.000  H
  H697     1.0000 0.94389  0.19921  0.63061  Biso   1.000  H
  C892     1.0000 0.90489  0.31829  0.63836  Biso   1.000  C
  C893     1.0000 0.96057  0.40739  0.59420  Biso   1.000  C
  H698     1.0000 0.04169  0.35219  0.55761  Biso   1.000  H
  H699     1.0000 0.75562  0.57492  0.38230  Biso   1.000  H
  C894     1.0000 0.67845  0.66519  0.36637  Biso   1.000  C
  C895     1.0000 0.66163  0.68662  0.29967  Biso   1.000  C
  H700     1.0000 0.73063  0.61091  0.26700  Biso   1.000  H
  C896     1.0000 0.95967  0.80171  0.42771  Biso   1.000  C
  C897     1.0000 0.19098  0.48858  0.68356  Biso   1.000  C
  H701     1.0000 0.87171  0.30730  0.66041  Biso   1.000  H
  C898     1.0000 0.90908  0.39560  0.62487  Biso   1.000  C
  H702     1.0000 0.96654  0.46082  0.58361  Biso   1.000  H
  N94      1.0000 0.64294  0.70603  0.33637  Biso   1.000  N
  H703     1.0000 0.66547  0.68079  0.39211  Biso   1.000  H
  H704     1.0000 0.63672  0.71610  0.27860  Biso   1.000  H
  C899     1.0000 0.01983  0.87270  0.43415  Biso   1.000  C
  H705     1.0000 0.93662  0.78421  0.45289  Biso   1.000  H
  H706     1.0000 0.91192  0.81927  0.41059  Biso   1.000  H
  C900     1.0000 0.12837  0.51050  0.65696  Biso   1.000  C
  C901     1.0000 0.20236  0.53703  0.71681  Biso   1.000  C
  C902     1.0000 0.86151  0.46272  0.64312  Biso   1.000  C
  C903     1.0000 0.57997  0.77198  0.34313  Biso   1.000  C
  C904     1.0000 0.00504  0.94749  0.41724  Biso   1.000  C
  C905     1.0000 0.09025  0.86269  0.45780  Biso   1.000  C
  C906     1.0000 0.07665  0.57738  0.66276  Biso   1.000  C
  H707     1.0000 0.12079  0.47863  0.63409  Biso   1.000  H
  H708     1.0000 0.24538  0.52401  0.73541  Biso   1.000  H
  C907     1.0000 0.15068  0.60341  0.72215  Biso   1.000  C
  C908     1.0000 0.88280  0.48938  0.67904  Biso   1.000  C
  C909     1.0000 0.79450  0.50178  0.62330  Biso   1.000  C
  C910     1.0000 0.83937  0.45020  0.68670  Biso   1.000  C
  C911     1.0000 0.83606  0.52198  0.62640  Biso   1.000  C
  H709     1.0000 0.52532  0.74668  0.34980  Biso   1.000  H
  H710     1.0000 0.57126  0.80398  0.31899  Biso   1.000  H
  C912     1.0000 0.60808  0.82879  0.37528  Biso   1.000  C
  H711     1.0000 0.95657  0.95529  0.40090  Biso   1.000  H
  C913     1.0000 0.06104  0.01240  0.42385  Biso   1.000  C
  C914     1.0000 0.14784  0.92637  0.46459  Biso   1.000  C
  H712     1.0000 0.10006  0.81098  0.46981  Biso   1.000  H
  N95      1.0000 0.08919  0.62233  0.69526  Biso   1.000  N
  H713     1.0000 0.03345  0.59150  0.64439  Biso   1.000  H
  H714     1.0000 0.15767  0.63639  0.74470  Biso   1.000  H
  H715     1.0000 0.93091  0.46702  0.69209  Biso   1.000  H
  C915     1.0000 0.83597  0.54808  0.69691  Biso   1.000  C
  C916     1.0000 0.79488  0.51308  0.70199  Biso   1.000  C
  C917     1.0000 0.74800  0.55981  0.64280  Biso   1.000  C
  H716     1.0000 0.78139  0.48870  0.59701  Biso   1.000  H
  C918     1.0000 0.79410  0.58389  0.64439  Biso   1.000  C
  H717     1.0000 0.84488  0.52622  0.59939  Biso   1.000  H
  H718     1.0000 0.85569  0.40291  0.70120  Biso   1.000  H
  C919     1.0000 0.55903  0.83370  0.40827  Biso   1.000  C
  C920     1.0000 0.67906  0.87730  0.37229  Biso   1.000  C
  C921     1.0000 0.13246  0.00258  0.44727  Biso   1.000  C
  H719     1.0000 0.04998  0.06411  0.41210  Biso   1.000  H
  C922     1.0000 0.22266  0.91268  0.49050  Biso   1.000  C
  C923     1.0000 0.03869  0.69829  0.70039  Biso   1.000  C
  N96      1.0000 0.76887  0.58069  0.68031  Biso   1.000  N
  H720     1.0000 0.85257  0.56577  0.72221  Biso   1.000  H
  H721     1.0000 0.78087  0.51069  0.72871  Biso   1.000  H
  H722     1.0000 0.70110  0.58542  0.63009  Biso   1.000  H
  H723     1.0000 0.78290  0.63252  0.63000  Biso   1.000  H
  C924     1.0000 0.58054  0.88768  0.43839  Biso   1.000  C
  H724     1.0000 0.51047  0.79993  0.41030  Biso   1.000  H
  C925     1.0000 0.70196  0.93061  0.40241  Biso   1.000  C
  H725     1.0000 0.71234  0.87429  0.34969  Biso   1.000  H
  H726     1.0000 0.17048  0.04710  0.45150  Biso   1.000  H
  C926     1.0000 0.20526  0.89309  0.52903  Biso   1.000  C
  C927     1.0000 0.30388  0.91777  0.47500  Biso   1.000  C
  C928     1.0000 0.09989  0.76941  0.69859  Biso   1.000  C
  H727     1.0000 0.01041  0.69749  0.72569  Biso   1.000  H
  C929     1.0000 0.08010  0.78003  0.69279  Biso   1.000  C
  H728     1.0000 0.01870  0.69891  0.72740  Biso   1.000  H
  H729     1.0000 0.99498  0.70308  0.67950  Biso   1.000  H
  H730     1.0000 0.98809  0.69442  0.68310  Biso   1.000  H
  C930     1.0000 0.71467  0.63989  0.70109  Biso   1.000  C
  C931     1.0000 0.52655  0.89051  0.47335  Biso   1.000  C
  C932     1.0000 0.65246  0.93583  0.43520  Biso   1.000  C
  H731     1.0000 0.75123  0.96340  0.40061  Biso   1.000  H
  N97      1.0000 0.26325  0.87472  0.55787  Biso   1.000  N
  C933     1.0000 0.12356  0.89290  0.54621  Biso   1.000  C
  N98      1.0000 0.37844  0.90058  0.49430  Biso   1.000  N
  C934     1.0000 0.31945  0.94013  0.43517  Biso   1.000  C
  C935     1.0000 0.14618  0.78328  0.66610  Biso   1.000  C
  C936     1.0000 0.15310  0.77100  0.66430  Biso   1.000  C
  C937     1.0000 0.10726  0.82388  0.72880  Biso   1.000  C
  C938     1.0000 0.06426  0.84899  0.71319  Biso   1.000  C
  H732     1.0000 0.73697  0.64659  0.72801  Biso   1.000  H
  H733     1.0000 0.65699  0.61711  0.70260  Biso   1.000  H
  C939     1.0000 0.71006  0.72323  0.68191  Biso   1.000  C
  C940     1.0000 0.44028  0.90862  0.46746  Biso   1.000  C
  C941     1.0000 0.56487  0.87092  0.50907  Biso   1.000  C
  H734     1.0000 0.66793  0.97249  0.45551  Biso   1.000  H
  C942     1.0000 0.22230  0.86582  0.59234  Biso   1.000  C
  H735     1.0000 0.32428  0.86398  0.55401  Biso   1.000  H
  H736     1.0000 0.07127  0.90260  0.53300  Biso   1.000  H
  C943     1.0000 0.13399  0.87638  0.58462  Biso   1.000  C
  C944     1.0000 0.40386  0.93503  0.43058  Biso   1.000  C
  H737     1.0000 0.27847  0.95542  0.41599  Biso   1.000  H
  C945     1.0000 0.20515  0.84291  0.66380  Biso   1.000  C
  C946     1.0000 0.19106  0.85802  0.65841  Biso   1.000  C
  H738     1.0000 0.13619  0.74932  0.64410  Biso   1.000  H
  H739     1.0000 0.17158  0.72163  0.65260  Biso   1.000  H
  C947     1.0000 0.16230  0.88842  0.72622  Biso   1.000  C
  C948     1.0000 0.10921  0.92262  0.70820  Biso   1.000  C
  H740     1.0000 0.07456  0.81700  0.75140  Biso   1.000  H
  H741     1.0000 0.02080  0.84758  0.73161  Biso   1.000  H
  C949     1.0000 0.64425  0.73962  0.65580  Biso   1.000  C
  C950     1.0000 0.76936  0.78267  0.69027  Biso   1.000  C
  N99      1.0000 0.52464  0.86889  0.54409  Biso   1.000  N
  C951     1.0000 0.65069  0.84721  0.51635  Biso   1.000  C
  C952     1.0000 0.25970  0.85237  0.62861  Biso   1.000  C
  H742     1.0000 0.09034  0.87270  0.60299  Biso   1.000  H
  H743     1.0000 0.43352  0.94651  0.40760  Biso   1.000  H
  C953     1.0000 0.21238  0.89959  0.69381  Biso   1.000  C
  C954     1.0000 0.17198  0.92520  0.67959  Biso   1.000  C
  H744     1.0000 0.16656  0.92662  0.74699  Biso   1.000  H
  H745     1.0000 0.09780  0.96942  0.72369  Biso   1.000  H
  C955     1.0000 0.63758  0.81602  0.63844  Biso   1.000  C
  H746     1.0000 0.60381  0.69817  0.64979  Biso   1.000  H
  C956     1.0000 0.76257  0.85937  0.67294  Biso   1.000  C
  H747     1.0000 0.81499  0.77131  0.70791  Biso   1.000  H
  H748     1.0000 0.46374  0.86600  0.54809  Biso   1.000  H
  C957     1.0000 0.58167  0.84598  0.57264  Biso   1.000  C
  C958     1.0000 0.66125  0.83382  0.55465  Biso   1.000  C
  H749     1.0000 0.69299  0.84181  0.49740  Biso   1.000  H
  C959     1.0000 0.34749  0.84500  0.63601  Biso   1.000  C
  H750     1.0000 0.25018  0.94467  0.69230  Biso   1.000  H
  H751     1.0000 0.20110  0.97531  0.67509  Biso   1.000  H
  C960     1.0000 0.56435  0.83419  0.61155  Biso   1.000  C
  C961     1.0000 0.69680  0.87571  0.64753  Biso   1.000  C
  H752     1.0000 0.80338  0.90070  0.67869  Biso   1.000  H
  H753     1.0000 0.71257  0.81878  0.56750  Biso   1.000  H
  N100     1.0000 0.40887  0.85041  0.60862  Biso   1.000  N
  C962     1.0000 0.38451  0.82639  0.67344  Biso   1.000  C
  C963     1.0000 0.48336  0.83653  0.62788  Biso   1.000  C
  H754     1.0000 0.69187  0.92858  0.63609  Biso   1.000  H
  H755     1.0000 0.35538  0.81878  0.69700  Biso   1.000  H
  C964     1.0000 0.46829  0.82197  0.66874  Biso   1.000  C
  H756     1.0000 0.50991  0.81147  0.68841  Biso   1.000  H
