data_image0
_cell_length_a       16.095
_cell_length_b       17.225
_cell_length_c       36.37
_cell_angle_alpha    90
_cell_angle_beta     90
_cell_angle_gamma    90

_symmetry_space_group_name_H-M    "P 1"
_symmetry_int_tables_number       1

loop_
  _symmetry_equiv_pos_as_xyz
  'x, y, z'

loop_
  _atom_site_label
  _atom_site_occupancy
  _atom_site_fract_x
  _atom_site_fract_y
  _atom_site_fract_z
  _atom_site_thermal_displace_type
  _atom_site_B_iso_or_equiv
  _atom_site_type_symbol
  C1       1.0000 0.43697  0.52192  0.54850  Biso   1.000  C
  O1       1.0000 0.38708  0.57643  0.52986  Biso   1.000  O
  H1       1.0000 0.43169  0.52970  0.57509  Biso   1.000  H
  H2       1.0000 0.49506  0.52871  0.54119  Biso   1.000  H
  H3       1.0000 0.41876  0.46932  0.54221  Biso   1.000  H
  C2       1.0000 0.30258  0.57109  0.53445  Biso   1.000  C
  C3       1.0000 0.25331  0.62154  0.51413  Biso   1.000  C
  C4       1.0000 0.26580  0.51820  0.55859  Biso   1.000  C
  C5       1.0000 0.29090  0.68221  0.48900  Biso   1.000  C
  C6       1.0000 0.16813  0.61637  0.51754  Biso   1.000  C
  C7       1.0000 0.17999  0.51454  0.56255  Biso   1.000  C
  H4       1.0000 0.29997  0.48418  0.57250  Biso   1.000  H
  C8       1.0000 0.31308  0.75559  0.51020  Biso   1.000  C
  H5       1.0000 0.25082  0.69509  0.46929  Biso   1.000  H
  H6       1.0000 0.34147  0.66090  0.47729  Biso   1.000  H
  H7       1.0000 0.13377  0.64940  0.50311  Biso   1.000  H
  C9       1.0000 0.13141  0.56389  0.54155  Biso   1.000  C
  C10      1.0000 0.14259  0.45811  0.58963  Biso   1.000  C
  C11      1.0000 0.26021  0.81829  0.51218  Biso   1.000  C
  C12      1.0000 0.38689  0.75919  0.52975  Biso   1.000  C
  O2       1.0000 0.04623  0.55762  0.54647  Biso   1.000  O
  H8       1.0000 0.17627  0.40999  0.58999  Biso   1.000  H
  H9       1.0000 0.08580  0.44418  0.58150  Biso   1.000  H
  C13      1.0000 0.13843  0.49126  0.62818  Biso   1.000  C
  O3       1.0000 0.18621  0.81318  0.49263  Biso   1.000  O
  C14      1.0000 0.28077  0.88279  0.53357  Biso   1.000  C
  C15      1.0000 0.40739  0.82241  0.55133  Biso   1.000  C
  H10      1.0000 0.42460  0.71681  0.52829  Biso   1.000  H
  C16      1.0000 0.99571  0.59512  0.51977  Biso   1.000  C
  C17      1.0000 0.07021  0.53457  0.63984  Biso   1.000  C
  C18      1.0000 0.20460  0.48180  0.65274  Biso   1.000  C
  C19      1.0000 0.14091  0.88232  0.48900  Biso   1.000  C
  C20      1.0000 0.35346  0.88552  0.55364  Biso   1.000  C
  H11      1.0000 0.24386  0.92581  0.53429  Biso   1.000  H
  O4       1.0000 0.47891  0.82827  0.57138  Biso   1.000  O
  H12      1.0000 0.00162  0.65149  0.52219  Biso   1.000  H
  H13      1.0000 0.01311  0.57910  0.49511  Biso   1.000  H
  H14      1.0000 0.93750  0.58061  0.52359  Biso   1.000  H
  H15      1.0000 0.02510  0.54258  0.62340  Biso   1.000  H
  C21      1.0000 0.06660  0.56615  0.67487  Biso   1.000  C
  O5       1.0000 0.27176  0.44064  0.63962  Biso   1.000  O
  C22      1.0000 0.20019  0.51315  0.68785  Biso   1.000  C
  H16      1.0000 0.11177  0.89341  0.51210  Biso   1.000  H
  H17      1.0000 0.10028  0.87669  0.46910  Biso   1.000  H
  H18      1.0000 0.17900  0.92511  0.48331  Biso   1.000  H
  C23      1.0000 0.37241  0.95448  0.57825  Biso   1.000  C
  C24      1.0000 0.53750  0.76610  0.56918  Biso   1.000  C
  O6       1.0000 0.00193  0.61022  0.68774  Biso   1.000  O
  C25      1.0000 0.13197  0.55512  0.69923  Biso   1.000  C
  C26      1.0000 0.33979  0.42909  0.66448  Biso   1.000  C
  H19      1.0000 0.24529  0.50560  0.70440  Biso   1.000  H
  C27      1.0000 0.34700  0.94055  0.61782  Biso   1.000  C
  H20      1.0000 0.43268  0.96552  0.57729  Biso   1.000  H
  H21      1.0000 0.34272  0.00070  0.56879  Biso   1.000  H
  H22      1.0000 0.50991  0.71710  0.57550  Biso   1.000  H
  H23      1.0000 0.58316  0.77562  0.58639  Biso   1.000  H
  H24      1.0000 0.55937  0.76279  0.54410  Biso   1.000  H
  C28      1.0000 0.92961  0.61782  0.66591  Biso   1.000  C
  C29      1.0000 0.12979  0.58978  0.73794  Biso   1.000  C
  H25      1.0000 0.35899  0.47942  0.67369  Biso   1.000  H
  H26      1.0000 0.38540  0.40308  0.65150  Biso   1.000  H
  H27      1.0000 0.32159  0.39681  0.68510  Biso   1.000  H
  C30      1.0000 0.26729  0.96058  0.63005  Biso   1.000  C
  C31      1.0000 0.40217  0.90839  0.64317  Biso   1.000  C
  H28      1.0000 0.94458  0.63861  0.64171  Biso   1.000  H
  H29      1.0000 0.89059  0.65329  0.67800  Biso   1.000  H
  H30      1.0000 0.90339  0.56691  0.66291  Biso   1.000  H
  H31      1.0000 0.07170  0.59181  0.74680  Biso   1.000  H
  H32      1.0000 0.16179  0.55623  0.75491  Biso   1.000  H
  C32      1.0000 0.16639  0.67083  0.73814  Biso   1.000  C
  O7       1.0000 0.21479  0.99129  0.60401  Biso   1.000  O
  C33      1.0000 0.24579  0.94932  0.66637  Biso   1.000  C
  C34      1.0000 0.37962  0.89573  0.67938  Biso   1.000  C
  H33      1.0000 0.45660  0.89480  0.63539  Biso   1.000  H
  C35      1.0000 0.11761  0.73492  0.72936  Biso   1.000  C
  C36      1.0000 0.25008  0.68290  0.74583  Biso   1.000  C
  C37      1.0000 0.13538  0.01782  0.61702  Biso   1.000  C
  C38      1.0000 0.30022  0.91599  0.69156  Biso   1.000  C
  H34      1.0000 0.19211  0.96470  0.67440  Biso   1.000  H
  O8       1.0000 0.43100  0.86282  0.70522  Biso   1.000  O
  C39      1.0000 0.15110  0.80882  0.72752  Biso   1.000  C
  H35      1.0000 0.06008  0.72778  0.72461  Biso   1.000  H
  C40      1.0000 0.28338  0.75681  0.74405  Biso   1.000  C
  O9       1.0000 0.29537  0.61742  0.75384  Biso   1.000  O
  C41      1.0000 0.27400  0.90061  0.73085  Biso   1.000  C
  C42      1.0000 0.51482  0.84830  0.69489  Biso   1.000  C
  C43      1.0000 0.23548  0.82131  0.73475  Biso   1.000  C
  O10      1.0000 0.10587  0.87431  0.71903  Biso   1.000  O
  H36      1.0000 0.34066  0.76377  0.74930  Biso   1.000  H
  C44      1.0000 0.37906  0.62723  0.76445  Biso   1.000  C
  H37      1.0000 0.32302  0.90438  0.74721  Biso   1.000  H
  H38      1.0000 0.23336  0.94049  0.73860  Biso   1.000  H
  H39      1.0000 0.51668  0.80441  0.67781  Biso   1.000  H
  H40      1.0000 0.54756  0.83599  0.71680  Biso   1.000  H
  H41      1.0000 0.53787  0.89451  0.68290  Biso   1.000  H
  C45      1.0000 0.02752  0.86479  0.70143  Biso   1.000  C
  H42      1.0000 0.41149  0.64581  0.74339  Biso   1.000  H
  H43      1.0000 0.40162  0.57742  0.77289  Biso   1.000  H
  H44      1.0000 0.38242  0.66531  0.78441  Biso   1.000  H
  H45      1.0000 0.03479  0.83489  0.67880  Biso   1.000  H
  H46      1.0000 0.00441  0.91588  0.69549  Biso   1.000  H
  H47      1.0000 0.98950  0.83721  0.71790  Biso   1.000  H
  C46      1.0000 0.43697  0.47808  0.45150  Biso   1.000  C
  O11      1.0000 0.38708  0.42357  0.47014  Biso   1.000  O
  H48      1.0000 0.43169  0.47030  0.42491  Biso   1.000  H
  H49      1.0000 0.49506  0.47129  0.45881  Biso   1.000  H
  H50      1.0000 0.41876  0.53068  0.45779  Biso   1.000  H
  C47      1.0000 0.30258  0.42891  0.46555  Biso   1.000  C
  C48      1.0000 0.26580  0.48180  0.44141  Biso   1.000  C
  C49      1.0000 0.25331  0.37846  0.48587  Biso   1.000  C
  C50      1.0000 0.17999  0.48546  0.43745  Biso   1.000  C
  H51      1.0000 0.29997  0.51582  0.42750  Biso   1.000  H
  C51      1.0000 0.16813  0.38363  0.48246  Biso   1.000  C
  C52      1.0000 0.29090  0.31779  0.51100  Biso   1.000  C
  C53      1.0000 0.14259  0.54189  0.41037  Biso   1.000  C
  C54      1.0000 0.13141  0.43611  0.45845  Biso   1.000  C
  H52      1.0000 0.13377  0.35060  0.49689  Biso   1.000  H
  C55      1.0000 0.31308  0.24441  0.48980  Biso   1.000  C
  H53      1.0000 0.25082  0.30491  0.53071  Biso   1.000  H
  H54      1.0000 0.34147  0.33910  0.52271  Biso   1.000  H
  C56      1.0000 0.13843  0.50874  0.37182  Biso   1.000  C
  H55      1.0000 0.17627  0.59001  0.41001  Biso   1.000  H
  H56      1.0000 0.08580  0.55582  0.41850  Biso   1.000  H
  O12      1.0000 0.04623  0.44238  0.45353  Biso   1.000  O
  C57      1.0000 0.26021  0.18171  0.48782  Biso   1.000  C
  C58      1.0000 0.38689  0.24081  0.47025  Biso   1.000  C
  C59      1.0000 0.07021  0.46543  0.36016  Biso   1.000  C
  C60      1.0000 0.20460  0.51820  0.34726  Biso   1.000  C
  C61      1.0000 0.99571  0.40488  0.48023  Biso   1.000  C
  C62      1.0000 0.28077  0.11721  0.46643  Biso   1.000  C
  O13      1.0000 0.18621  0.18682  0.50737  Biso   1.000  O
  C63      1.0000 0.40739  0.17759  0.44867  Biso   1.000  C
  H57      1.0000 0.42460  0.28319  0.47171  Biso   1.000  H
  C64      1.0000 0.06660  0.43385  0.32513  Biso   1.000  C
  H58      1.0000 0.02510  0.45742  0.37660  Biso   1.000  H
  C65      1.0000 0.20019  0.48685  0.31215  Biso   1.000  C
  O14      1.0000 0.27176  0.55936  0.36038  Biso   1.000  O
  H59      1.0000 0.00162  0.34851  0.47781  Biso   1.000  H
  H60      1.0000 0.01311  0.42090  0.50489  Biso   1.000  H
  H61      1.0000 0.93750  0.41939  0.47641  Biso   1.000  H
  C66      1.0000 0.35346  0.11448  0.44636  Biso   1.000  C
  H62      1.0000 0.24386  0.07419  0.46571  Biso   1.000  H
  C67      1.0000 0.14091  0.11768  0.51100  Biso   1.000  C
  O15      1.0000 0.47891  0.17173  0.42862  Biso   1.000  O
  C68      1.0000 0.13197  0.44488  0.30077  Biso   1.000  C
  O16      1.0000 0.00193  0.38978  0.31226  Biso   1.000  O
  H63      1.0000 0.24529  0.49440  0.29560  Biso   1.000  H
  C69      1.0000 0.33979  0.57091  0.33552  Biso   1.000  C
  C70      1.0000 0.37241  0.04552  0.42175  Biso   1.000  C
  H64      1.0000 0.11177  0.10659  0.48790  Biso   1.000  H
  H65      1.0000 0.10028  0.12331  0.53090  Biso   1.000  H
  H66      1.0000 0.17900  0.07489  0.51669  Biso   1.000  H
  C71      1.0000 0.53750  0.23390  0.43082  Biso   1.000  C
  C72      1.0000 0.12979  0.41022  0.26206  Biso   1.000  C
  C73      1.0000 0.92961  0.38218  0.33409  Biso   1.000  C
  H67      1.0000 0.35899  0.52058  0.32631  Biso   1.000  H
  H68      1.0000 0.38540  0.59692  0.34850  Biso   1.000  H
  H69      1.0000 0.32159  0.60319  0.31490  Biso   1.000  H
  C74      1.0000 0.34700  0.05945  0.38218  Biso   1.000  C
  H70      1.0000 0.43268  0.03448  0.42271  Biso   1.000  H
  H71      1.0000 0.34272  0.99930  0.43121  Biso   1.000  H
  H72      1.0000 0.50991  0.28290  0.42450  Biso   1.000  H
  H73      1.0000 0.58316  0.22438  0.41361  Biso   1.000  H
  H74      1.0000 0.55937  0.23721  0.45590  Biso   1.000  H
  C75      1.0000 0.16639  0.32917  0.26186  Biso   1.000  C
  H75      1.0000 0.07170  0.40819  0.25320  Biso   1.000  H
  H76      1.0000 0.16179  0.44377  0.24509  Biso   1.000  H
  H77      1.0000 0.94458  0.36139  0.35829  Biso   1.000  H
  H78      1.0000 0.89059  0.34671  0.32200  Biso   1.000  H
  H79      1.0000 0.90339  0.43309  0.33709  Biso   1.000  H
  C76      1.0000 0.26729  0.03942  0.36995  Biso   1.000  C
  C77      1.0000 0.40217  0.09161  0.35683  Biso   1.000  C
  C78      1.0000 0.25008  0.31710  0.25417  Biso   1.000  C
  C79      1.0000 0.11761  0.26508  0.27064  Biso   1.000  C
  C80      1.0000 0.24579  0.05068  0.33363  Biso   1.000  C
  O17      1.0000 0.21479  0.00871  0.39599  Biso   1.000  O
  C81      1.0000 0.37962  0.10427  0.32062  Biso   1.000  C
  H80      1.0000 0.45660  0.10520  0.36461  Biso   1.000  H
  C82      1.0000 0.28338  0.24319  0.25595  Biso   1.000  C
  O18      1.0000 0.29537  0.38258  0.24616  Biso   1.000  O
  C83      1.0000 0.15110  0.19118  0.27248  Biso   1.000  C
  H81      1.0000 0.06008  0.27222  0.27539  Biso   1.000  H
  C84      1.0000 0.30022  0.08401  0.30844  Biso   1.000  C
  H82      1.0000 0.19211  0.03530  0.32560  Biso   1.000  H
  C85      1.0000 0.13538  0.98218  0.38298  Biso   1.000  C
  O19      1.0000 0.43100  0.13718  0.29478  Biso   1.000  O
  C86      1.0000 0.23548  0.17869  0.26525  Biso   1.000  C
  H83      1.0000 0.34066  0.23623  0.25070  Biso   1.000  H
  C87      1.0000 0.37906  0.37277  0.23555  Biso   1.000  C
  O20      1.0000 0.10587  0.12569  0.28097  Biso   1.000  O
  C88      1.0000 0.27400  0.09939  0.26915  Biso   1.000  C
  C89      1.0000 0.51482  0.15170  0.30511  Biso   1.000  C
  H84      1.0000 0.41149  0.35419  0.25661  Biso   1.000  H
  H85      1.0000 0.40162  0.42258  0.22711  Biso   1.000  H
  H86      1.0000 0.38242  0.33469  0.21559  Biso   1.000  H
  C90      1.0000 0.02752  0.13521  0.29857  Biso   1.000  C
  H87      1.0000 0.32302  0.09562  0.25279  Biso   1.000  H
  H88      1.0000 0.23336  0.05951  0.26140  Biso   1.000  H
  H89      1.0000 0.51668  0.19559  0.32219  Biso   1.000  H
  H90      1.0000 0.54756  0.16401  0.28320  Biso   1.000  H
  H91      1.0000 0.53787  0.10549  0.31710  Biso   1.000  H
  H92      1.0000 0.03479  0.16511  0.32120  Biso   1.000  H
  H93      1.0000 0.00441  0.08412  0.30451  Biso   1.000  H
  H94      1.0000 0.98950  0.16279  0.28210  Biso   1.000  H
  C91      1.0000 0.64088  0.61771  0.51100  Biso   1.000  C
  O21      1.0000 0.68618  0.68679  0.50737  Biso   1.000  O
  H95      1.0000 0.61180  0.60662  0.48790  Biso   1.000  H
  H96      1.0000 0.60031  0.62328  0.53090  Biso   1.000  H
  H97      1.0000 0.67897  0.57492  0.51669  Biso   1.000  H
  C92      1.0000 0.76017  0.68168  0.48782  Biso   1.000  C
  C93      1.0000 0.78080  0.61718  0.46643  Biso   1.000  C
  C94      1.0000 0.81311  0.74438  0.48980  Biso   1.000  C
  C95      1.0000 0.85349  0.61451  0.44636  Biso   1.000  C
  H98      1.0000 0.74390  0.57422  0.46571  Biso   1.000  H
  C96      1.0000 0.88686  0.74078  0.47025  Biso   1.000  C
  C97      1.0000 0.79087  0.81782  0.51100  Biso   1.000  C
  C98      1.0000 0.87238  0.54554  0.42175  Biso   1.000  C
  C99      1.0000 0.90736  0.67762  0.44867  Biso   1.000  C
  H99      1.0000 0.92457  0.78322  0.47171  Biso   1.000  H
  C100     1.0000 0.75328  0.87843  0.48587  Biso   1.000  C
  H100     1.0000 0.75079  0.80488  0.53071  Biso   1.000  H
  H101     1.0000 0.84150  0.83907  0.52271  Biso   1.000  H
  C101     1.0000 0.84697  0.55942  0.38218  Biso   1.000  C
  H102     1.0000 0.93265  0.53451  0.42271  Biso   1.000  H
  H103     1.0000 0.84268  0.49927  0.43121  Biso   1.000  H
  O22      1.0000 0.97894  0.67176  0.42862  Biso   1.000  O
  C102     1.0000 0.66810  0.88360  0.48246  Biso   1.000  C
  C103     1.0000 0.80261  0.92888  0.46555  Biso   1.000  C
  C104     1.0000 0.76726  0.53939  0.36995  Biso   1.000  C
  C105     1.0000 0.90221  0.59158  0.35683  Biso   1.000  C
  C106     1.0000 0.03747  0.73388  0.43082  Biso   1.000  C
  C107     1.0000 0.63138  0.93608  0.45845  Biso   1.000  C
  H104     1.0000 0.63380  0.85062  0.49689  Biso   1.000  H
  C108     1.0000 0.76577  0.98177  0.44141  Biso   1.000  C
  O23      1.0000 0.88705  0.92354  0.47014  Biso   1.000  O
  C109     1.0000 0.74576  0.55071  0.33363  Biso   1.000  C
  O24      1.0000 0.71476  0.50868  0.39599  Biso   1.000  O
  C110     1.0000 0.87959  0.60430  0.32062  Biso   1.000  C
  H105     1.0000 0.95657  0.60522  0.36461  Biso   1.000  H
  H106     1.0000 0.00988  0.78287  0.42450  Biso   1.000  H
  H107     1.0000 0.08319  0.72441  0.41361  Biso   1.000  H
  H108     1.0000 0.05940  0.73718  0.45590  Biso   1.000  H
  C111     1.0000 0.67996  0.98543  0.43745  Biso   1.000  C
  O25      1.0000 0.54619  0.94241  0.45353  Biso   1.000  O
  H109     1.0000 0.80000  0.01579  0.42750  Biso   1.000  H
  C112     1.0000 0.93700  0.97811  0.45150  Biso   1.000  C
  C113     1.0000 0.80019  0.58403  0.30844  Biso   1.000  C
  H110     1.0000 0.69208  0.53533  0.32560  Biso   1.000  H
  C114     1.0000 0.63541  0.48221  0.38298  Biso   1.000  C
  O26      1.0000 0.93097  0.63716  0.29478  Biso   1.000  O
  C115     1.0000 0.64256  0.04192  0.41037  Biso   1.000  C
  C116     1.0000 0.49568  0.90491  0.48023  Biso   1.000  C
  H111     1.0000 0.93166  0.97028  0.42491  Biso   1.000  H
  H112     1.0000 0.99509  0.97132  0.45881  Biso   1.000  H
  H113     1.0000 0.91879  0.03071  0.45779  Biso   1.000  H
  C117     1.0000 0.77397  0.59942  0.26915  Biso   1.000  C
  C118     1.0000 0.01479  0.65173  0.30511  Biso   1.000  C
  C119     1.0000 0.63846  0.00871  0.37182  Biso   1.000  C
  H114     1.0000 0.67630  0.08999  0.41001  Biso   1.000  H
  H115     1.0000 0.58577  0.05579  0.41850  Biso   1.000  H
  H116     1.0000 0.50158  0.84848  0.47781  Biso   1.000  H
  H117     1.0000 0.43747  0.91942  0.47641  Biso   1.000  H
  H118     1.0000 0.51308  0.92093  0.50489  Biso   1.000  H
  C120     1.0000 0.73551  0.67872  0.26525  Biso   1.000  C
  H119     1.0000 0.82299  0.59559  0.25279  Biso   1.000  H
  H120     1.0000 0.73340  0.55948  0.26140  Biso   1.000  H
  H121     1.0000 0.01665  0.69562  0.32219  Biso   1.000  H
  H122     1.0000 0.04759  0.66398  0.28320  Biso   1.000  H
  H123     1.0000 0.03790  0.60552  0.31710  Biso   1.000  H
  C121     1.0000 0.57018  0.96546  0.36016  Biso   1.000  C
  C122     1.0000 0.70457  0.01817  0.34726  Biso   1.000  C
  C123     1.0000 0.65107  0.69120  0.27248  Biso   1.000  C
  C124     1.0000 0.78341  0.74322  0.25595  Biso   1.000  C
  C125     1.0000 0.56657  0.93388  0.32513  Biso   1.000  C
  H124     1.0000 0.52507  0.95739  0.37660  Biso   1.000  H
  C126     1.0000 0.70016  0.98682  0.31215  Biso   1.000  C
  O27      1.0000 0.77173  0.05933  0.36038  Biso   1.000  O
  O28      1.0000 0.60584  0.62566  0.28097  Biso   1.000  O
  C127     1.0000 0.61758  0.76511  0.27064  Biso   1.000  C
  C128     1.0000 0.75011  0.81713  0.25417  Biso   1.000  C
  H125     1.0000 0.84070  0.73620  0.25070  Biso   1.000  H
  C129     1.0000 0.63200  0.94491  0.30077  Biso   1.000  C
  O29      1.0000 0.50196  0.88981  0.31226  Biso   1.000  O
  H126     1.0000 0.74526  0.99443  0.29560  Biso   1.000  H
  C130     1.0000 0.83976  0.07089  0.33552  Biso   1.000  C
  C131     1.0000 0.52749  0.63518  0.29857  Biso   1.000  C
  C132     1.0000 0.66636  0.82920  0.26186  Biso   1.000  C
  H127     1.0000 0.56011  0.77219  0.27539  Biso   1.000  H
  O30      1.0000 0.79534  0.88261  0.24616  Biso   1.000  O
  C133     1.0000 0.62976  0.91019  0.26206  Biso   1.000  C
  C134     1.0000 0.42957  0.88221  0.33409  Biso   1.000  C
  H128     1.0000 0.85896  0.02061  0.32631  Biso   1.000  H
  H129     1.0000 0.88537  0.09689  0.34850  Biso   1.000  H
  H130     1.0000 0.82156  0.10322  0.31490  Biso   1.000  H
  H131     1.0000 0.53476  0.66508  0.32120  Biso   1.000  H
  H132     1.0000 0.50438  0.58409  0.30451  Biso   1.000  H
  H133     1.0000 0.48947  0.66282  0.28210  Biso   1.000  H
  C135     1.0000 0.87909  0.87280  0.23555  Biso   1.000  C
  H134     1.0000 0.57167  0.90821  0.25320  Biso   1.000  H
  H135     1.0000 0.66176  0.94380  0.24509  Biso   1.000  H
  H136     1.0000 0.44461  0.86142  0.35829  Biso   1.000  H
  H137     1.0000 0.39062  0.84668  0.32200  Biso   1.000  H
  H138     1.0000 0.40342  0.93312  0.33709  Biso   1.000  H
  H139     1.0000 0.91146  0.85422  0.25661  Biso   1.000  H
  H140     1.0000 0.90158  0.92261  0.22711  Biso   1.000  H
  H141     1.0000 0.88239  0.83472  0.21559  Biso   1.000  H
  C136     1.0000 0.64088  0.38229  0.48900  Biso   1.000  C
  O31      1.0000 0.68618  0.31321  0.49263  Biso   1.000  O
  H142     1.0000 0.61180  0.39338  0.51210  Biso   1.000  H
  H143     1.0000 0.60031  0.37672  0.46910  Biso   1.000  H
  H144     1.0000 0.67897  0.42508  0.48331  Biso   1.000  H
  C137     1.0000 0.76017  0.31832  0.51218  Biso   1.000  C
  C138     1.0000 0.81311  0.25562  0.51020  Biso   1.000  C
  C139     1.0000 0.78080  0.38282  0.53357  Biso   1.000  C
  C140     1.0000 0.79087  0.18218  0.48900  Biso   1.000  C
  C141     1.0000 0.88686  0.25922  0.52975  Biso   1.000  C
  C142     1.0000 0.85349  0.38549  0.55364  Biso   1.000  C
  H145     1.0000 0.74390  0.42578  0.53429  Biso   1.000  H
  C143     1.0000 0.75328  0.12157  0.51413  Biso   1.000  C
  H146     1.0000 0.75079  0.19512  0.46929  Biso   1.000  H
  H147     1.0000 0.84150  0.16093  0.47729  Biso   1.000  H
  C144     1.0000 0.90736  0.32238  0.55133  Biso   1.000  C
  H148     1.0000 0.92457  0.21678  0.52829  Biso   1.000  H
  C145     1.0000 0.87238  0.45446  0.57825  Biso   1.000  C
  C146     1.0000 0.66810  0.11640  0.51754  Biso   1.000  C
  C147     1.0000 0.80261  0.07112  0.53445  Biso   1.000  C
  O32      1.0000 0.97894  0.32824  0.57138  Biso   1.000  O
  C148     1.0000 0.84697  0.44058  0.61782  Biso   1.000  C
  H149     1.0000 0.93265  0.46549  0.57729  Biso   1.000  H
  H150     1.0000 0.84268  0.50073  0.56879  Biso   1.000  H
  C149     1.0000 0.63138  0.06392  0.54155  Biso   1.000  C
  H151     1.0000 0.63380  0.14938  0.50311  Biso   1.000  H
  C150     1.0000 0.76577  0.01823  0.55859  Biso   1.000  C
  O33      1.0000 0.88705  0.07646  0.52986  Biso   1.000  O
  C151     1.0000 0.03747  0.26612  0.56918  Biso   1.000  C
  C152     1.0000 0.76726  0.46061  0.63005  Biso   1.000  C
  C153     1.0000 0.90221  0.40842  0.64317  Biso   1.000  C
  O34      1.0000 0.54619  0.05759  0.54647  Biso   1.000  O
  C154     1.0000 0.67996  0.01457  0.56255  Biso   1.000  C
  H152     1.0000 0.80000  0.98421  0.57250  Biso   1.000  H
  C155     1.0000 0.93700  0.02189  0.54850  Biso   1.000  C
  H153     1.0000 0.00988  0.21713  0.57550  Biso   1.000  H
  H154     1.0000 0.08319  0.27559  0.58639  Biso   1.000  H
  H155     1.0000 0.05940  0.26282  0.54410  Biso   1.000  H
  O35      1.0000 0.71476  0.49132  0.60401  Biso   1.000  O
  C156     1.0000 0.74576  0.44929  0.66637  Biso   1.000  C
  C157     1.0000 0.87959  0.39570  0.67938  Biso   1.000  C
  H156     1.0000 0.95657  0.39478  0.63539  Biso   1.000  H
  C158     1.0000 0.49568  0.09509  0.51977  Biso   1.000  C
  C159     1.0000 0.64256  0.95808  0.58963  Biso   1.000  C
  H157     1.0000 0.93166  0.02972  0.57509  Biso   1.000  H
  H158     1.0000 0.99509  0.02868  0.54119  Biso   1.000  H
  H159     1.0000 0.91879  0.96929  0.54221  Biso   1.000  H
  C160     1.0000 0.63541  0.51779  0.61702  Biso   1.000  C
  C161     1.0000 0.80019  0.41597  0.69156  Biso   1.000  C
  H160     1.0000 0.69208  0.46467  0.67440  Biso   1.000  H
  O36      1.0000 0.93097  0.36284  0.70522  Biso   1.000  O
  H161     1.0000 0.50158  0.15152  0.52219  Biso   1.000  H
  H162     1.0000 0.43747  0.08058  0.52359  Biso   1.000  H
  H163     1.0000 0.51308  0.07907  0.49511  Biso   1.000  H
  H164     1.0000 0.67630  0.91001  0.58999  Biso   1.000  H
  H165     1.0000 0.58577  0.94421  0.58150  Biso   1.000  H
  C162     1.0000 0.63846  0.99129  0.62818  Biso   1.000  C
  C163     1.0000 0.77397  0.40058  0.73085  Biso   1.000  C
  C164     1.0000 0.01479  0.34827  0.69489  Biso   1.000  C
  C165     1.0000 0.57018  0.03454  0.63984  Biso   1.000  C
  C166     1.0000 0.70457  0.98183  0.65274  Biso   1.000  C
  C167     1.0000 0.73551  0.32128  0.73475  Biso   1.000  C
  H166     1.0000 0.82299  0.40441  0.74721  Biso   1.000  H
  H167     1.0000 0.73340  0.44052  0.73860  Biso   1.000  H
  H168     1.0000 0.01665  0.30438  0.67781  Biso   1.000  H
  H169     1.0000 0.04759  0.33602  0.71680  Biso   1.000  H
  H170     1.0000 0.03790  0.39448  0.68290  Biso   1.000  H
  H171     1.0000 0.52507  0.04261  0.62340  Biso   1.000  H
  C168     1.0000 0.56657  0.06612  0.67487  Biso   1.000  C
  C169     1.0000 0.70016  0.01318  0.68785  Biso   1.000  C
  O37      1.0000 0.77173  0.94067  0.63962  Biso   1.000  O
  C170     1.0000 0.65107  0.30880  0.72752  Biso   1.000  C
  C171     1.0000 0.78341  0.25678  0.74405  Biso   1.000  C
  O38      1.0000 0.50196  0.11019  0.68774  Biso   1.000  O
  C172     1.0000 0.63200  0.05509  0.69923  Biso   1.000  C
  H172     1.0000 0.74526  0.00557  0.70440  Biso   1.000  H
  C173     1.0000 0.83976  0.92911  0.66448  Biso   1.000  C
  C174     1.0000 0.61758  0.23489  0.72936  Biso   1.000  C
  O39      1.0000 0.60584  0.37434  0.71903  Biso   1.000  O
  C175     1.0000 0.75011  0.18287  0.74583  Biso   1.000  C
  H173     1.0000 0.84070  0.26380  0.74930  Biso   1.000  H
  C176     1.0000 0.42957  0.11779  0.66591  Biso   1.000  C
  C177     1.0000 0.62976  0.08981  0.73794  Biso   1.000  C
  H174     1.0000 0.85896  0.97939  0.67369  Biso   1.000  H
  H175     1.0000 0.88537  0.90311  0.65150  Biso   1.000  H
  H176     1.0000 0.82156  0.89678  0.68510  Biso   1.000  H
  C178     1.0000 0.66636  0.17080  0.73814  Biso   1.000  C
  H177     1.0000 0.56011  0.22781  0.72461  Biso   1.000  H
  C179     1.0000 0.52749  0.36482  0.70143  Biso   1.000  C
  O40      1.0000 0.79534  0.11739  0.75384  Biso   1.000  O
  H178     1.0000 0.44461  0.13858  0.64171  Biso   1.000  H
  H179     1.0000 0.39062  0.15332  0.67800  Biso   1.000  H
  H180     1.0000 0.40342  0.06688  0.66291  Biso   1.000  H
  H181     1.0000 0.57167  0.09179  0.74680  Biso   1.000  H
  H182     1.0000 0.66176  0.05620  0.75491  Biso   1.000  H
  H183     1.0000 0.53476  0.33492  0.67880  Biso   1.000  H
  H184     1.0000 0.50438  0.41591  0.69549  Biso   1.000  H
  H185     1.0000 0.48947  0.33718  0.71790  Biso   1.000  H
  C180     1.0000 0.87909  0.12720  0.76445  Biso   1.000  C
  H186     1.0000 0.91146  0.14578  0.74339  Biso   1.000  H
  H187     1.0000 0.90158  0.07739  0.77289  Biso   1.000  H
  H188     1.0000 0.88239  0.16528  0.78441  Biso   1.000  H
  C181     1.0000 0.62088  0.62723  0.73555  Biso   1.000  C
  O41      1.0000 0.70463  0.61742  0.74616  Biso   1.000  O
  H189     1.0000 0.58851  0.64581  0.75661  Biso   1.000  H
  H190     1.0000 0.59838  0.57742  0.72711  Biso   1.000  H
  H191     1.0000 0.61758  0.66531  0.71559  Biso   1.000  H
  C182     1.0000 0.74986  0.68290  0.75417  Biso   1.000  C
  C183     1.0000 0.83355  0.67083  0.76186  Biso   1.000  C
  C184     1.0000 0.71656  0.75681  0.75595  Biso   1.000  C
  C185     1.0000 0.87021  0.58978  0.76206  Biso   1.000  C
  C186     1.0000 0.88239  0.73492  0.77064  Biso   1.000  C
  C187     1.0000 0.76446  0.82131  0.76525  Biso   1.000  C
  H192     1.0000 0.65927  0.76377  0.75070  Biso   1.000  H
  C188     1.0000 0.86797  0.55512  0.80077  Biso   1.000  C
  H193     1.0000 0.92830  0.59181  0.75320  Biso   1.000  H
  H194     1.0000 0.83815  0.55623  0.74509  Biso   1.000  H
  H195     1.0000 0.93986  0.72778  0.77539  Biso   1.000  H
  C189     1.0000 0.84890  0.80882  0.77248  Biso   1.000  C
  C190     1.0000 0.72600  0.90061  0.76915  Biso   1.000  C
  C191     1.0000 0.93340  0.56615  0.82513  Biso   1.000  C
  C192     1.0000 0.79975  0.51315  0.81215  Biso   1.000  C
  O42      1.0000 0.89413  0.87431  0.78097  Biso   1.000  O
  H196     1.0000 0.67698  0.90438  0.75279  Biso   1.000  H
  H197     1.0000 0.76657  0.94049  0.76140  Biso   1.000  H
  C193     1.0000 0.69978  0.91599  0.80844  Biso   1.000  C
  O43      1.0000 0.99801  0.61022  0.81226  Biso   1.000  O
  C194     1.0000 0.92979  0.53457  0.86016  Biso   1.000  C
  C195     1.0000 0.79540  0.48180  0.84726  Biso   1.000  C
  H198     1.0000 0.75471  0.50560  0.79560  Biso   1.000  H
  C196     1.0000 0.97248  0.86479  0.79857  Biso   1.000  C
  C197     1.0000 0.75421  0.94932  0.83363  Biso   1.000  C
  C198     1.0000 0.62038  0.89573  0.82062  Biso   1.000  C
  C199     1.0000 0.07039  0.61782  0.83409  Biso   1.000  C
  C200     1.0000 0.86151  0.49126  0.87182  Biso   1.000  C
  H199     1.0000 0.97490  0.54258  0.87660  Biso   1.000  H
  O44      1.0000 0.72824  0.44064  0.86038  Biso   1.000  O
  H200     1.0000 0.96521  0.83489  0.82120  Biso   1.000  H
  H201     1.0000 0.99559  0.91588  0.80451  Biso   1.000  H
  H202     1.0000 0.01050  0.83721  0.78210  Biso   1.000  H
  H203     1.0000 0.80789  0.96470  0.82560  Biso   1.000  H
  C201     1.0000 0.73271  0.96058  0.86995  Biso   1.000  C
  O45      1.0000 0.56900  0.86282  0.79478  Biso   1.000  O
  C202     1.0000 0.59776  0.90839  0.85683  Biso   1.000  C
  H204     1.0000 0.05536  0.63861  0.85829  Biso   1.000  H
  H205     1.0000 0.10935  0.65329  0.82200  Biso   1.000  H
  H206     1.0000 0.09655  0.56691  0.83709  Biso   1.000  H
  C203     1.0000 0.85741  0.45811  0.91037  Biso   1.000  C
  C204     1.0000 0.66021  0.42909  0.83552  Biso   1.000  C
  O46      1.0000 0.78521  0.99129  0.89599  Biso   1.000  O
  C205     1.0000 0.65300  0.94055  0.88218  Biso   1.000  C
  C206     1.0000 0.48518  0.84830  0.80511  Biso   1.000  C
  H207     1.0000 0.54340  0.89480  0.86461  Biso   1.000  H
  H208     1.0000 0.82367  0.40999  0.91001  Biso   1.000  H
  H209     1.0000 0.91420  0.44418  0.91850  Biso   1.000  H
  C207     1.0000 0.82001  0.51454  0.93745  Biso   1.000  C
  H210     1.0000 0.64101  0.47942  0.82631  Biso   1.000  H
  H211     1.0000 0.61460  0.40308  0.84850  Biso   1.000  H
  H212     1.0000 0.67841  0.39681  0.81490  Biso   1.000  H
  C208     1.0000 0.86455  0.01782  0.88298  Biso   1.000  C
  C209     1.0000 0.62759  0.95448  0.92175  Biso   1.000  C
  H213     1.0000 0.48332  0.80441  0.82219  Biso   1.000  H
  H214     1.0000 0.45238  0.83599  0.78320  Biso   1.000  H
  H215     1.0000 0.46207  0.89451  0.81710  Biso   1.000  H
  C210     1.0000 0.86859  0.56389  0.95845  Biso   1.000  C
  C211     1.0000 0.73420  0.51820  0.94141  Biso   1.000  C
  H216     1.0000 0.56726  0.96552  0.92271  Biso   1.000  H
  C212     1.0000 0.64647  0.88552  0.94636  Biso   1.000  C
  H217     1.0000 0.65728  0.00070  0.93121  Biso   1.000  H
  O47      1.0000 0.95377  0.55762  0.95353  Biso   1.000  O
  C213     1.0000 0.83187  0.61637  0.98246  Biso   1.000  C
  C214     1.0000 0.69736  0.57109  0.96555  Biso   1.000  C
  H218     1.0000 0.69997  0.48418  0.92750  Biso   1.000  H
  C215     1.0000 0.71917  0.88279  0.96643  Biso   1.000  C
  C216     1.0000 0.59261  0.82241  0.94867  Biso   1.000  C
  C217     1.0000 0.00429  0.59512  0.98023  Biso   1.000  C
  C218     1.0000 0.74669  0.62154  0.98587  Biso   1.000  C
  H219     1.0000 0.86617  0.64940  0.99689  Biso   1.000  H
  O48      1.0000 0.61292  0.57643  0.97014  Biso   1.000  O
  H220     1.0000 0.75607  0.92581  0.96571  Biso   1.000  H
  C219     1.0000 0.73979  0.81829  0.98782  Biso   1.000  C
  O49      1.0000 0.52103  0.82827  0.92862  Biso   1.000  O
  C220     1.0000 0.61311  0.75919  0.97025  Biso   1.000  C
  H221     1.0000 0.99838  0.65149  0.97781  Biso   1.000  H
  H222     1.0000 0.98689  0.57910  0.00489  Biso   1.000  H
  H223     1.0000 0.06250  0.58061  0.97641  Biso   1.000  H
  C221     1.0000 0.70910  0.68221  0.01100  Biso   1.000  C
  C222     1.0000 0.56297  0.52192  0.95150  Biso   1.000  C
  C223     1.0000 0.68686  0.75559  0.98980  Biso   1.000  C
  O50      1.0000 0.81379  0.81318  0.00737  Biso   1.000  O
  C224     1.0000 0.46250  0.76610  0.93082  Biso   1.000  C
  H224     1.0000 0.57540  0.71681  0.97171  Biso   1.000  H
  H225     1.0000 0.74918  0.69509  0.03071  Biso   1.000  H
  H226     1.0000 0.65847  0.66090  0.02271  Biso   1.000  H
  H227     1.0000 0.56831  0.52970  0.92491  Biso   1.000  H
  H228     1.0000 0.50488  0.52871  0.95881  Biso   1.000  H
  H229     1.0000 0.58117  0.46932  0.95779  Biso   1.000  H
  C225     1.0000 0.85909  0.88232  0.01100  Biso   1.000  C
  H230     1.0000 0.49009  0.71710  0.92450  Biso   1.000  H
  H231     1.0000 0.41678  0.77562  0.91361  Biso   1.000  H
  H232     1.0000 0.44057  0.76279  0.95590  Biso   1.000  H
  H233     1.0000 0.88816  0.89341  0.98790  Biso   1.000  H
  H234     1.0000 0.89966  0.87669  0.03090  Biso   1.000  H
  H235     1.0000 0.82100  0.92511  0.01669  Biso   1.000  H
  C226     1.0000 0.62088  0.37277  0.26445  Biso   1.000  C
  O51      1.0000 0.70463  0.38258  0.25384  Biso   1.000  O
  H236     1.0000 0.58851  0.35419  0.24339  Biso   1.000  H
  H237     1.0000 0.59838  0.42258  0.27289  Biso   1.000  H
  H238     1.0000 0.61758  0.33469  0.28441  Biso   1.000  H
  C227     1.0000 0.74986  0.31710  0.24583  Biso   1.000  C
  C228     1.0000 0.71656  0.24319  0.24405  Biso   1.000  C
  C229     1.0000 0.83355  0.32917  0.23814  Biso   1.000  C
  C230     1.0000 0.76446  0.17869  0.23475  Biso   1.000  C
  H239     1.0000 0.65927  0.23623  0.24930  Biso   1.000  H
  C231     1.0000 0.88239  0.26508  0.22936  Biso   1.000  C
  C232     1.0000 0.87021  0.41022  0.23794  Biso   1.000  C
  C233     1.0000 0.72600  0.09939  0.23085  Biso   1.000  C
  C234     1.0000 0.84890  0.19118  0.22752  Biso   1.000  C
  H240     1.0000 0.93986  0.27222  0.22461  Biso   1.000  H
  C235     1.0000 0.86797  0.44488  0.19923  Biso   1.000  C
  H241     1.0000 0.92830  0.40819  0.24680  Biso   1.000  H
  H242     1.0000 0.83815  0.44377  0.25491  Biso   1.000  H
  C236     1.0000 0.69978  0.08401  0.19156  Biso   1.000  C
  H243     1.0000 0.67698  0.09562  0.24721  Biso   1.000  H
  H244     1.0000 0.76657  0.05951  0.23860  Biso   1.000  H
  O52      1.0000 0.89413  0.12569  0.21903  Biso   1.000  O
  C237     1.0000 0.93340  0.43385  0.17487  Biso   1.000  C
  C238     1.0000 0.79975  0.48685  0.18785  Biso   1.000  C
  C239     1.0000 0.62038  0.10427  0.17938  Biso   1.000  C
  C240     1.0000 0.75421  0.05068  0.16637  Biso   1.000  C
  C241     1.0000 0.97248  0.13521  0.20143  Biso   1.000  C
  O53      1.0000 0.99801  0.38978  0.18774  Biso   1.000  O
  C242     1.0000 0.92979  0.46543  0.13984  Biso   1.000  C
  C243     1.0000 0.79540  0.51820  0.15274  Biso   1.000  C
  H245     1.0000 0.75471  0.49440  0.20440  Biso   1.000  H
  O54      1.0000 0.56900  0.13718  0.20522  Biso   1.000  O
  C244     1.0000 0.59776  0.09161  0.14317  Biso   1.000  C
  H246     1.0000 0.80789  0.03530  0.17440  Biso   1.000  H
  C245     1.0000 0.73271  0.03942  0.13005  Biso   1.000  C
  H247     1.0000 0.96521  0.16511  0.17880  Biso   1.000  H
  H248     1.0000 0.99559  0.08412  0.19549  Biso   1.000  H
  H249     1.0000 0.01050  0.16279  0.21790  Biso   1.000  H
  C246     1.0000 0.07039  0.38218  0.16591  Biso   1.000  C
  C247     1.0000 0.86151  0.50874  0.12818  Biso   1.000  C
  H250     1.0000 0.97490  0.45742  0.12340  Biso   1.000  H
  O55      1.0000 0.72824  0.55936  0.13962  Biso   1.000  O
  C248     1.0000 0.48518  0.15170  0.19489  Biso   1.000  C
  C249     1.0000 0.65300  0.05945  0.11782  Biso   1.000  C
  H251     1.0000 0.54340  0.10520  0.13539  Biso   1.000  H
  O56      1.0000 0.78521  0.00871  0.10401  Biso   1.000  O
  H252     1.0000 0.05536  0.36139  0.14171  Biso   1.000  H
  H253     1.0000 0.10935  0.34671  0.17800  Biso   1.000  H
  H254     1.0000 0.09655  0.43309  0.16291  Biso   1.000  H
  C250     1.0000 0.85741  0.54189  0.08963  Biso   1.000  C
  C251     1.0000 0.66021  0.57091  0.16448  Biso   1.000  C
  H255     1.0000 0.48332  0.19559  0.17781  Biso   1.000  H
  H256     1.0000 0.45238  0.16401  0.21680  Biso   1.000  H
  H257     1.0000 0.46207  0.10549  0.18290  Biso   1.000  H
  C252     1.0000 0.62759  0.04552  0.07825  Biso   1.000  C
  C253     1.0000 0.86455  0.98218  0.11702  Biso   1.000  C
  C254     1.0000 0.82001  0.48546  0.06255  Biso   1.000  C
  H258     1.0000 0.82367  0.59001  0.08999  Biso   1.000  H
  H259     1.0000 0.91420  0.55582  0.08150  Biso   1.000  H
  H260     1.0000 0.64101  0.52058  0.17369  Biso   1.000  H
  H261     1.0000 0.61460  0.59692  0.15150  Biso   1.000  H
  H262     1.0000 0.67841  0.60319  0.18510  Biso   1.000  H
  H263     1.0000 0.56726  0.03448  0.07729  Biso   1.000  H
  C255     1.0000 0.64647  0.11448  0.05364  Biso   1.000  C
  H264     1.0000 0.65728  0.99930  0.06879  Biso   1.000  H
  C256     1.0000 0.86859  0.43611  0.04155  Biso   1.000  C
  C257     1.0000 0.73420  0.48180  0.05859  Biso   1.000  C
  C258     1.0000 0.71917  0.11721  0.03357  Biso   1.000  C
  C259     1.0000 0.59261  0.17759  0.05133  Biso   1.000  C
  C260     1.0000 0.83187  0.38363  0.01754  Biso   1.000  C
  O57      1.0000 0.95377  0.44238  0.04647  Biso   1.000  O
  C261     1.0000 0.69736  0.42891  0.03445  Biso   1.000  C
  H265     1.0000 0.69997  0.51582  0.07250  Biso   1.000  H
  H266     1.0000 0.75607  0.07419  0.03429  Biso   1.000  H
  C262     1.0000 0.73979  0.18171  0.01218  Biso   1.000  C
  O58      1.0000 0.52103  0.17173  0.07138  Biso   1.000  O
  C263     1.0000 0.61311  0.24081  0.02975  Biso   1.000  C
  C264     1.0000 0.74669  0.37846  0.01413  Biso   1.000  C
  H267     1.0000 0.86617  0.35060  0.00311  Biso   1.000  H
  C265     1.0000 0.00429  0.40488  0.01977  Biso   1.000  C
  O59      1.0000 0.61292  0.42357  0.02986  Biso   1.000  O
  C266     1.0000 0.68686  0.24441  0.01020  Biso   1.000  C
  O60      1.0000 0.81379  0.18682  0.99263  Biso   1.000  O
  C267     1.0000 0.46250  0.23390  0.06918  Biso   1.000  C
  H268     1.0000 0.57540  0.28319  0.02829  Biso   1.000  H
  C268     1.0000 0.70910  0.31779  0.98900  Biso   1.000  C
  H269     1.0000 0.99838  0.34851  0.02219  Biso   1.000  H
  H270     1.0000 0.98689  0.42090  0.99511  Biso   1.000  H
  H271     1.0000 0.06250  0.41939  0.02359  Biso   1.000  H
  C269     1.0000 0.56297  0.47808  0.04850  Biso   1.000  C
  C270     1.0000 0.85909  0.11768  0.98900  Biso   1.000  C
  H272     1.0000 0.49009  0.28290  0.07550  Biso   1.000  H
  H273     1.0000 0.41678  0.22438  0.08639  Biso   1.000  H
  H274     1.0000 0.44057  0.23721  0.04410  Biso   1.000  H
  H275     1.0000 0.74918  0.30491  0.96929  Biso   1.000  H
  H276     1.0000 0.65847  0.33910  0.97729  Biso   1.000  H
  H277     1.0000 0.56831  0.47030  0.07509  Biso   1.000  H
  H278     1.0000 0.50488  0.47129  0.04119  Biso   1.000  H
  H279     1.0000 0.58117  0.53068  0.04221  Biso   1.000  H
  H280     1.0000 0.88816  0.10659  0.01210  Biso   1.000  H
  H281     1.0000 0.89966  0.12331  0.96910  Biso   1.000  H
  H282     1.0000 0.82100  0.07489  0.98331  Biso   1.000  H
  O61      1.0000 0.39410  0.62566  0.21903  Biso   1.000  O
  C271     1.0000 0.34887  0.69120  0.22752  Biso   1.000  C
  C272     1.0000 0.47251  0.63518  0.20143  Biso   1.000  C
  C273     1.0000 0.26449  0.67872  0.23475  Biso   1.000  C
  C274     1.0000 0.38242  0.76511  0.22936  Biso   1.000  C
  H283     1.0000 0.46518  0.66508  0.17880  Biso   1.000  H
  H284     1.0000 0.49556  0.58409  0.19549  Biso   1.000  H
  H285     1.0000 0.51047  0.66282  0.21790  Biso   1.000  H
  C275     1.0000 0.22597  0.59942  0.23085  Biso   1.000  C
  C276     1.0000 0.21659  0.74322  0.24405  Biso   1.000  C
  C277     1.0000 0.33358  0.82920  0.23814  Biso   1.000  C
  H286     1.0000 0.43989  0.77219  0.22461  Biso   1.000  H
  C278     1.0000 0.19981  0.58403  0.19156  Biso   1.000  C
  H287     1.0000 0.17701  0.59559  0.24721  Biso   1.000  H
  H288     1.0000 0.26660  0.55948  0.23860  Biso   1.000  H
  C279     1.0000 0.24989  0.81713  0.24583  Biso   1.000  C
  H289     1.0000 0.15930  0.73620  0.24930  Biso   1.000  H
  C280     1.0000 0.37018  0.91019  0.23794  Biso   1.000  C
  C281     1.0000 0.25418  0.55071  0.16637  Biso   1.000  C
  C282     1.0000 0.12041  0.60430  0.17938  Biso   1.000  C
  O62      1.0000 0.20460  0.88261  0.25384  Biso   1.000  O
  C283     1.0000 0.36800  0.94491  0.19923  Biso   1.000  C
  H290     1.0000 0.42827  0.90821  0.24680  Biso   1.000  H
  H291     1.0000 0.33818  0.94380  0.25491  Biso   1.000  H
  H292     1.0000 0.30792  0.53533  0.17440  Biso   1.000  H
  C284     1.0000 0.23268  0.53939  0.13005  Biso   1.000  C
  O63      1.0000 0.06903  0.63716  0.20522  Biso   1.000  O
  C285     1.0000 0.09779  0.59158  0.14317  Biso   1.000  C
  C286     1.0000 0.12091  0.87280  0.26445  Biso   1.000  C
  C287     1.0000 0.43336  0.93388  0.17487  Biso   1.000  C
  C288     1.0000 0.29978  0.98682  0.18785  Biso   1.000  C
  O64      1.0000 0.28524  0.50868  0.10401  Biso   1.000  O
  C289     1.0000 0.15297  0.55942  0.11782  Biso   1.000  C
  C290     1.0000 0.98521  0.65173  0.19489  Biso   1.000  C
  H293     1.0000 0.04343  0.60522  0.13539  Biso   1.000  H
  H294     1.0000 0.08847  0.85422  0.24339  Biso   1.000  H
  H295     1.0000 0.09842  0.92261  0.27289  Biso   1.000  H
  H296     1.0000 0.11761  0.83472  0.28441  Biso   1.000  H
  O65      1.0000 0.49804  0.88981  0.18774  Biso   1.000  O
  C291     1.0000 0.42976  0.96546  0.13984  Biso   1.000  C
  H297     1.0000 0.25468  0.99443  0.20440  Biso   1.000  H
  C292     1.0000 0.29537  0.01817  0.15274  Biso   1.000  C
  C293     1.0000 0.36459  0.48221  0.11702  Biso   1.000  C
  C294     1.0000 0.12762  0.54554  0.07825  Biso   1.000  C
  H298     1.0000 0.98329  0.69562  0.17781  Biso   1.000  H
  H299     1.0000 0.95241  0.66398  0.21680  Biso   1.000  H
  H300     1.0000 0.96210  0.60552  0.18290  Biso   1.000  H
  C295     1.0000 0.57036  0.88221  0.16591  Biso   1.000  C
  H301     1.0000 0.47487  0.95739  0.12340  Biso   1.000  H
  C296     1.0000 0.36154  0.00871  0.12818  Biso   1.000  C
  O66      1.0000 0.22821  0.05933  0.13962  Biso   1.000  O
  H302     1.0000 0.06729  0.53451  0.07729  Biso   1.000  H
  H303     1.0000 0.15732  0.49927  0.06879  Biso   1.000  H
  C297     1.0000 0.14651  0.61451  0.05364  Biso   1.000  C
  H304     1.0000 0.55539  0.86142  0.14171  Biso   1.000  H
  H305     1.0000 0.60938  0.84668  0.17800  Biso   1.000  H
  H306     1.0000 0.59658  0.93312  0.16291  Biso   1.000  H
  C298     1.0000 0.35738  0.04192  0.08963  Biso   1.000  C
  C299     1.0000 0.16017  0.07089  0.16448  Biso   1.000  C
  C300     1.0000 0.21920  0.61718  0.03357  Biso   1.000  C
  C301     1.0000 0.09258  0.67762  0.05133  Biso   1.000  C
  C302     1.0000 0.31998  0.98543  0.06255  Biso   1.000  C
  H307     1.0000 0.32370  0.08999  0.08999  Biso   1.000  H
  H308     1.0000 0.41417  0.05579  0.08150  Biso   1.000  H
  H309     1.0000 0.14098  0.02061  0.17369  Biso   1.000  H
  H310     1.0000 0.11457  0.09689  0.15150  Biso   1.000  H
  H311     1.0000 0.17838  0.10322  0.18510  Biso   1.000  H
  H312     1.0000 0.25610  0.57422  0.03429  Biso   1.000  H
  C303     1.0000 0.23976  0.68168  0.01218  Biso   1.000  C
  O67      1.0000 0.02106  0.67176  0.07138  Biso   1.000  O
  C304     1.0000 0.11308  0.74078  0.02975  Biso   1.000  C
  C305     1.0000 0.36856  0.93608  0.04155  Biso   1.000  C
  C306     1.0000 0.23417  0.98177  0.05859  Biso   1.000  C
  C307     1.0000 0.18689  0.74438  0.01020  Biso   1.000  C
  O68      1.0000 0.31376  0.68679  0.99263  Biso   1.000  O
  C308     1.0000 0.96247  0.73388  0.06918  Biso   1.000  C
  H313     1.0000 0.07543  0.78322  0.02829  Biso   1.000  H
  C309     1.0000 0.33190  0.88360  0.01754  Biso   1.000  C
  O69      1.0000 0.45381  0.94241  0.04647  Biso   1.000  O
  C310     1.0000 0.19739  0.92888  0.03445  Biso   1.000  C
  H314     1.0000 0.20000  0.01579  0.07250  Biso   1.000  H
  C311     1.0000 0.20907  0.81782  0.98900  Biso   1.000  C
  C312     1.0000 0.35912  0.61771  0.98900  Biso   1.000  C
  H315     1.0000 0.99012  0.78287  0.07550  Biso   1.000  H
  H316     1.0000 0.91681  0.72441  0.08639  Biso   1.000  H
  H317     1.0000 0.94060  0.73718  0.04410  Biso   1.000  H
  C313     1.0000 0.24672  0.87843  0.01413  Biso   1.000  C
  H318     1.0000 0.36620  0.85062  0.00311  Biso   1.000  H
  C314     1.0000 0.50432  0.90491  0.01977  Biso   1.000  C
  O70      1.0000 0.11289  0.92354  0.02986  Biso   1.000  O
  H319     1.0000 0.24921  0.80488  0.96929  Biso   1.000  H
  H320     1.0000 0.15850  0.83907  0.97729  Biso   1.000  H
  H321     1.0000 0.38820  0.60662  0.01210  Biso   1.000  H
  H322     1.0000 0.39969  0.62328  0.96910  Biso   1.000  H
  H323     1.0000 0.32097  0.57492  0.98331  Biso   1.000  H
  H324     1.0000 0.49842  0.84848  0.02219  Biso   1.000  H
  H325     1.0000 0.56247  0.91942  0.02359  Biso   1.000  H
  H326     1.0000 0.48686  0.92093  0.99511  Biso   1.000  H
  C315     1.0000 0.06300  0.97811  0.04850  Biso   1.000  C
  H327     1.0000 0.06828  0.97028  0.07509  Biso   1.000  H
  H328     1.0000 0.00491  0.97132  0.04119  Biso   1.000  H
  H329     1.0000 0.08121  0.03071  0.04221  Biso   1.000  H
  O71      1.0000 0.39410  0.37434  0.78097  Biso   1.000  O
  C316     1.0000 0.34887  0.30880  0.77248  Biso   1.000  C
  C317     1.0000 0.47251  0.36482  0.79857  Biso   1.000  C
  C318     1.0000 0.38242  0.23489  0.77064  Biso   1.000  C
  C319     1.0000 0.26449  0.32128  0.76525  Biso   1.000  C
  H330     1.0000 0.46518  0.33492  0.82120  Biso   1.000  H
  H331     1.0000 0.49556  0.41591  0.80451  Biso   1.000  H
  H332     1.0000 0.51047  0.33718  0.78210  Biso   1.000  H
  C320     1.0000 0.33358  0.17080  0.76186  Biso   1.000  C
  H333     1.0000 0.43989  0.22781  0.77539  Biso   1.000  H
  C321     1.0000 0.21659  0.25678  0.75595  Biso   1.000  C
  C322     1.0000 0.22597  0.40058  0.76915  Biso   1.000  C
  C323     1.0000 0.24989  0.18287  0.75417  Biso   1.000  C
  C324     1.0000 0.37018  0.08981  0.76206  Biso   1.000  C
  H334     1.0000 0.15930  0.26380  0.75070  Biso   1.000  H
  H335     1.0000 0.17701  0.40441  0.75279  Biso   1.000  H
  H336     1.0000 0.26660  0.44052  0.76140  Biso   1.000  H
  C325     1.0000 0.19981  0.41597  0.80844  Biso   1.000  C
  O72      1.0000 0.20460  0.11739  0.74616  Biso   1.000  O
  C326     1.0000 0.36800  0.05509  0.80077  Biso   1.000  C
  H337     1.0000 0.42827  0.09179  0.75320  Biso   1.000  H
  H338     1.0000 0.33818  0.05620  0.74509  Biso   1.000  H
  C327     1.0000 0.25418  0.44929  0.83363  Biso   1.000  C
  C328     1.0000 0.12041  0.39570  0.82062  Biso   1.000  C
  C329     1.0000 0.12091  0.12720  0.73555  Biso   1.000  C
  C330     1.0000 0.43336  0.06612  0.82513  Biso   1.000  C
  C331     1.0000 0.29978  0.01318  0.81215  Biso   1.000  C
  H339     1.0000 0.30792  0.46467  0.82560  Biso   1.000  H
  C332     1.0000 0.23268  0.46061  0.86995  Biso   1.000  C
  O73      1.0000 0.06903  0.36284  0.79478  Biso   1.000  O
  C333     1.0000 0.09779  0.40842  0.85683  Biso   1.000  C
  H340     1.0000 0.08847  0.14578  0.75661  Biso   1.000  H
  H341     1.0000 0.09842  0.07739  0.72711  Biso   1.000  H
  H342     1.0000 0.11761  0.16528  0.71559  Biso   1.000  H
  O74      1.0000 0.49804  0.11019  0.81226  Biso   1.000  O
  C334     1.0000 0.42976  0.03454  0.86016  Biso   1.000  C
  H343     1.0000 0.25468  0.00557  0.79560  Biso   1.000  H
  C335     1.0000 0.29537  0.98183  0.84726  Biso   1.000  C
  O75      1.0000 0.28524  0.49132  0.89599  Biso   1.000  O
  C336     1.0000 0.15297  0.44058  0.88218  Biso   1.000  C
  C337     1.0000 0.98521  0.34827  0.80511  Biso   1.000  C
  H344     1.0000 0.04343  0.39478  0.86461  Biso   1.000  H
  C338     1.0000 0.57036  0.11779  0.83409  Biso   1.000  C
  H345     1.0000 0.47487  0.04261  0.87660  Biso   1.000  H
  C339     1.0000 0.36154  0.99129  0.87182  Biso   1.000  C
  O76      1.0000 0.22821  0.94067  0.86038  Biso   1.000  O
  C340     1.0000 0.36459  0.51779  0.88298  Biso   1.000  C
  C341     1.0000 0.12762  0.45446  0.92175  Biso   1.000  C
  H346     1.0000 0.98329  0.30438  0.82219  Biso   1.000  H
  H347     1.0000 0.95241  0.33602  0.78320  Biso   1.000  H
  H348     1.0000 0.96210  0.39448  0.81710  Biso   1.000  H
  H349     1.0000 0.55539  0.13858  0.85829  Biso   1.000  H
  H350     1.0000 0.60938  0.15332  0.82200  Biso   1.000  H
  H351     1.0000 0.59658  0.06688  0.83709  Biso   1.000  H
  C342     1.0000 0.35738  0.95808  0.91037  Biso   1.000  C
  C343     1.0000 0.16017  0.92911  0.83552  Biso   1.000  C
  H352     1.0000 0.06729  0.46549  0.92271  Biso   1.000  H
  H353     1.0000 0.15732  0.50073  0.93121  Biso   1.000  H
  C344     1.0000 0.14651  0.38549  0.94636  Biso   1.000  C
  C345     1.0000 0.31998  0.01457  0.93745  Biso   1.000  C
  H354     1.0000 0.32370  0.91001  0.91001  Biso   1.000  H
  H355     1.0000 0.41417  0.94421  0.91850  Biso   1.000  H
  H356     1.0000 0.14098  0.97939  0.82631  Biso   1.000  H
  H357     1.0000 0.11457  0.90311  0.84850  Biso   1.000  H
  H358     1.0000 0.17838  0.89678  0.81490  Biso   1.000  H
  C346     1.0000 0.21920  0.38282  0.96643  Biso   1.000  C
  C347     1.0000 0.09258  0.32238  0.94867  Biso   1.000  C
  C348     1.0000 0.36856  0.06392  0.95845  Biso   1.000  C
  C349     1.0000 0.23417  0.01823  0.94141  Biso   1.000  C
  H359     1.0000 0.25610  0.42578  0.96571  Biso   1.000  H
  C350     1.0000 0.23976  0.31832  0.98782  Biso   1.000  C
  O77      1.0000 0.02106  0.32824  0.92862  Biso   1.000  O
  C351     1.0000 0.11308  0.25922  0.97025  Biso   1.000  C
  O78      1.0000 0.45381  0.05759  0.95353  Biso   1.000  O
  C352     1.0000 0.33190  0.11640  0.98246  Biso   1.000  C
  C353     1.0000 0.19739  0.07112  0.96555  Biso   1.000  C
  H360     1.0000 0.20000  0.98421  0.92750  Biso   1.000  H
  C354     1.0000 0.18689  0.25562  0.98980  Biso   1.000  C
  O79      1.0000 0.31376  0.31321  0.00737  Biso   1.000  O
  C355     1.0000 0.96247  0.26612  0.93082  Biso   1.000  C
  H361     1.0000 0.07543  0.21678  0.97171  Biso   1.000  H
  C356     1.0000 0.50432  0.09509  0.98023  Biso   1.000  C
  C357     1.0000 0.24672  0.12157  0.98587  Biso   1.000  C
  H362     1.0000 0.36620  0.14938  0.99689  Biso   1.000  H
  O80      1.0000 0.11289  0.07646  0.97014  Biso   1.000  O
  C358     1.0000 0.20907  0.18218  0.01100  Biso   1.000  C
  C359     1.0000 0.35912  0.38229  0.01100  Biso   1.000  C
  H363     1.0000 0.99012  0.21713  0.92450  Biso   1.000  H
  H364     1.0000 0.91681  0.27559  0.91361  Biso   1.000  H
  H365     1.0000 0.94060  0.26282  0.95590  Biso   1.000  H
  H366     1.0000 0.49842  0.15152  0.97781  Biso   1.000  H
  H367     1.0000 0.56247  0.08058  0.97641  Biso   1.000  H
  H368     1.0000 0.48686  0.07907  0.00489  Biso   1.000  H
  C360     1.0000 0.06300  0.02189  0.95150  Biso   1.000  C
  H369     1.0000 0.24921  0.19512  0.03071  Biso   1.000  H
  H370     1.0000 0.15850  0.16093  0.02271  Biso   1.000  H
  H371     1.0000 0.38820  0.39338  0.98790  Biso   1.000  H
  H372     1.0000 0.39969  0.37672  0.03090  Biso   1.000  H
  H373     1.0000 0.32097  0.42508  0.01669  Biso   1.000  H
  H374     1.0000 0.06828  0.02972  0.92491  Biso   1.000  H
  H375     1.0000 0.00491  0.02868  0.95881  Biso   1.000  H
  H376     1.0000 0.08121  0.96929  0.95779  Biso   1.000  H
