data_image0
_cell_length_a       12.516
_cell_length_b       31.151
_cell_length_c       23.491
_cell_angle_alpha    90
_cell_angle_beta     104.25
_cell_angle_gamma    90

_symmetry_space_group_name_H-M    "P 1"
_symmetry_int_tables_number       1

loop_
  _symmetry_equiv_pos_as_xyz
  'x, y, z'

loop_
  _atom_site_label
  _atom_site_occupancy
  _atom_site_fract_x
  _atom_site_fract_y
  _atom_site_fract_z
  _atom_site_thermal_displace_type
  _atom_site_B_iso_or_equiv
  _atom_site_type_symbol
  C1       1.0000 0.47447  0.51279  0.42291  Biso   1.000  C
  C2       1.0000 0.39657  0.48249  0.43122  Biso   1.000  C
  C3       1.0000 0.55449  0.50181  0.39292  Biso   1.000  C
  H1       1.0000 0.47300  0.54111  0.43789  Biso   1.000  H
  C4       1.0000 0.39451  0.44169  0.40930  Biso   1.000  C
  O1       1.0000 0.31641  0.49254  0.46108  Biso   1.000  O
  C5       1.0000 0.55114  0.46011  0.37148  Biso   1.000  C
  C6       1.0000 0.63868  0.53331  0.38369  Biso   1.000  C
  C7       1.0000 0.30882  0.40830  0.41681  Biso   1.000  C
  C8       1.0000 0.47286  0.43100  0.37948  Biso   1.000  C
  C9       1.0000 0.30248  0.53629  0.47382  Biso   1.000  C
  O2       1.0000 0.62827  0.45042  0.33938  Biso   1.000  O
  C10      1.0000 0.59189  0.55931  0.32809  Biso   1.000  C
  H2       1.0000 0.70572  0.51780  0.37992  Biso   1.000  H
  H3       1.0000 0.65928  0.55269  0.41791  Biso   1.000  H
  C11      1.0000 0.19949  0.41135  0.36920  Biso   1.000  C
  H4       1.0000 0.29336  0.41219  0.45581  Biso   1.000  H
  H5       1.0000 0.34011  0.37919  0.41571  Biso   1.000  H
  H6       1.0000 0.47311  0.40281  0.36410  Biso   1.000  H
  H7       1.0000 0.36606  0.54599  0.50439  Biso   1.000  H
  H8       1.0000 0.23526  0.53960  0.48779  Biso   1.000  H
  H9       1.0000 0.29633  0.55350  0.43820  Biso   1.000  H
  C12      1.0000 0.61006  0.41241  0.30499  Biso   1.000  C
  C13      1.0000 0.52967  0.59629  0.33090  Biso   1.000  C
  C14      1.0000 0.60330  0.54461  0.27512  Biso   1.000  C
  C15      1.0000 0.18459  0.38981  0.31619  Biso   1.000  C
  C16      1.0000 0.11362  0.43520  0.37978  Biso   1.000  C
  H10      1.0000 0.60999  0.38750  0.33059  Biso   1.000  H
  H11      1.0000 0.66900  0.40901  0.28452  Biso   1.000  H
  H12      1.0000 0.53893  0.41430  0.27622  Biso   1.000  H
  C17      1.0000 0.48366  0.61860  0.27991  Biso   1.000  C
  O3       1.0000 0.51776  0.60801  0.38571  Biso   1.000  O
  H13      1.0000 0.64577  0.51960  0.27350  Biso   1.000  H
  C18      1.0000 0.55254  0.56631  0.22268  Biso   1.000  C
  C19      1.0000 0.08150  0.38949  0.26840  Biso   1.000  C
  Br1      1.0000 0.29375  0.35315  0.29963  Biso   1.000  Br
  C20      1.0000 0.01478  0.43889  0.33481  Biso   1.000  C
  O4       1.0000 0.11801  0.45568  0.43130  Biso   1.000  O
  H14      1.0000 0.44281  0.64399  0.28158  Biso   1.000  H
  C21      1.0000 0.49702  0.60399  0.22580  Biso   1.000  C
  C22      1.0000 0.43708  0.64030  0.38800  Biso   1.000  C
  O5       1.0000 0.56122  0.55253  0.16830  Biso   1.000  O
  O6       1.0000 0.08161  0.37180  0.22281  Biso   1.000  O
  C23      1.0000 0.00061  0.41918  0.28061  Biso   1.000  C
  Br2      1.0000 0.89716  0.46846  0.35519  Biso   1.000  Br
  H15      1.0000 0.17969  0.45141  0.45449  Biso   1.000  H
  C24      1.0000 0.44016  0.62711  0.16879  Biso   1.000  C
  H16      1.0000 0.45539  0.66691  0.37021  Biso   1.000  H
  H17      1.0000 0.43658  0.64569  0.42911  Biso   1.000  H
  H18      1.0000 0.36412  0.63028  0.36652  Biso   1.000  H
  C25      1.0000 0.59089  0.50881  0.16422  Biso   1.000  C
  H19      1.0000 0.02537  0.37919  0.19690  Biso   1.000  H
  C26      1.0000 0.89982  0.42670  0.23072  Biso   1.000  C
  C27      1.0000 0.31829  0.61301  0.14678  Biso   1.000  C
  H20      1.0000 0.47996  0.62069  0.13822  Biso   1.000  H
  H21      1.0000 0.44338  0.65850  0.17560  Biso   1.000  H
  H22      1.0000 0.66960  0.50509  0.18240  Biso   1.000  H
  H23      1.0000 0.57551  0.50040  0.12280  Biso   1.000  H
  H24      1.0000 0.54797  0.49071  0.18460  Biso   1.000  H
  H25      1.0000 0.83600  0.43360  0.24701  Biso   1.000  H
  H26      1.0000 0.88223  0.40021  0.20700  Biso   1.000  H
  C28      1.0000 0.91935  0.46339  0.19171  Biso   1.000  C
  C29      1.0000 0.29641  0.57879  0.10980  Biso   1.000  C
  C30      1.0000 0.23661  0.63378  0.16541  Biso   1.000  C
  C31      1.0000 0.90403  0.50560  0.20819  Biso   1.000  C
  C32      1.0000 0.95357  0.45719  0.13989  Biso   1.000  C
  C33      1.0000 0.18631  0.56371  0.08920  Biso   1.000  C
  H27      1.0000 0.35471  0.56489  0.09781  Biso   1.000  H
  C34      1.0000 0.12229  0.62011  0.14520  Biso   1.000  C
  O7       1.0000 0.26450  0.66926  0.20120  Biso   1.000  O
  H28      1.0000 0.87963  0.51099  0.24271  Biso   1.000  H
  C35      1.0000 0.92417  0.54021  0.17380  Biso   1.000  C
  C36      1.0000 0.96853  0.49051  0.10690  Biso   1.000  C
  O8       1.0000 0.96857  0.41430  0.12548  Biso   1.000  O
  C37      1.0000 0.10229  0.58499  0.10761  Biso   1.000  C
  O9       1.0000 0.15674  0.53128  0.05200  Biso   1.000  O
  H29      1.0000 0.06443  0.63449  0.15711  Biso   1.000  H
  C38      1.0000 0.17916  0.69330  0.21451  Biso   1.000  C
  C39      1.0000 0.95638  0.53279  0.12298  Biso   1.000  C
  O10      1.0000 0.91422  0.58226  0.18978  Biso   1.000  O
  H30      1.0000 0.98823  0.48509  0.07102  Biso   1.000  H
  C40      1.0000 0.00999  0.40650  0.07541  Biso   1.000  C
  C41      1.0000 0.98312  0.56971  0.08608  Biso   1.000  C
  C42      1.0000 0.23796  0.49970  0.04831  Biso   1.000  C
  H31      1.0000 0.12802  0.70261  0.17801  Biso   1.000  H
  H32      1.0000 0.21009  0.71850  0.23770  Biso   1.000  H
  H33      1.0000 0.13957  0.67548  0.23709  Biso   1.000  H
  C43      1.0000 0.88274  0.58910  0.24530  Biso   1.000  C
  H34      1.0000 0.02053  0.37549  0.07142  Biso   1.000  H
  H35      1.0000 0.08081  0.42121  0.07998  Biso   1.000  H
  H36      1.0000 0.95752  0.41719  0.04019  Biso   1.000  H
  H37      1.0000 0.93280  0.59401  0.08749  Biso   1.000  H
  H38      1.0000 0.97012  0.56030  0.04480  Biso   1.000  H
  H39      1.0000 0.29536  0.51299  0.03228  Biso   1.000  H
  H40      1.0000 0.20306  0.47629  0.02240  Biso   1.000  H
  H41      1.0000 0.27109  0.48830  0.08749  Biso   1.000  H
  H42      1.0000 0.81098  0.57558  0.24301  Biso   1.000  H
  H43      1.0000 0.87782  0.61988  0.25228  Biso   1.000  H
  H44      1.0000 0.93828  0.57619  0.27749  Biso   1.000  H
  C44      1.0000 0.52548  0.48721  0.57708  Biso   1.000  C
  C45      1.0000 0.44548  0.49819  0.60712  Biso   1.000  C
  H45      1.0000 0.52695  0.45889  0.56210  Biso   1.000  H
  C46      1.0000 0.60338  0.51751  0.56878  Biso   1.000  C
  C47      1.0000 0.36127  0.46669  0.61630  Biso   1.000  C
  C48      1.0000 0.44881  0.53989  0.62851  Biso   1.000  C
  C49      1.0000 0.60551  0.55831  0.59069  Biso   1.000  C
  O11      1.0000 0.68362  0.50746  0.53891  Biso   1.000  O
  C50      1.0000 0.40805  0.44069  0.67190  Biso   1.000  C
  H46      1.0000 0.29432  0.48220  0.62012  Biso   1.000  H
  H47      1.0000 0.34067  0.44731  0.58208  Biso   1.000  H
  C51      1.0000 0.52709  0.56900  0.62051  Biso   1.000  C
  O12      1.0000 0.37168  0.54958  0.66061  Biso   1.000  O
  C52      1.0000 0.69121  0.59170  0.58318  Biso   1.000  C
  C53      1.0000 0.69749  0.46371  0.52622  Biso   1.000  C
  C54      1.0000 0.47027  0.40371  0.66909  Biso   1.000  C
  C55      1.0000 0.39667  0.45539  0.72491  Biso   1.000  C
  H48      1.0000 0.52684  0.59719  0.63589  Biso   1.000  H
  C56      1.0000 0.38988  0.58759  0.69500  Biso   1.000  C
  H49      1.0000 0.70659  0.58778  0.54418  Biso   1.000  H
  H50      1.0000 0.65984  0.62078  0.58428  Biso   1.000  H
  C57      1.0000 0.80045  0.58865  0.63079  Biso   1.000  C
  H51      1.0000 0.63389  0.45401  0.49560  Biso   1.000  H
  H52      1.0000 0.76468  0.46040  0.51221  Biso   1.000  H
  H53      1.0000 0.70370  0.44650  0.56179  Biso   1.000  H
  O13      1.0000 0.48218  0.39199  0.61428  Biso   1.000  O
  C58      1.0000 0.51628  0.38140  0.72008  Biso   1.000  C
  C59      1.0000 0.44740  0.43369  0.77731  Biso   1.000  C
  H54      1.0000 0.35418  0.48040  0.72650  Biso   1.000  H
  H55      1.0000 0.38996  0.61250  0.66940  Biso   1.000  H
  H56      1.0000 0.33097  0.59099  0.71552  Biso   1.000  H
  H57      1.0000 0.46112  0.58570  0.72382  Biso   1.000  H
  C60      1.0000 0.88641  0.56480  0.62021  Biso   1.000  C
  C61      1.0000 0.81536  0.61019  0.68380  Biso   1.000  C
  C62      1.0000 0.56286  0.35970  0.61199  Biso   1.000  C
  H58      1.0000 0.55722  0.35601  0.71841  Biso   1.000  H
  C63      1.0000 0.50301  0.39601  0.77419  Biso   1.000  C
  O14      1.0000 0.43881  0.44747  0.83169  Biso   1.000  O
  C64      1.0000 0.98517  0.56111  0.66518  Biso   1.000  C
  O15      1.0000 0.88194  0.54432  0.56869  Biso   1.000  O
  Br3      1.0000 0.70620  0.64685  0.70036  Biso   1.000  Br
  C65      1.0000 0.91845  0.61051  0.73159  Biso   1.000  C
  H59      1.0000 0.54455  0.33309  0.62978  Biso   1.000  H
  H60      1.0000 0.56336  0.35431  0.57088  Biso   1.000  H
  H61      1.0000 0.63592  0.36968  0.63352  Biso   1.000  H
  C66      1.0000 0.55979  0.37289  0.83120  Biso   1.000  C
  C67      1.0000 0.40908  0.49119  0.83581  Biso   1.000  C
  C68      1.0000 0.99934  0.58078  0.71938  Biso   1.000  C
  Br4      1.0000 0.10279  0.53154  0.64480  Biso   1.000  Br
  H62      1.0000 0.82025  0.54859  0.54550  Biso   1.000  H
  O16      1.0000 0.91834  0.62820  0.77718  Biso   1.000  O
  C69      1.0000 0.68165  0.38699  0.85321  Biso   1.000  C
  H63      1.0000 0.52000  0.37931  0.86182  Biso   1.000  H
  H64      1.0000 0.55657  0.34150  0.82440  Biso   1.000  H
  H65      1.0000 0.33035  0.49491  0.81759  Biso   1.000  H
  H66      1.0000 0.42452  0.49960  0.87719  Biso   1.000  H
  H67      1.0000 0.45197  0.50929  0.81539  Biso   1.000  H
  C70      1.0000 0.10015  0.57330  0.76932  Biso   1.000  C
  H68      1.0000 0.97458  0.62078  0.80309  Biso   1.000  H
  C71      1.0000 0.76333  0.36618  0.83458  Biso   1.000  C
  C72      1.0000 0.70361  0.42121  0.89019  Biso   1.000  C
  C73      1.0000 0.08068  0.53661  0.80828  Biso   1.000  C
  H69      1.0000 0.16395  0.56640  0.75298  Biso   1.000  H
  H70      1.0000 0.11780  0.59979  0.79299  Biso   1.000  H
  C74      1.0000 0.87765  0.37989  0.85479  Biso   1.000  C
  O17      1.0000 0.73545  0.33074  0.79879  Biso   1.000  O
  H71      1.0000 0.64523  0.43511  0.90218  Biso   1.000  H
  C75      1.0000 0.81364  0.43629  0.91079  Biso   1.000  C
  C76      1.0000 0.09600  0.49440  0.79181  Biso   1.000  C
  C77      1.0000 0.04638  0.54281  0.86010  Biso   1.000  C
  C78      1.0000 0.89766  0.41501  0.89238  Biso   1.000  C
  H72      1.0000 0.93559  0.36551  0.84289  Biso   1.000  H
  C79      1.0000 0.82079  0.30670  0.78548  Biso   1.000  C
  O18      1.0000 0.84329  0.46872  0.94799  Biso   1.000  O
  C80      1.0000 0.07577  0.45979  0.82620  Biso   1.000  C
  H73      1.0000 0.12032  0.48901  0.75728  Biso   1.000  H
  C81      1.0000 0.03149  0.50949  0.89309  Biso   1.000  C
  O19      1.0000 0.03138  0.58570  0.87451  Biso   1.000  O
  C82      1.0000 0.01690  0.43029  0.91391  Biso   1.000  C
  H74      1.0000 0.87200  0.29739  0.82198  Biso   1.000  H
  H75      1.0000 0.78986  0.28150  0.76229  Biso   1.000  H
  H76      1.0000 0.86037  0.32448  0.76291  Biso   1.000  H
  C83      1.0000 0.76198  0.50030  0.95168  Biso   1.000  C
  C84      1.0000 0.04356  0.46721  0.87701  Biso   1.000  C
  O20      1.0000 0.08581  0.41774  0.81021  Biso   1.000  O
  H77      1.0000 0.01174  0.51491  0.92901  Biso   1.000  H
  C85      1.0000 0.98995  0.59350  0.92458  Biso   1.000  C
  H78      1.0000 0.06715  0.40599  0.91250  Biso   1.000  H
  H79      1.0000 0.02990  0.43970  0.95519  Biso   1.000  H
  H80      1.0000 0.70459  0.48698  0.96771  Biso   1.000  H
  H81      1.0000 0.79688  0.52371  0.97759  Biso   1.000  H
  H82      1.0000 0.72886  0.51170  0.91250  Biso   1.000  H
  C86      1.0000 0.11728  0.41090  0.75469  Biso   1.000  C
  H83      1.0000 0.97950  0.62451  0.92858  Biso   1.000  H
  H84      1.0000 0.91921  0.57879  0.92001  Biso   1.000  H
  H85      1.0000 0.04250  0.58281  0.95980  Biso   1.000  H
  H86      1.0000 0.18897  0.42438  0.75698  Biso   1.000  H
  H87      1.0000 0.12221  0.38008  0.74771  Biso   1.000  H
  H88      1.0000 0.06166  0.42381  0.72250  Biso   1.000  H
  O21      1.0000 0.62229  0.29466  0.51339  Biso   1.000  O
  C87      1.0000 0.66405  0.28249  0.46732  Biso   1.000  C
  H89      1.0000 0.58859  0.27389  0.52380  Biso   1.000  H
  C88      1.0000 0.64679  0.24179  0.44242  Biso   1.000  C
  C89      1.0000 0.72219  0.31290  0.44461  Biso   1.000  C
  C90      1.0000 0.69262  0.23389  0.39428  Biso   1.000  C
  C91      1.0000 0.58363  0.20760  0.46758  Biso   1.000  C
  C92      1.0000 0.77223  0.30481  0.39779  Biso   1.000  C
  Br5      1.0000 0.73064  0.36843  0.47830  Biso   1.000  Br
  Br6      1.0000 0.66424  0.18064  0.35343  Biso   1.000  Br
  C93      1.0000 0.75495  0.26339  0.37302  Biso   1.000  C
  C94      1.0000 0.65921  0.18231  0.51651  Biso   1.000  C
  H90      1.0000 0.54737  0.18760  0.43578  Biso   1.000  H
  H91      1.0000 0.52544  0.22160  0.48291  Biso   1.000  H
  C95      1.0000 0.84126  0.33771  0.37548  Biso   1.000  C
  O22      1.0000 0.79322  0.25232  0.32581  Biso   1.000  O
  C96      1.0000 0.67178  0.19129  0.57572  Biso   1.000  C
  C97      1.0000 0.72061  0.14751  0.50311  Biso   1.000  C
  H92      1.0000 0.83084  0.33370  0.33270  Biso   1.000  H
  H93      1.0000 0.81430  0.36670  0.38180  Biso   1.000  H
  C98      1.0000 0.96427  0.33511  0.40499  Biso   1.000  C
  H94      1.0000 0.82977  0.27280  0.31689  Biso   1.000  H
  C99      1.0000 0.74059  0.16869  0.61898  Biso   1.000  C
  O23      1.0000 0.60649  0.22567  0.58691  Biso   1.000  O
  H95      1.0000 0.71248  0.13980  0.46319  Biso   1.000  H
  C100     1.0000 0.79171  0.12449  0.54581  Biso   1.000  C
  C101     1.0000 0.03566  0.30946  0.38330  Biso   1.000  C
  C102     1.0000 0.00683  0.35870  0.45612  Biso   1.000  C
  C103     1.0000 0.80381  0.13480  0.60571  Biso   1.000  C
  H96      1.0000 0.74593  0.17589  0.65890  Biso   1.000  H
  C104     1.0000 0.60620  0.23229  0.64700  Biso   1.000  C
  O24      1.0000 0.85301  0.09062  0.53478  Biso   1.000  O
  O25      1.0000 0.99000  0.28814  0.33099  Biso   1.000  O
  C105     1.0000 0.14376  0.30619  0.41338  Biso   1.000  C
  H97      1.0000 0.96013  0.37780  0.47022  Biso   1.000  H
  C106     1.0000 0.11631  0.35460  0.48660  Biso   1.000  C
  C107     1.0000 0.88695  0.11200  0.65372  Biso   1.000  C
  H98      1.0000 0.67969  0.24140  0.66909  Biso   1.000  H
  H99      1.0000 0.55243  0.25469  0.64959  Biso   1.000  H
  H100     1.0000 0.58611  0.20561  0.66369  Biso   1.000  H
  C108     1.0000 0.85002  0.08231  0.47470  Biso   1.000  C
  C109     1.0000 0.06078  0.26278  0.30709  Biso   1.000  C
  C110     1.0000 0.18661  0.32760  0.46618  Biso   1.000  C
  H101     1.0000 0.19169  0.28869  0.39779  Biso   1.000  H
  O26      1.0000 0.16246  0.37697  0.53860  Biso   1.000  O
  H102     1.0000 0.88872  0.08109  0.64388  Biso   1.000  H
  H103     1.0000 0.86447  0.11441  0.69118  Biso   1.000  H
  C111     1.0000 0.00008  0.13110  0.66079  Biso   1.000  C
  H104     1.0000 0.86833  0.10860  0.45621  Biso   1.000  H
  H105     1.0000 0.90370  0.05981  0.47241  Biso   1.000  H
  H106     1.0000 0.77599  0.07271  0.45419  Biso   1.000  H
  H107     1.0000 0.09086  0.23951  0.33450  Biso   1.000  H
  H108     1.0000 0.01978  0.25059  0.26972  Biso   1.000  H
  H109     1.0000 0.12130  0.28060  0.30059  Biso   1.000  H
  C112     1.0000 0.30547  0.32140  0.50140  Biso   1.000  C
  C113     1.0000 0.09156  0.40670  0.55859  Biso   1.000  C
  C114     1.0000 0.03890  0.16539  0.69830  Biso   1.000  C
  C115     1.0000 0.07059  0.11480  0.62838  Biso   1.000  C
  H110     1.0000 0.33394  0.34878  0.52081  Biso   1.000  H
  H111     1.0000 0.35180  0.31351  0.47439  Biso   1.000  H
  C116     1.0000 0.31388  0.28660  0.54761  Biso   1.000  C
  H112     1.0000 0.02648  0.39138  0.56421  Biso   1.000  H
  H113     1.0000 0.13150  0.41941  0.59592  Biso   1.000  H
  H114     1.0000 0.06864  0.42939  0.52920  Biso   1.000  H
  O27      1.0000 0.96451  0.18166  0.72909  Biso   1.000  O
  C117     1.0000 0.14060  0.18269  0.70348  Biso   1.000  C
  H115     1.0000 0.04760  0.09110  0.60299  Biso   1.000  H
  C118     1.0000 0.17237  0.13261  0.63268  Biso   1.000  C
  C119     1.0000 0.32218  0.24381  0.53360  Biso   1.000  C
  C120     1.0000 0.30851  0.29630  0.60378  Biso   1.000  C
  C121     1.0000 0.00632  0.21271  0.77340  Biso   1.000  C
  C122     1.0000 0.21018  0.16619  0.67058  Biso   1.000  C
  H116     1.0000 0.16438  0.20600  0.72970  Biso   1.000  H
  O28      1.0000 0.24346  0.11823  0.59961  Biso   1.000  O
  C123     1.0000 0.32698  0.21219  0.57510  Biso   1.000  C
  O29      1.0000 0.32558  0.23524  0.47540  Biso   1.000  O
  C124     1.0000 0.31151  0.26500  0.64608  Biso   1.000  C
  H117     1.0000 0.30249  0.32551  0.61410  Biso   1.000  H
  H118     1.0000 0.94706  0.22211  0.79110  Biso   1.000  H
  H119     1.0000 0.03466  0.23739  0.75588  Biso   1.000  H
  H120     1.0000 0.06602  0.19990  0.80371  Biso   1.000  H
  C125     1.0000 0.32379  0.18641  0.67559  Biso   1.000  C
  C126     1.0000 0.20572  0.08459  0.55889  Biso   1.000  C
  H121     1.0000 0.33503  0.18320  0.56452  Biso   1.000  H
  C127     1.0000 0.32069  0.22131  0.63171  Biso   1.000  C
  C128     1.0000 0.30489  0.19239  0.45621  Biso   1.000  C
  O30      1.0000 0.30564  0.27258  0.70238  Biso   1.000  O
  H122     1.0000 0.37592  0.16381  0.66979  Biso   1.000  H
  H123     1.0000 0.35150  0.19820  0.71569  Biso   1.000  H
  H124     1.0000 0.14471  0.09499  0.52731  Biso   1.000  H
  H125     1.0000 0.26608  0.07489  0.54220  Biso   1.000  H
  H126     1.0000 0.18033  0.06051  0.57901  Biso   1.000  H
  H127     1.0000 0.24533  0.18060  0.47171  Biso   1.000  H
  H128     1.0000 0.28330  0.19171  0.41312  Biso   1.000  H
  H129     1.0000 0.37180  0.17521  0.47031  Biso   1.000  H
  C129     1.0000 0.26788  0.31440  0.71508  Biso   1.000  C
  H130     1.0000 0.19368  0.31941  0.69039  Biso   1.000  H
  H131     1.0000 0.26629  0.31569  0.75658  Biso   1.000  H
  H132     1.0000 0.31816  0.33639  0.70699  Biso   1.000  H
  O31      1.0000 0.37765  0.70534  0.48660  Biso   1.000  O
  C130     1.0000 0.33600  0.71751  0.53272  Biso   1.000  C
  H133     1.0000 0.41135  0.72611  0.47619  Biso   1.000  H
  C131     1.0000 0.35316  0.75821  0.55758  Biso   1.000  C
  C132     1.0000 0.27776  0.68710  0.55538  Biso   1.000  C
  C133     1.0000 0.41639  0.79240  0.53241  Biso   1.000  C
  C134     1.0000 0.30740  0.76611  0.60571  Biso   1.000  C
  Br7      1.0000 0.26941  0.63157  0.52174  Biso   1.000  Br
  C135     1.0000 0.22780  0.69519  0.60220  Biso   1.000  C
  C136     1.0000 0.34074  0.81769  0.48348  Biso   1.000  C
  H134     1.0000 0.45258  0.81240  0.56421  Biso   1.000  H
  H135     1.0000 0.47451  0.77840  0.51708  Biso   1.000  H
  Br8      1.0000 0.33578  0.81936  0.64656  Biso   1.000  Br
  C137     1.0000 0.24510  0.73661  0.62701  Biso   1.000  C
  C138     1.0000 0.15869  0.66229  0.62451  Biso   1.000  C
  C139     1.0000 0.32819  0.80871  0.42432  Biso   1.000  C
  C140     1.0000 0.27933  0.85249  0.49688  Biso   1.000  C
  O32      1.0000 0.20673  0.74768  0.67419  Biso   1.000  O
  H136     1.0000 0.16919  0.66630  0.66729  Biso   1.000  H
  H137     1.0000 0.18565  0.63330  0.61819  Biso   1.000  H
  C141     1.0000 0.03567  0.66489  0.59500  Biso   1.000  C
  C142     1.0000 0.25936  0.83131  0.38101  Biso   1.000  C
  O33      1.0000 0.39348  0.77433  0.41312  Biso   1.000  O
  H138     1.0000 0.28747  0.86020  0.53680  Biso   1.000  H
  C143     1.0000 0.20824  0.87551  0.45419  Biso   1.000  C
  H139     1.0000 0.17018  0.72720  0.68310  Biso   1.000  H
  C144     1.0000 0.96428  0.69054  0.61669  Biso   1.000  C
  C145     1.0000 0.99314  0.64130  0.54392  Biso   1.000  C
  C146     1.0000 0.19614  0.86520  0.39428  Biso   1.000  C
  H140     1.0000 0.25402  0.82408  0.34109  Biso   1.000  H
  C147     1.0000 0.39375  0.76771  0.35299  Biso   1.000  C
  O34      1.0000 0.14693  0.90938  0.46521  Biso   1.000  O
  O35      1.0000 0.00996  0.71186  0.66905  Biso   1.000  O
  C148     1.0000 0.85618  0.69378  0.58661  Biso   1.000  C
  H141     1.0000 0.03984  0.62220  0.52982  Biso   1.000  H
  C149     1.0000 0.88364  0.64540  0.51339  Biso   1.000  C
  C150     1.0000 0.11310  0.88800  0.34632  Biso   1.000  C
  H142     1.0000 0.32026  0.75860  0.33090  Biso   1.000  H
  H143     1.0000 0.44752  0.74531  0.35040  Biso   1.000  H
  H144     1.0000 0.41384  0.79439  0.33630  Biso   1.000  H
  C151     1.0000 0.14992  0.91769  0.52529  Biso   1.000  C
  C152     1.0000 0.93917  0.73718  0.69290  Biso   1.000  C
  C153     1.0000 0.81342  0.67240  0.53381  Biso   1.000  C
  H145     1.0000 0.80826  0.71131  0.60220  Biso   1.000  H
  O36      1.0000 0.83748  0.62303  0.46139  Biso   1.000  O
  H146     1.0000 0.11123  0.91891  0.35611  Biso   1.000  H
  H147     1.0000 0.13548  0.88559  0.30881  Biso   1.000  H
  C154     1.0000 0.99987  0.86890  0.33920  Biso   1.000  C
  H148     1.0000 0.13162  0.89140  0.54378  Biso   1.000  H
  H149     1.0000 0.09625  0.94019  0.52758  Biso   1.000  H
  H150     1.0000 0.22396  0.92729  0.54581  Biso   1.000  H
  H151     1.0000 0.90909  0.76049  0.66549  Biso   1.000  H
  H152     1.0000 0.98018  0.74938  0.73032  Biso   1.000  H
  H153     1.0000 0.87865  0.71940  0.69940  Biso   1.000  H
  C155     1.0000 0.69447  0.67860  0.49859  Biso   1.000  C
  C156     1.0000 0.90839  0.59330  0.44141  Biso   1.000  C
  C157     1.0000 0.96105  0.83461  0.30169  Biso   1.000  C
  C158     1.0000 0.92936  0.88520  0.37161  Biso   1.000  C
  H154     1.0000 0.66609  0.65118  0.47918  Biso   1.000  H
  H155     1.0000 0.64815  0.68649  0.52560  Biso   1.000  H
  C159     1.0000 0.68607  0.71340  0.45239  Biso   1.000  C
  H156     1.0000 0.97346  0.60858  0.43578  Biso   1.000  H
  H157     1.0000 0.86847  0.58059  0.40412  Biso   1.000  H
  H158     1.0000 0.93139  0.57061  0.47079  Biso   1.000  H
  O37      1.0000 0.03543  0.81830  0.27090  Biso   1.000  O
  C160     1.0000 0.85934  0.81731  0.29651  Biso   1.000  C
  H159     1.0000 0.95235  0.90890  0.39700  Biso   1.000  H
  C161     1.0000 0.82758  0.86739  0.36731  Biso   1.000  C
  C162     1.0000 0.67776  0.75619  0.46640  Biso   1.000  C
  C163     1.0000 0.69152  0.70370  0.39621  Biso   1.000  C
  C164     1.0000 0.99363  0.78729  0.22659  Biso   1.000  C
  C165     1.0000 0.78977  0.83381  0.32941  Biso   1.000  C
  H160     1.0000 0.83556  0.79400  0.27029  Biso   1.000  H
  O38      1.0000 0.75649  0.88177  0.40038  Biso   1.000  O
  C166     1.0000 0.67297  0.78781  0.42489  Biso   1.000  C
  O39      1.0000 0.67437  0.76476  0.52459  Biso   1.000  O
  C167     1.0000 0.68852  0.73500  0.35391  Biso   1.000  C
  H161     1.0000 0.69746  0.67449  0.38589  Biso   1.000  H
  H162     1.0000 0.05288  0.77789  0.20889  Biso   1.000  H
  H163     1.0000 0.96529  0.76261  0.24411  Biso   1.000  H
  H164     1.0000 0.93392  0.80010  0.19628  Biso   1.000  H
  C168     1.0000 0.67616  0.81359  0.32440  Biso   1.000  C
  C169     1.0000 0.79431  0.91541  0.44110  Biso   1.000  C
  H165     1.0000 0.66502  0.81680  0.43552  Biso   1.000  H
  C170     1.0000 0.67925  0.77869  0.36828  Biso   1.000  C
  C171     1.0000 0.69506  0.80758  0.54378  Biso   1.000  C
  O40      1.0000 0.69430  0.72742  0.29761  Biso   1.000  O
  H166     1.0000 0.62411  0.83619  0.33020  Biso   1.000  H
  H167     1.0000 0.64844  0.80180  0.28430  Biso   1.000  H
  H168     1.0000 0.85524  0.90501  0.47268  Biso   1.000  H
  H169     1.0000 0.73387  0.92511  0.45779  Biso   1.000  H
  H170     1.0000 0.81969  0.93949  0.42098  Biso   1.000  H
  H171     1.0000 0.75469  0.81940  0.52828  Biso   1.000  H
  H172     1.0000 0.71666  0.80829  0.58691  Biso   1.000  H
  H173     1.0000 0.62814  0.82479  0.52969  Biso   1.000  H
  C172     1.0000 0.73206  0.68560  0.28491  Biso   1.000  C
  H174     1.0000 0.80627  0.68059  0.30960  Biso   1.000  H
  H175     1.0000 0.73366  0.68431  0.24341  Biso   1.000  H
  H176     1.0000 0.68178  0.66361  0.29300  Biso   1.000  H
  O41      1.0000 0.46450  0.31832  0.22909  Biso   1.000  O
  C173     1.0000 0.53888  0.33460  0.19830  Biso   1.000  C
  C174     1.0000 0.50631  0.28731  0.27341  Biso   1.000  C
  C175     1.0000 0.50006  0.36891  0.16079  Biso   1.000  C
  C176     1.0000 0.64059  0.31733  0.20349  Biso   1.000  C
  H177     1.0000 0.53464  0.26259  0.25588  Biso   1.000  H
  H178     1.0000 0.44705  0.27790  0.29111  Biso   1.000  H
  H179     1.0000 0.56601  0.30009  0.30371  Biso   1.000  H
  C177     1.0000 0.38692  0.38801  0.15368  Biso   1.000  C
  C178     1.0000 0.57058  0.38519  0.12838  Biso   1.000  C
  C179     1.0000 0.71016  0.33379  0.17059  Biso   1.000  C
  H180     1.0000 0.66437  0.29399  0.22971  Biso   1.000  H
  C180     1.0000 0.30380  0.36519  0.10572  Biso   1.000  C
  H181     1.0000 0.38870  0.41890  0.14388  Biso   1.000  H
  H182     1.0000 0.36446  0.38561  0.19119  Biso   1.000  H
  H183     1.0000 0.54758  0.40891  0.10299  Biso   1.000  H
  C181     1.0000 0.67236  0.36740  0.13269  Biso   1.000  C
  C182     1.0000 0.82377  0.31360  0.17560  Biso   1.000  C
  C183     1.0000 0.24057  0.33129  0.11898  Biso   1.000  C
  C184     1.0000 0.29170  0.37549  0.04581  Biso   1.000  C
  O42      1.0000 0.74345  0.38175  0.09961  Biso   1.000  O
  C185     1.0000 0.82068  0.27871  0.13172  Biso   1.000  C
  H184     1.0000 0.87591  0.33620  0.16980  Biso   1.000  H
  H185     1.0000 0.85149  0.30179  0.21570  Biso   1.000  H
  C186     1.0000 0.17177  0.30869  0.07572  Biso   1.000  C
  H186     1.0000 0.24591  0.32410  0.15891  Biso   1.000  H
  C187     1.0000 0.22060  0.35251  0.00312  Biso   1.000  C
  O43      1.0000 0.35300  0.40939  0.03479  Biso   1.000  O
  C188     1.0000 0.70570  0.41540  0.05890  Biso   1.000  C
  C189     1.0000 0.82696  0.28779  0.07510  Biso   1.000  C
  C190     1.0000 0.81150  0.23498  0.14608  Biso   1.000  C
  O44      1.0000 0.10647  0.27434  0.08692  Biso   1.000  O
  C191     1.0000 0.15920  0.31771  0.01651  Biso   1.000  C
  H187     1.0000 0.21246  0.36021  0.96319  Biso   1.000  H
  C192     1.0000 0.35001  0.41771  0.97470  Biso   1.000  C
  H188     1.0000 0.64469  0.40500  0.02732  Biso   1.000  H
  H189     1.0000 0.76606  0.42509  0.04221  Biso   1.000  H
  H190     1.0000 0.68032  0.43950  0.07901  Biso   1.000  H
  C193     1.0000 0.82217  0.25620  0.03360  Biso   1.000  C
  H191     1.0000 0.83502  0.31681  0.06452  Biso   1.000  H
  C194     1.0000 0.80850  0.20369  0.10379  Biso   1.000  C
  O45      1.0000 0.80563  0.22744  0.20239  Biso   1.000  O
  C195     1.0000 0.10619  0.26770  0.14700  Biso   1.000  C
  C196     1.0000 0.08362  0.29241  0.96759  Biso   1.000  C
  H192     1.0000 0.36831  0.39138  0.95621  Biso   1.000  H
  H193     1.0000 0.40368  0.44021  0.97242  Biso   1.000  H
  H194     1.0000 0.27598  0.42731  0.95419  Biso   1.000  H
  C197     1.0000 0.81386  0.21341  0.04761  Biso   1.000  C
  O46      1.0000 0.82557  0.26474  0.97540  Biso   1.000  O
  H195     1.0000 0.80248  0.17450  0.11411  Biso   1.000  H
  C198     1.0000 0.76787  0.18561  0.21508  Biso   1.000  C
  H196     1.0000 0.17967  0.25861  0.16910  Biso   1.000  H
  H197     1.0000 0.05241  0.24529  0.14959  Biso   1.000  H
  H198     1.0000 0.08609  0.29440  0.16369  Biso   1.000  H
  H199     1.0000 0.04736  0.31241  0.93579  Biso   1.000  H
  H200     1.0000 0.02542  0.27839  0.98291  Biso   1.000  H
  C199     1.0000 0.14678  0.25819  0.94242  Biso   1.000  C
  C200     1.0000 0.80546  0.17861  0.00141  Biso   1.000  C
  C201     1.0000 0.80487  0.30760  0.95621  Biso   1.000  C
  H201     1.0000 0.69367  0.18060  0.19040  Biso   1.000  H
  H202     1.0000 0.76627  0.18430  0.25659  Biso   1.000  H
  H203     1.0000 0.81815  0.16359  0.20700  Biso   1.000  H
  C202     1.0000 0.16401  0.21749  0.96728  Biso   1.000  C
  C203     1.0000 0.19261  0.26609  0.89428  Biso   1.000  C
  C204     1.0000 0.68660  0.17239  0.96618  Biso   1.000  C
  H204     1.0000 0.83384  0.15120  0.02082  Biso   1.000  H
  H205     1.0000 0.85178  0.18651  0.97439  Biso   1.000  H
  H206     1.0000 0.74532  0.31941  0.97171  Biso   1.000  H
  H207     1.0000 0.78327  0.30830  0.91308  Biso   1.000  H
  H208     1.0000 0.87179  0.32480  0.97031  Biso   1.000  H
  O47      1.0000 0.12228  0.20535  0.01340  Biso   1.000  O
  C205     1.0000 0.22218  0.18709  0.94462  Biso   1.000  C
  Br9      1.0000 0.16423  0.31938  0.85344  Biso   1.000  Br
  C206     1.0000 0.25492  0.23659  0.87298  Biso   1.000  C
  C207     1.0000 0.64375  0.19380  0.91339  Biso   1.000  C
  C208     1.0000 0.61629  0.14539  0.98660  Biso   1.000  C
  H209     1.0000 0.08858  0.22609  0.02381  Biso   1.000  H
  Br10     1.0000 0.23061  0.13155  0.97826  Biso   1.000  Br
  C209     1.0000 0.27221  0.19521  0.89780  Biso   1.000  C
  O48      1.0000 0.29321  0.24766  0.82581  Biso   1.000  O
  C210     1.0000 0.53565  0.19052  0.88330  Biso   1.000  C
  H210     1.0000 0.69168  0.21129  0.89780  Biso   1.000  H
  C211     1.0000 0.50679  0.14131  0.95608  Biso   1.000  C
  O49      1.0000 0.66245  0.12301  0.03861  Biso   1.000  O
  C212     1.0000 0.34124  0.16231  0.87548  Biso   1.000  C
  H211     1.0000 0.32975  0.22718  0.81689  Biso   1.000  H
  C213     1.0000 0.46426  0.16491  0.90500  Biso   1.000  C
  O50      1.0000 0.48999  0.21187  0.83099  Biso   1.000  O
  H212     1.0000 0.46012  0.12221  0.97022  Biso   1.000  H
  C214     1.0000 0.59155  0.09329  0.05859  Biso   1.000  C
  H213     1.0000 0.33083  0.16629  0.83271  Biso   1.000  H
  H214     1.0000 0.31428  0.13329  0.88181  Biso   1.000  H
  C215     1.0000 0.56077  0.23720  0.80710  Biso   1.000  C
  H215     1.0000 0.52647  0.10860  0.06421  Biso   1.000  H
  H216     1.0000 0.63146  0.08061  0.09588  Biso   1.000  H
  H217     1.0000 0.56862  0.07059  0.02921  Biso   1.000  H
  H218     1.0000 0.59085  0.26051  0.83451  Biso   1.000  H
  H219     1.0000 0.51977  0.24940  0.76972  Biso   1.000  H
  H220     1.0000 0.62128  0.21942  0.80060  Biso   1.000  H
  O51      1.0000 0.53545  0.68168  0.77090  Biso   1.000  O
  C216     1.0000 0.46106  0.66540  0.80169  Biso   1.000  C
  C217     1.0000 0.49364  0.71269  0.72658  Biso   1.000  C
  C218     1.0000 0.49988  0.63109  0.83920  Biso   1.000  C
  C219     1.0000 0.35936  0.68267  0.79651  Biso   1.000  C
  H221     1.0000 0.46530  0.73741  0.74411  Biso   1.000  H
  H222     1.0000 0.55290  0.72210  0.70888  Biso   1.000  H
  H223     1.0000 0.43402  0.69991  0.69628  Biso   1.000  H
  C220     1.0000 0.61311  0.61199  0.84631  Biso   1.000  C
  C221     1.0000 0.42937  0.61481  0.87161  Biso   1.000  C
  C222     1.0000 0.28978  0.66617  0.82940  Biso   1.000  C
  H224     1.0000 0.33558  0.70601  0.77028  Biso   1.000  H
  C223     1.0000 0.69617  0.63481  0.89432  Biso   1.000  C
  H225     1.0000 0.61132  0.58110  0.85611  Biso   1.000  H
  H226     1.0000 0.63549  0.61439  0.80880  Biso   1.000  H
  H227     1.0000 0.45236  0.59109  0.89700  Biso   1.000  H
  C224     1.0000 0.32759  0.63260  0.86731  Biso   1.000  C
  C225     1.0000 0.17617  0.68640  0.82440  Biso   1.000  C
  C226     1.0000 0.70825  0.62451  0.95418  Biso   1.000  C
  C227     1.0000 0.75937  0.66871  0.88101  Biso   1.000  C
  O52      1.0000 0.25650  0.61825  0.90038  Biso   1.000  O
  C228     1.0000 0.17929  0.72129  0.86832  Biso   1.000  C
  H228     1.0000 0.12412  0.66380  0.83019  Biso   1.000  H
  H229     1.0000 0.14846  0.69821  0.78430  Biso   1.000  H
  C229     1.0000 0.77937  0.64749  0.99692  Biso   1.000  C
  O53      1.0000 0.64695  0.59061  0.96521  Biso   1.000  O
  C230     1.0000 0.82820  0.69131  0.92432  Biso   1.000  C
  H230     1.0000 0.75403  0.67590  0.84109  Biso   1.000  H
  C231     1.0000 0.29432  0.58460  0.94109  Biso   1.000  C
  C232     1.0000 0.17298  0.71221  0.92489  Biso   1.000  C
  C233     1.0000 0.18853  0.76498  0.85391  Biso   1.000  C
  C234     1.0000 0.84075  0.68229  0.98348  Biso   1.000  C
  H231     1.0000 0.78748  0.63979  0.03680  Biso   1.000  H
  C235     1.0000 0.64994  0.58229  0.02529  Biso   1.000  C
  O54      1.0000 0.89350  0.72566  0.91312  Biso   1.000  O
  H232     1.0000 0.35527  0.59500  0.97272  Biso   1.000  H
  H233     1.0000 0.23388  0.57491  0.95778  Biso   1.000  H
  H234     1.0000 0.31971  0.56050  0.92098  Biso   1.000  H
  C236     1.0000 0.17778  0.74380  0.96639  Biso   1.000  C
  H235     1.0000 0.16503  0.68319  0.93552  Biso   1.000  H
  C237     1.0000 0.19153  0.79628  0.89621  Biso   1.000  C
  O55      1.0000 0.19432  0.77256  0.79760  Biso   1.000  O
  C238     1.0000 0.91641  0.70759  0.03240  Biso   1.000  C
  H236     1.0000 0.63163  0.60858  0.04378  Biso   1.000  H
  H237     1.0000 0.59628  0.55979  0.02762  Biso   1.000  H
  H238     1.0000 0.72397  0.57269  0.04580  Biso   1.000  H
  C239     1.0000 0.89376  0.73230  0.85299  Biso   1.000  C
  C240     1.0000 0.18608  0.78659  0.95238  Biso   1.000  C
  O56      1.0000 0.17438  0.73526  0.02459  Biso   1.000  O
  H239     1.0000 0.19747  0.82550  0.88588  Biso   1.000  H
  C241     1.0000 0.23208  0.81439  0.78491  Biso   1.000  C
  H240     1.0000 0.95259  0.68759  0.06420  Biso   1.000  H
  H241     1.0000 0.97452  0.72158  0.01708  Biso   1.000  H
  C242     1.0000 0.85319  0.74181  0.05762  Biso   1.000  C
  H242     1.0000 0.82027  0.74139  0.83090  Biso   1.000  H
  H243     1.0000 0.94753  0.75471  0.85040  Biso   1.000  H
  H244     1.0000 0.91385  0.70560  0.83630  Biso   1.000  H
  C243     1.0000 0.19449  0.82139  0.99859  Biso   1.000  C
  C244     1.0000 0.19507  0.69240  0.04378  Biso   1.000  C
  H245     1.0000 0.30628  0.81940  0.80959  Biso   1.000  H
  H246     1.0000 0.23367  0.81570  0.74341  Biso   1.000  H
  H247     1.0000 0.18180  0.83641  0.79299  Biso   1.000  H
  C245     1.0000 0.83601  0.78251  0.03271  Biso   1.000  C
  C246     1.0000 0.80742  0.73391  0.10571  Biso   1.000  C
  H248     1.0000 0.16612  0.84880  0.97922  Biso   1.000  H
  C247     1.0000 0.31343  0.82758  0.03381  Biso   1.000  C
  H249     1.0000 0.14816  0.81349  0.02560  Biso   1.000  H
  H250     1.0000 0.25471  0.68059  0.02828  Biso   1.000  H
  H251     1.0000 0.21668  0.69170  0.08691  Biso   1.000  H
  H252     1.0000 0.12816  0.67520  0.02968  Biso   1.000  H
  O57      1.0000 0.87767  0.79465  0.98660  Biso   1.000  O
  C248     1.0000 0.77777  0.81291  0.05538  Biso   1.000  C
  Br11     1.0000 0.83580  0.68062  0.14656  Biso   1.000  Br
  C249     1.0000 0.74511  0.76341  0.12701  Biso   1.000  C
  C250     1.0000 0.38365  0.85461  0.01339  Biso   1.000  C
  C251     1.0000 0.35620  0.80620  0.08660  Biso   1.000  C
  H253     1.0000 0.91137  0.77391  0.97619  Biso   1.000  H
  Br12     1.0000 0.76942  0.86845  0.02173  Biso   1.000  Br
  C252     1.0000 0.72781  0.80479  0.10220  Biso   1.000  C
  O58      1.0000 0.70674  0.75234  0.17418  Biso   1.000  O
  C253     1.0000 0.49315  0.85869  0.04391  Biso   1.000  C
  O59      1.0000 0.33750  0.87699  0.96138  Biso   1.000  O
  C254     1.0000 0.46430  0.80948  0.11669  Biso   1.000  C
  H254     1.0000 0.30827  0.78871  0.10220  Biso   1.000  H
  C255     1.0000 0.65870  0.83769  0.12451  Biso   1.000  C
  H255     1.0000 0.67019  0.77278  0.18310  Biso   1.000  H
  C256     1.0000 0.53569  0.83509  0.09499  Biso   1.000  C
  H256     1.0000 0.53985  0.87779  0.02981  Biso   1.000  H
  C257     1.0000 0.40840  0.90671  0.94140  Biso   1.000  C
  O60      1.0000 0.50998  0.78813  0.16904  Biso   1.000  O
  H257     1.0000 0.66920  0.83371  0.16729  Biso   1.000  H
  H258     1.0000 0.68566  0.86668  0.11818  Biso   1.000  H
  H259     1.0000 0.47348  0.89140  0.93578  Biso   1.000  H
  H260     1.0000 0.36848  0.91939  0.90411  Biso   1.000  H
  H261     1.0000 0.43140  0.92941  0.97078  Biso   1.000  H
  C258     1.0000 0.43918  0.76280  0.19289  Biso   1.000  C
  H262     1.0000 0.40910  0.73949  0.16549  Biso   1.000  H
  H263     1.0000 0.48020  0.75060  0.23031  Biso   1.000  H
  H264     1.0000 0.37866  0.78058  0.19939  Biso   1.000  H
  O61      1.0000 0.41841  0.87179  0.27718  Biso   1.000  O
  C259     1.0000 0.41852  0.88951  0.23159  Biso   1.000  C
  H265     1.0000 0.47456  0.87920  0.30310  Biso   1.000  H
  C260     1.0000 0.49941  0.91920  0.21938  Biso   1.000  C
  C261     1.0000 0.31542  0.88979  0.18381  Biso   1.000  C
  C262     1.0000 0.48515  0.93891  0.16519  Biso   1.000  C
  C263     1.0000 0.60020  0.92671  0.26928  Biso   1.000  C
  Br13     1.0000 0.20626  0.85313  0.20037  Biso   1.000  Br
  C264     1.0000 0.30052  0.91137  0.13080  Biso   1.000  C
  Br14     1.0000 0.60285  0.96848  0.14481  Biso   1.000  Br
  C265     1.0000 0.38639  0.93519  0.12021  Biso   1.000  C
  H266     1.0000 0.66394  0.93361  0.25298  Biso   1.000  H
  H267     1.0000 0.61779  0.90020  0.29300  Biso   1.000  H
  C266     1.0000 0.58066  0.96340  0.30828  Biso   1.000  C
  C267     1.0000 0.19120  0.90829  0.08319  Biso   1.000  C
  O62      1.0000 0.38201  0.95567  0.06869  Biso   1.000  O
  C268     1.0000 0.54636  0.95721  0.36011  Biso   1.000  C
  C269     1.0000 0.59599  0.00559  0.29181  Biso   1.000  C
  C270     1.0000 0.10550  0.94170  0.09070  Biso   1.000  C
  H268     1.0000 0.20657  0.91220  0.04418  Biso   1.000  H
  H269     1.0000 0.15990  0.87920  0.08428  Biso   1.000  H
  H270     1.0000 0.32032  0.95140  0.04550  Biso   1.000  H
  C271     1.0000 0.53148  0.99050  0.39309  Biso   1.000  C
  O63      1.0000 0.53137  0.91429  0.37451  Biso   1.000  O
  H271     1.0000 0.62039  0.01101  0.25729  Biso   1.000  H
  C272     1.0000 0.57576  0.04019  0.32620  Biso   1.000  C
  C273     1.0000 0.10336  0.98250  0.06878  Biso   1.000  C
  C274     1.0000 0.02708  0.93101  0.12052  Biso   1.000  C
  H272     1.0000 0.51181  0.98510  0.42902  Biso   1.000  H
  C275     1.0000 0.54363  0.03281  0.37702  Biso   1.000  C
  C276     1.0000 0.48994  0.90649  0.42458  Biso   1.000  C
  O64      1.0000 0.58579  0.08224  0.31021  Biso   1.000  O
  O65      1.0000 0.18361  0.99255  0.03891  Biso   1.000  O
  C277     1.0000 0.02546  0.01281  0.07708  Biso   1.000  C
  H273     1.0000 0.02691  0.90280  0.13589  Biso   1.000  H
  C278     1.0000 0.94879  0.96010  0.12851  Biso   1.000  C
  C279     1.0000 0.51689  0.06969  0.41391  Biso   1.000  C
  H274     1.0000 0.54249  0.91721  0.45981  Biso   1.000  H
  H275     1.0000 0.47948  0.87551  0.42858  Biso   1.000  H
  H276     1.0000 0.41920  0.92119  0.42002  Biso   1.000  H
  C280     1.0000 0.61727  0.08911  0.25470  Biso   1.000  C
  C281     1.0000 0.19748  0.03631  0.02622  Biso   1.000  C
  C282     1.0000 0.94552  0.00180  0.10708  Biso   1.000  C
  H277     1.0000 0.02701  0.04109  0.06210  Biso   1.000  H
  O66      1.0000 0.87174  0.95040  0.16062  Biso   1.000  O
  C283     1.0000 0.39765  0.08501  0.39239  Biso   1.000  C
  H278     1.0000 0.56722  0.09399  0.41251  Biso   1.000  H
  H279     1.0000 0.52989  0.06029  0.45520  Biso   1.000  H
  H280     1.0000 0.68896  0.07560  0.25698  Biso   1.000  H
  H281     1.0000 0.62219  0.11990  0.24771  Biso   1.000  H
  H282     1.0000 0.56165  0.07621  0.22250  Biso   1.000  H
  H283     1.0000 0.13388  0.04600  0.99561  Biso   1.000  H
  H284     1.0000 0.26467  0.03961  0.01221  Biso   1.000  H
  H285     1.0000 0.20369  0.05351  0.06180  Biso   1.000  H
  C284     1.0000 0.86134  0.03329  0.11630  Biso   1.000  C
  C285     1.0000 0.88987  0.91239  0.19501  Biso   1.000  C
  C286     1.0000 0.31371  0.06369  0.41079  Biso   1.000  C
  C287     1.0000 0.37772  0.12009  0.35479  Biso   1.000  C
  C288     1.0000 0.90812  0.05929  0.17191  Biso   1.000  C
  H286     1.0000 0.79429  0.01778  0.12008  Biso   1.000  H
  H287     1.0000 0.84074  0.05271  0.08209  Biso   1.000  H
  H288     1.0000 0.89003  0.88752  0.16940  Biso   1.000  H
  H289     1.0000 0.83103  0.90899  0.21552  Biso   1.000  H
  H290     1.0000 0.96111  0.91429  0.22382  Biso   1.000  H
  C289     1.0000 0.20360  0.07881  0.39019  Biso   1.000  C
  O67      1.0000 0.34328  0.03127  0.44799  Biso   1.000  O
  C290     1.0000 0.26340  0.13380  0.33459  Biso   1.000  C
  H291     1.0000 0.43558  0.13451  0.34289  Biso   1.000  H
  C291     1.0000 0.97026  0.09631  0.16910  Biso   1.000  C
  C292     1.0000 0.89674  0.04459  0.22492  Biso   1.000  C
  C293     1.0000 0.18172  0.11300  0.35321  Biso   1.000  C
  H292     1.0000 0.14530  0.06491  0.40218  Biso   1.000  H
  C294     1.0000 0.26197  0.99971  0.45168  Biso   1.000  C
  O68      1.0000 0.23552  0.16924  0.29879  Biso   1.000  O
  O69      1.0000 0.98217  0.10802  0.11428  Biso   1.000  O
  C295     1.0000 0.01627  0.11858  0.22009  Biso   1.000  C
  H293     1.0000 0.85424  0.01961  0.22650  Biso   1.000  H
  C296     1.0000 0.94739  0.06629  0.27732  Biso   1.000  C
  C297     1.0000 0.05978  0.12709  0.33121  Biso   1.000  C
  H294     1.0000 0.29687  0.97631  0.47760  Biso   1.000  H
  H295     1.0000 0.22893  0.98831  0.41251  Biso   1.000  H
  H296     1.0000 0.20458  0.01300  0.46771  Biso   1.000  H
  C298     1.0000 0.32077  0.19328  0.28549  Biso   1.000  C
  C299     1.0000 0.06293  0.14028  0.11200  Biso   1.000  C
  H297     1.0000 0.05721  0.14401  0.21842  Biso   1.000  H
  C300     1.0000 0.00300  0.10401  0.27420  Biso   1.000  C
  O70      1.0000 0.93880  0.05252  0.33169  Biso   1.000  O
  H298     1.0000 0.01999  0.12070  0.36182  Biso   1.000  H
  H299     1.0000 0.05663  0.15849  0.32440  Biso   1.000  H
  H300     1.0000 0.37199  0.20259  0.32198  Biso   1.000  H
  H301     1.0000 0.28992  0.21848  0.26230  Biso   1.000  H
  H302     1.0000 0.36036  0.17550  0.26291  Biso   1.000  H
  H303     1.0000 0.04462  0.16690  0.12979  Biso   1.000  H
  H304     1.0000 0.06343  0.14571  0.07089  Biso   1.000  H
  H305     1.0000 0.13591  0.13030  0.13352  Biso   1.000  H
  C301     1.0000 0.90914  0.00880  0.33582  Biso   1.000  C
  H306     1.0000 0.95196  0.99069  0.31540  Biso   1.000  H
  H307     1.0000 0.83041  0.00510  0.31759  Biso   1.000  H
  H308     1.0000 0.92450  0.00039  0.37719  Biso   1.000  H
  O71      1.0000 0.58162  0.12818  0.72281  Biso   1.000  O
  C302     1.0000 0.58151  0.11049  0.76840  Biso   1.000  C
  H309     1.0000 0.52538  0.12080  0.69689  Biso   1.000  H
  C303     1.0000 0.50062  0.08080  0.78061  Biso   1.000  C
  C304     1.0000 0.68460  0.11021  0.81618  Biso   1.000  C
  C305     1.0000 0.39983  0.07329  0.73071  Biso   1.000  C
  C306     1.0000 0.51479  0.06109  0.83480  Biso   1.000  C
  C307     1.0000 0.69951  0.08863  0.86919  Biso   1.000  C
  Br15     1.0000 0.79368  0.14687  0.79962  Biso   1.000  Br
  C308     1.0000 0.41928  0.03660  0.69171  Biso   1.000  C
  H310     1.0000 0.33601  0.06639  0.74701  Biso   1.000  H
  H311     1.0000 0.38216  0.09980  0.70699  Biso   1.000  H
  Br16     1.0000 0.39709  0.03152  0.85518  Biso   1.000  Br
  C309     1.0000 0.61355  0.06478  0.87978  Biso   1.000  C
  C310     1.0000 0.80875  0.09168  0.91680  Biso   1.000  C
  C311     1.0000 0.45358  0.04279  0.63988  Biso   1.000  C
  C312     1.0000 0.40396  0.99438  0.70818  Biso   1.000  C
  O72      1.0000 0.61802  0.04433  0.93130  Biso   1.000  O
  C313     1.0000 0.89445  0.05830  0.90929  Biso   1.000  C
  H312     1.0000 0.79337  0.08780  0.95581  Biso   1.000  H
  H313     1.0000 0.84004  0.12080  0.91571  Biso   1.000  H
  O73      1.0000 0.46858  0.08571  0.62548  Biso   1.000  O
  C314     1.0000 0.46847  0.00950  0.60690  Biso   1.000  C
  H314     1.0000 0.37956  0.98899  0.74270  Biso   1.000  H
  C315     1.0000 0.42419  0.95981  0.67379  Biso   1.000  C
  H315     1.0000 0.67971  0.04860  0.95449  Biso   1.000  H
  C316     1.0000 0.89658  0.01750  0.93121  Biso   1.000  C
  C317     1.0000 0.97289  0.06899  0.87952  Biso   1.000  C
  C318     1.0000 0.51001  0.09351  0.57541  Biso   1.000  C
  H316     1.0000 0.48816  0.01490  0.57102  Biso   1.000  H
  C319     1.0000 0.45642  0.96719  0.62302  Biso   1.000  C
  O74      1.0000 0.41415  0.91772  0.68978  Biso   1.000  O
  O75      1.0000 0.81634  0.00745  0.96108  Biso   1.000  O
  C320     1.0000 0.97448  0.98719  0.92291  Biso   1.000  C
  H317     1.0000 0.97304  0.09720  0.86410  Biso   1.000  H
  C321     1.0000 0.05115  0.03990  0.87148  Biso   1.000  C
  H318     1.0000 0.45746  0.08279  0.54018  Biso   1.000  H
  H319     1.0000 0.52046  0.12449  0.57141  Biso   1.000  H
  H320     1.0000 0.58077  0.07881  0.58002  Biso   1.000  H
  C322     1.0000 0.48306  0.93031  0.58608  Biso   1.000  C
  C323     1.0000 0.38268  0.91089  0.74529  Biso   1.000  C
  C324     1.0000 0.80249  0.96369  0.97381  Biso   1.000  C
  H321     1.0000 0.97293  0.95891  0.93789  Biso   1.000  H
  C325     1.0000 0.05450  0.99820  0.89291  Biso   1.000  C
  O76      1.0000 0.12830  0.04960  0.83942  Biso   1.000  O
  C326     1.0000 0.60230  0.91499  0.60760  Biso   1.000  C
  H322     1.0000 0.43281  0.90601  0.58749  Biso   1.000  H
  H323     1.0000 0.47006  0.93971  0.54479  Biso   1.000  H
  H324     1.0000 0.31099  0.92440  0.74301  Biso   1.000  H
  H325     1.0000 0.37775  0.88010  0.75228  Biso   1.000  H
  H326     1.0000 0.43830  0.92379  0.77749  Biso   1.000  H
  H327     1.0000 0.73528  0.96039  0.98778  Biso   1.000  H
  H328     1.0000 0.79626  0.94649  0.93819  Biso   1.000  H
  H329     1.0000 0.86607  0.95400  0.00438  Biso   1.000  H
  C327     1.0000 0.13869  0.96671  0.88369  Biso   1.000  C
  C328     1.0000 0.11008  0.08761  0.80498  Biso   1.000  C
  C329     1.0000 0.68624  0.93631  0.58920  Biso   1.000  C
  C330     1.0000 0.62231  0.87991  0.64520  Biso   1.000  C
  C331     1.0000 0.09183  0.94071  0.82808  Biso   1.000  C
  H330     1.0000 0.20566  0.98218  0.87991  Biso   1.000  H
  H331     1.0000 0.15929  0.94729  0.91790  Biso   1.000  H
  H332     1.0000 0.10992  0.11248  0.83059  Biso   1.000  H
  H333     1.0000 0.16893  0.09101  0.78452  Biso   1.000  H
  H334     1.0000 0.03886  0.08571  0.77621  Biso   1.000  H
  C332     1.0000 0.79635  0.92119  0.60980  Biso   1.000  C
  O77      1.0000 0.65667  0.96870  0.55200  Biso   1.000  O
  C333     1.0000 0.73655  0.86620  0.66540  Biso   1.000  C
  H335     1.0000 0.56437  0.86549  0.65710  Biso   1.000  H
  C334     1.0000 0.02969  0.90369  0.83090  Biso   1.000  C
  C335     1.0000 0.10331  0.95541  0.77512  Biso   1.000  C
  C336     1.0000 0.81823  0.88700  0.64678  Biso   1.000  C
  H336     1.0000 0.85465  0.93509  0.59781  Biso   1.000  H
  C337     1.0000 0.73798  0.00029  0.54831  Biso   1.000  C
  O78      1.0000 0.76451  0.83076  0.70120  Biso   1.000  O
  C338     1.0000 0.98368  0.88138  0.77990  Biso   1.000  C
  O79      1.0000 0.01778  0.89198  0.88571  Biso   1.000  O
  C339     1.0000 0.05258  0.93371  0.72272  Biso   1.000  C
  H337     1.0000 0.14578  0.98039  0.77349  Biso   1.000  H
  C340     1.0000 0.94017  0.87291  0.66878  Biso   1.000  C
  H338     1.0000 0.70308  0.02369  0.52240  Biso   1.000  H
  H339     1.0000 0.77110  0.01169  0.58749  Biso   1.000  H
  H340     1.0000 0.79537  0.98700  0.53228  Biso   1.000  H
  C341     1.0000 0.67917  0.80668  0.71451  Biso   1.000  C
  C342     1.0000 0.99695  0.89599  0.72579  Biso   1.000  C
  H341     1.0000 0.94276  0.85599  0.78162  Biso   1.000  H
  C343     1.0000 0.93710  0.85968  0.88799  Biso   1.000  C
  O80      1.0000 0.06115  0.94748  0.66830  Biso   1.000  O
  H342     1.0000 0.97998  0.87930  0.63821  Biso   1.000  H
  H343     1.0000 0.94339  0.84148  0.67559  Biso   1.000  H
  H344     1.0000 0.62796  0.79741  0.67801  Biso   1.000  H
  H345     1.0000 0.71010  0.78148  0.73770  Biso   1.000  H
  H346     1.0000 0.63959  0.82450  0.73708  Biso   1.000  H
  H347     1.0000 0.95541  0.83310  0.87020  Biso   1.000  H
  H348     1.0000 0.93660  0.85429  0.92910  Biso   1.000  H
  H349     1.0000 0.86406  0.86970  0.86652  Biso   1.000  H
  C344     1.0000 0.09090  0.99120  0.66422  Biso   1.000  C
  H350     1.0000 0.16953  0.99490  0.68240  Biso   1.000  H
  H351     1.0000 0.07544  0.99958  0.62280  Biso   1.000  H
  H352     1.0000 0.04799  0.00931  0.68460  Biso   1.000  H
