data_image0
_cell_length_a       28.381
_cell_length_b       28.381
_cell_length_c       22.099
_cell_angle_alpha    90
_cell_angle_beta     90
_cell_angle_gamma    90

_symmetry_space_group_name_H-M    "P 1"
_symmetry_int_tables_number       1

loop_
  _symmetry_equiv_pos_as_xyz
  'x, y, z'

loop_
  _atom_site_label
  _atom_site_occupancy
  _atom_site_fract_x
  _atom_site_fract_y
  _atom_site_fract_z
  _atom_site_thermal_displace_type
  _atom_site_B_iso_or_equiv
  _atom_site_type_symbol
  C1       1.0000 0.71196  0.27920  0.46170  Biso   1.000  C
  N1       1.0000 0.67771  0.25101  0.49459  Biso   1.000  N
  N2       1.0000 0.72992  0.31891  0.49676  Biso   1.000  N
  H1       1.0000 0.73870  0.25880  0.44979  Biso   1.000  H
  H2       1.0000 0.69709  0.29129  0.42427  Biso   1.000  H
  C2       1.0000 0.62827  0.26243  0.49740  Biso   1.000  C
  C3       1.0000 0.68645  0.20489  0.50907  Biso   1.000  C
  C4       1.0000 0.70477  0.36299  0.50210  Biso   1.000  C
  C5       1.0000 0.77643  0.32342  0.51111  Biso   1.000  C
  C6       1.0000 0.60519  0.21553  0.51907  Biso   1.000  C
  N3       1.0000 0.61541  0.29576  0.54423  Biso   1.000  N
  H3       1.0000 0.61591  0.27229  0.45699  Biso   1.000  H
  N4       1.0000 0.64504  0.18428  0.52600  Biso   1.000  N
  O1       1.0000 0.72527  0.18526  0.50645  Biso   1.000  O
  N5       1.0000 0.66798  0.36292  0.54763  Biso   1.000  N
  C7       1.0000 0.74187  0.39720  0.52704  Biso   1.000  C
  H4       1.0000 0.69247  0.37370  0.46201  Biso   1.000  H
  N6       1.0000 0.78387  0.36831  0.53034  Biso   1.000  N
  O2       1.0000 0.80663  0.29213  0.50672  Biso   1.000  O
  N7       1.0000 0.58261  0.22920  0.57573  Biso   1.000  N
  H5       1.0000 0.58190  0.20320  0.48898  Biso   1.000  H
  C8       1.0000 0.58726  0.27624  0.58749  Biso   1.000  C
  C9       1.0000 0.62049  0.34636  0.53649  Biso   1.000  C
  C10      1.0000 0.63979  0.13333  0.52962  Biso   1.000  C
  C11      1.0000 0.67894  0.39206  0.59528  Biso   1.000  C
  N8       1.0000 0.72288  0.41080  0.58546  Biso   1.000  N
  H6       1.0000 0.74638  0.42500  0.49989  Biso   1.000  H
  C12      1.0000 0.83137  0.38808  0.53717  Biso   1.000  C
  C13      1.0000 0.54928  0.19964  0.60727  Biso   1.000  C
  O3       1.0000 0.56844  0.29710  0.62985  Biso   1.000  O
  H7       1.0000 0.59868  0.36260  0.56451  Biso   1.000  H
  H8       1.0000 0.61129  0.35489  0.49468  Biso   1.000  H
  N9       1.0000 0.63053  0.11638  0.59039  Biso   1.000  N
  H9       1.0000 0.61358  0.12350  0.50287  Biso   1.000  H
  H10      1.0000 0.66900  0.11828  0.51441  Biso   1.000  H
  O4       1.0000 0.65354  0.39995  0.63890  Biso   1.000  O
  C14      1.0000 0.73916  0.45210  0.61781  Biso   1.000  C
  N10      1.0000 0.84271  0.40062  0.59921  Biso   1.000  N
  H11      1.0000 0.83408  0.41648  0.51147  Biso   1.000  H
  H12      1.0000 0.85469  0.36479  0.52260  Biso   1.000  H
  N11      1.0000 0.57137  0.16289  0.64315  Biso   1.000  N
  H13      1.0000 0.52799  0.18481  0.57731  Biso   1.000  H
  H14      1.0000 0.52979  0.21958  0.63419  Biso   1.000  H
  C15      1.0000 0.58441  0.11768  0.61727  Biso   1.000  C
  C16      1.0000 0.66055  0.08661  0.61998  Biso   1.000  C
  N12      1.0000 0.78158  0.44378  0.65274  Biso   1.000  N
  H15      1.0000 0.74529  0.47768  0.58840  Biso   1.000  H
  H16      1.0000 0.71389  0.46288  0.64537  Biso   1.000  H
  C17      1.0000 0.82844  0.44502  0.62596  Biso   1.000  C
  C18      1.0000 0.87911  0.38032  0.62989  Biso   1.000  C
  C19      1.0000 0.56481  0.15975  0.70460  Biso   1.000  C
  H17      1.0000 0.55971  0.10581  0.58880  Biso   1.000  H
  C20      1.0000 0.58948  0.08534  0.67365  Biso   1.000  C
  N13      1.0000 0.63828  0.07029  0.67089  Biso   1.000  N
  O5       1.0000 0.70026  0.07512  0.60283  Biso   1.000  O
  C21      1.0000 0.78295  0.44984  0.71420  Biso   1.000  C
  C22      1.0000 0.86139  0.45041  0.68148  Biso   1.000  C
  H18      1.0000 0.83200  0.47179  0.59690  Biso   1.000  H
  O6       1.0000 0.89969  0.34389  0.61564  Biso   1.000  O
  N14      1.0000 0.88957  0.40760  0.67935  Biso   1.000  N
  O7       1.0000 0.54935  0.19150  0.73714  Biso   1.000  O
  N15      1.0000 0.57813  0.11624  0.72343  Biso   1.000  N
  H19      1.0000 0.56739  0.05789  0.67170  Biso   1.000  H
  C23      1.0000 0.65769  0.03277  0.70791  Biso   1.000  C
  N16      1.0000 0.82918  0.45210  0.73216  Biso   1.000  N
  O8       1.0000 0.74835  0.45270  0.74768  Biso   1.000  O
  H20      1.0000 0.88129  0.47941  0.67881  Biso   1.000  H
  C24      1.0000 0.93168  0.40129  0.71560  Biso   1.000  C
  C25      1.0000 0.56827  0.09869  0.78438  Biso   1.000  C
  N17      1.0000 0.67080  0.04792  0.76782  Biso   1.000  N
  H21      1.0000 0.63409  0.00719  0.71130  Biso   1.000  H
  H22      1.0000 0.68578  0.01959  0.68741  Biso   1.000  H
  C26      1.0000 0.84229  0.46725  0.79207  Biso   1.000  C
  N18      1.0000 0.92185  0.38378  0.77655  Biso   1.000  N
  H23      1.0000 0.95289  0.37888  0.69478  Biso   1.000  H
  H24      1.0000 0.94838  0.43191  0.71868  Biso   1.000  H
  N19      1.0000 0.61041  0.09239  0.82063  Biso   1.000  N
  H25      1.0000 0.54709  0.12110  0.80519  Biso   1.000  H
  H26      1.0000 0.55160  0.06811  0.78130  Biso   1.000  H
  C27      1.0000 0.63860  0.04961  0.81850  Biso   1.000  C
  C28      1.0000 0.71703  0.05014  0.78578  Biso   1.000  C
  N20      1.0000 0.86170  0.42972  0.82909  Biso   1.000  N
  H27      1.0000 0.86590  0.49279  0.78868  Biso   1.000  H
  H28      1.0000 0.81417  0.48039  0.81257  Biso   1.000  H
  C29      1.0000 0.91047  0.41468  0.82633  Biso   1.000  C
  C30      1.0000 0.93517  0.34026  0.79538  Biso   1.000  C
  C31      1.0000 0.62084  0.11969  0.87008  Biso   1.000  C
  H29      1.0000 0.61869  0.02061  0.82117  Biso   1.000  H
  C32      1.0000 0.67154  0.05497  0.87402  Biso   1.000  C
  N21      1.0000 0.71840  0.05620  0.84723  Biso   1.000  N
  O9       1.0000 0.75163  0.04732  0.75230  Biso   1.000  O
  C33      1.0000 0.83943  0.41338  0.87999  Biso   1.000  C
  C34      1.0000 0.91558  0.38230  0.88266  Biso   1.000  C
  H30      1.0000 0.93260  0.44209  0.82827  Biso   1.000  H
  O10      1.0000 0.95064  0.30848  0.76284  Biso   1.000  O
  N22      1.0000 0.92858  0.33709  0.85683  Biso   1.000  N
  O11      1.0000 0.60030  0.15609  0.88434  Biso   1.000  O
  N23      1.0000 0.65727  0.09936  0.90076  Biso   1.000  N
  H31      1.0000 0.66798  0.02819  0.90307  Biso   1.000  H
  C35      1.0000 0.76083  0.04788  0.88217  Biso   1.000  C
  N24      1.0000 0.86945  0.38364  0.90959  Biso   1.000  N
  O12      1.0000 0.79969  0.42486  0.89714  Biso   1.000  O
  H32      1.0000 0.94028  0.39421  0.91117  Biso   1.000  H
  C36      1.0000 0.95067  0.30038  0.89266  Biso   1.000  C
  C37      1.0000 0.66862  0.11191  0.96280  Biso   1.000  C
  N25      1.0000 0.77707  0.08918  0.91452  Biso   1.000  N
  H33      1.0000 0.75470  0.02230  0.91158  Biso   1.000  H
  H34      1.0000 0.78609  0.03710  0.85456  Biso   1.000  H
  C38      1.0000 0.86015  0.36665  0.97036  Biso   1.000  C
  N26      1.0000 0.91734  0.27081  0.92425  Biso   1.000  N
  H35      1.0000 0.97199  0.31521  0.92267  Biso   1.000  H
  H36      1.0000 0.97019  0.28040  0.86579  Biso   1.000  H
  N27      1.0000 0.71611  0.13171  0.96964  Biso   1.000  N
  H37      1.0000 0.66590  0.08351  0.98846  Biso   1.000  H
  H38      1.0000 0.64529  0.13520  0.97737  Biso   1.000  H
  C39      1.0000 0.75808  0.10278  0.97294  Biso   1.000  C
  C40      1.0000 0.82104  0.10792  0.90470  Biso   1.000  C
  N28      1.0000 0.85490  0.31570  0.97398  Biso   1.000  N
  H39      1.0000 0.88637  0.37648  0.99710  Biso   1.000  H
  H40      1.0000 0.83098  0.38170  0.98556  Biso   1.000  H
  C41      1.0000 0.89475  0.28449  0.98090  Biso   1.000  C
  C42      1.0000 0.91272  0.22374  0.91248  Biso   1.000  C
  C43      1.0000 0.72355  0.17656  0.98887  Biso   1.000  C
  C44      1.0000 0.79522  0.13703  0.99787  Biso   1.000  C
  H41      1.0000 0.75360  0.07501  0.00009  Biso   1.000  H
  N29      1.0000 0.83200  0.13706  0.95235  Biso   1.000  N
  O13      1.0000 0.84641  0.10003  0.86108  Biso   1.000  O
  C45      1.0000 0.81354  0.29513  0.99090  Biso   1.000  C
  C46      1.0000 0.87171  0.23755  0.00258  Biso   1.000  C
  H42      1.0000 0.91808  0.29678  0.01100  Biso   1.000  H
  N30      1.0000 0.88454  0.20422  0.95574  Biso   1.000  N
  O14      1.0000 0.93154  0.20288  0.87013  Biso   1.000  O
  O15      1.0000 0.69335  0.20785  0.99326  Biso   1.000  O
  N31      1.0000 0.77006  0.18107  0.00321  Biso   1.000  N
  H43      1.0000 0.80748  0.12628  0.03797  Biso   1.000  H
  C47      1.0000 0.87946  0.15362  0.96348  Biso   1.000  C
  N32      1.0000 0.82228  0.24897  0.00538  Biso   1.000  N
  O16      1.0000 0.77471  0.31472  0.99348  Biso   1.000  O
  H44      1.0000 0.88408  0.22769  0.04299  Biso   1.000  H
  C48      1.0000 0.78803  0.22078  0.03828  Biso   1.000  C
  H45      1.0000 0.90127  0.13738  0.93547  Biso   1.000  H
  H46      1.0000 0.88869  0.14510  0.00529  Biso   1.000  H
  H47      1.0000 0.76128  0.24118  0.05018  Biso   1.000  H
  H48      1.0000 0.80290  0.20870  0.07566  Biso   1.000  H
  C49      1.0000 0.83531  0.16053  0.42368  Biso   1.000  C
  N33      1.0000 0.82027  0.11169  0.42092  Biso   1.000  N
  N34      1.0000 0.86625  0.17188  0.47346  Biso   1.000  N
  C50      1.0000 0.86769  0.16560  0.36730  Biso   1.000  C
  H49      1.0000 0.80790  0.18259  0.42169  Biso   1.000  H
  C51      1.0000 0.86769  0.16557  0.36730  Biso   1.000  C
  H50      1.0000 0.80790  0.18262  0.42169  Biso   1.000  H
  N35      1.0000 0.86621  0.17188  0.47346  Biso   1.000  N
  C52      1.0000 0.78274  0.09232  0.45789  Biso   1.000  C
  C53      1.0000 0.83535  0.16049  0.42368  Biso   1.000  C
  C54      1.0000 0.83662  0.08946  0.36997  Biso   1.000  C
  C55      1.0000 0.78278  0.09232  0.45789  Biso   1.000  C
  C56      1.0000 0.83535  0.16053  0.42368  Biso   1.000  C
  C57      1.0000 0.78278  0.09228  0.45789  Biso   1.000  C
  C58      1.0000 0.83531  0.16049  0.42368  Biso   1.000  C
  C59      1.0000 0.78274  0.09228  0.45789  Biso   1.000  C
  C60      1.0000 0.90973  0.18519  0.45459  Biso   1.000  C
  C61      1.0000 0.84870  0.18171  0.53437  Biso   1.000  C
  N36      1.0000 0.86639  0.11948  0.34038  Biso   1.000  N
  N37      1.0000 0.86639  0.11945  0.34038  Biso   1.000  N
  N38      1.0000 0.86635  0.11948  0.34038  Biso   1.000  N
  N39      1.0000 0.86635  0.11945  0.34038  Biso   1.000  N
  N40      1.0000 0.91290  0.17861  0.39314  Biso   1.000  N
  H51      1.0000 0.85582  0.19030  0.33879  Biso   1.000  H
  N41      1.0000 0.91290  0.17864  0.39314  Biso   1.000  N
  H52      1.0000 0.85582  0.19027  0.33879  Biso   1.000  H
  H53      1.0000 0.85578  0.19030  0.33879  Biso   1.000  H
  H54      1.0000 0.85578  0.19027  0.33879  Biso   1.000  H
  N42      1.0000 0.79793  0.07917  0.51781  Biso   1.000  N
  H55      1.0000 0.75720  0.11589  0.46129  Biso   1.000  H
  H56      1.0000 0.76960  0.06420  0.43740  Biso   1.000  H
  N43      1.0000 0.79793  0.07921  0.51781  Biso   1.000  N
  H57      1.0000 0.75720  0.11592  0.46129  Biso   1.000  H
  N44      1.0000 0.79789  0.07917  0.51781  Biso   1.000  N
  N45      1.0000 0.79789  0.07921  0.51781  Biso   1.000  N
  O17      1.0000 0.82513  0.04972  0.35287  Biso   1.000  O
  O18      1.0000 0.82509  0.04972  0.35287  Biso   1.000  O
  O19      1.0000 0.94151  0.20066  0.48713  Biso   1.000  O
  N46      1.0000 0.84239  0.13957  0.57066  Biso   1.000  N
  N47      1.0000 0.84236  0.13957  0.57066  Biso   1.000  N
  H58      1.0000 0.87111  0.20288  0.55518  Biso   1.000  H
  H59      1.0000 0.81812  0.19841  0.53129  Biso   1.000  H
  H60      1.0000 0.87111  0.20292  0.55518  Biso   1.000  H
  H61      1.0000 0.87108  0.20288  0.55518  Biso   1.000  H
  H62      1.0000 0.81808  0.19841  0.53129  Biso   1.000  H
  H63      1.0000 0.87108  0.20292  0.55518  Biso   1.000  H
  C62      1.0000 0.88334  0.11018  0.27961  Biso   1.000  C
  C63      1.0000 0.94961  0.20070  0.35730  Biso   1.000  C
  C64      1.0000 0.79962  0.11141  0.56849  Biso   1.000  C
  C65      1.0000 0.80015  0.03298  0.53577  Biso   1.000  C
  C66      1.0000 0.80015  0.03294  0.53577  Biso   1.000  C
  C67      1.0000 0.79958  0.11141  0.56849  Biso   1.000  C
  C68      1.0000 0.80011  0.03298  0.53577  Biso   1.000  C
  C69      1.0000 0.80011  0.03294  0.53577  Biso   1.000  C
  C70      1.0000 0.86967  0.12914  0.62007  Biso   1.000  C
  C71      1.0000 0.86967  0.12917  0.62007  Biso   1.000  C
  N48      1.0000 0.93429  0.10493  0.27599  Biso   1.000  N
  H64      1.0000 0.87351  0.13639  0.25291  Biso   1.000  H
  H65      1.0000 0.86829  0.08100  0.26440  Biso   1.000  H
  N49      1.0000 0.93429  0.10489  0.27599  Biso   1.000  N
  H66      1.0000 0.87351  0.13643  0.25291  Biso   1.000  H
  H67      1.0000 0.86829  0.08097  0.26440  Biso   1.000  H
  H68      1.0000 0.87347  0.13639  0.25291  Biso   1.000  H
  H69      1.0000 0.87347  0.13643  0.25291  Biso   1.000  H
  N50      1.0000 0.97918  0.16737  0.32572  Biso   1.000  N
  H70      1.0000 0.93482  0.22198  0.32730  Biso   1.000  H
  H71      1.0000 0.96959  0.22018  0.38418  Biso   1.000  H
  N51      1.0000 0.97918  0.16740  0.32572  Biso   1.000  N
  H72      1.0000 0.96959  0.22022  0.38418  Biso   1.000  H
  H73      1.0000 0.93478  0.22198  0.32730  Biso   1.000  H
  H74      1.0000 0.77062  0.13129  0.57120  Biso   1.000  H
  C72      1.0000 0.80498  0.07847  0.62401  Biso   1.000  C
  H75      1.0000 0.77062  0.13132  0.57120  Biso   1.000  H
  C73      1.0000 0.80498  0.07843  0.62401  Biso   1.000  C
  H76      1.0000 0.77059  0.13129  0.57120  Biso   1.000  H
  C74      1.0000 0.80494  0.07847  0.62401  Biso   1.000  C
  H77      1.0000 0.77059  0.13132  0.57120  Biso   1.000  H
  C75      1.0000 0.80494  0.07843  0.62401  Biso   1.000  C
  N52      1.0000 0.80621  0.03157  0.59722  Biso   1.000  N
  O20      1.0000 0.79733  0.99838  0.50233  Biso   1.000  O
  O21      1.0000 0.79733  0.99834  0.50233  Biso   1.000  O
  O22      1.0000 0.79729  0.99838  0.50233  Biso   1.000  O
  O23      1.0000 0.79729  0.99834  0.50233  Biso   1.000  O
  N53      1.0000 0.84937  0.09274  0.65080  Biso   1.000  N
  O24      1.0000 0.90610  0.14971  0.63437  Biso   1.000  O
  O25      1.0000 0.90610  0.14968  0.63437  Biso   1.000  O
  C76      1.0000 0.96551  0.14478  0.26911  Biso   1.000  C
  C77      1.0000 0.95486  0.06356  0.25906  Biso   1.000  C
  C78      1.0000 0.96551  0.14474  0.26911  Biso   1.000  C
  C79      1.0000 0.95486  0.06353  0.25906  Biso   1.000  C
  C80      1.0000 0.02625  0.16275  0.33748  Biso   1.000  C
  C81      1.0000 0.02629  0.16275  0.33748  Biso   1.000  C
  H78      1.0000 0.77820  0.08199  0.65311  Biso   1.000  H
  C82      1.0000 0.79789  0.98915  0.63220  Biso   1.000  C
  C83      1.0000 0.79786  0.98915  0.63220  Biso   1.000  C
  C84      1.0000 0.86191  0.08136  0.71279  Biso   1.000  C
  C85      1.0000 0.86191  0.08139  0.71279  Biso   1.000  C
  H79      1.0000 0.95321  0.16811  0.23902  Biso   1.000  H
  H80      1.0000 0.95317  0.16811  0.23902  Biso   1.000  H
  C86      1.0000 0.01244  0.12174  0.24739  Biso   1.000  C
  C87      1.0000 0.01244  0.12170  0.24739  Biso   1.000  C
  C88      1.0000 0.01247  0.12174  0.24739  Biso   1.000  C
  C89      1.0000 0.01247  0.12170  0.24739  Biso   1.000  C
  O26      1.0000 0.93527  0.02473  0.25648  Biso   1.000  O
  O27      1.0000 0.93527  0.02470  0.25648  Biso   1.000  O
  N54      1.0000 0.00102  0.07230  0.24458  Biso   1.000  N
  N55      1.0000 0.00102  0.07227  0.24458  Biso   1.000  N
  N56      1.0000 0.00099  0.07230  0.24458  Biso   1.000  N
  N57      1.0000 0.00099  0.07227  0.24458  Biso   1.000  N
  O28      1.0000 0.04711  0.18157  0.37984  Biso   1.000  O
  N58      1.0000 0.04577  0.13456  0.29422  Biso   1.000  N
  O29      1.0000 0.04711  0.18153  0.37984  Biso   1.000  O
  N59      1.0000 0.04577  0.13453  0.29422  Biso   1.000  N
  O30      1.0000 0.04707  0.18157  0.37984  Biso   1.000  O
  N60      1.0000 0.04573  0.13456  0.29422  Biso   1.000  N
  O31      1.0000 0.04707  0.18153  0.37984  Biso   1.000  O
  N61      1.0000 0.04573  0.13453  0.29422  Biso   1.000  N
  N62      1.0000 0.83919  0.97290  0.66451  Biso   1.000  N
  H81      1.0000 0.77231  0.99531  0.66157  Biso   1.000  H
  H82      1.0000 0.78711  0.96388  0.60460  Biso   1.000  H
  N63      1.0000 0.83919  0.97287  0.66451  Biso   1.000  N
  H83      1.0000 0.77231  0.99528  0.66157  Biso   1.000  H
  N64      1.0000 0.83915  0.97290  0.66451  Biso   1.000  N
  H84      1.0000 0.77228  0.99531  0.66157  Biso   1.000  H
  H85      1.0000 0.78708  0.96388  0.60460  Biso   1.000  H
  N65      1.0000 0.83915  0.97287  0.66451  Biso   1.000  N
  H86      1.0000 0.77228  0.99528  0.66157  Biso   1.000  H
  N66      1.0000 0.88172  0.03390  0.71963  Biso   1.000  N
  H87      1.0000 0.83352  0.08411  0.73849  Biso   1.000  H
  H88      1.0000 0.88520  0.10468  0.72741  Biso   1.000  H
  N67      1.0000 0.88172  0.03386  0.71963  Biso   1.000  N
  H89      1.0000 0.83352  0.08407  0.73849  Biso   1.000  H
  N68      1.0000 0.88168  0.03390  0.71963  Biso   1.000  N
  H90      1.0000 0.83348  0.08411  0.73849  Biso   1.000  H
  H91      1.0000 0.88517  0.10468  0.72741  Biso   1.000  H
  N69      1.0000 0.88168  0.03386  0.71963  Biso   1.000  N
  H92      1.0000 0.83348  0.08407  0.73849  Biso   1.000  H
  H93      1.0000 0.02230  0.13410  0.20698  Biso   1.000  H
  H94      1.0000 0.02230  0.13407  0.20698  Biso   1.000  H
  C90      1.0000 0.02921  0.03805  0.21168  Biso   1.000  C
  C91      1.0000 0.02921  0.03802  0.21168  Biso   1.000  C
  C92      1.0000 0.09637  0.12949  0.28648  Biso   1.000  C
  C93      1.0000 0.09637  0.12945  0.28648  Biso   1.000  C
  C94      1.0000 0.85279  0.99190  0.72293  Biso   1.000  C
  C95      1.0000 0.85793  0.92897  0.65469  Biso   1.000  C
  C96      1.0000 0.85793  0.92893  0.65469  Biso   1.000  C
  C97      1.0000 0.85790  0.92897  0.65469  Biso   1.000  C
  C98      1.0000 0.85790  0.92893  0.65469  Biso   1.000  C
  C99      1.0000 0.92657  0.02643  0.73886  Biso   1.000  C
  N70      1.0000 0.06892  0.02008  0.24675  Biso   1.000  N
  H95      1.0000 0.00881  0.01131  0.19978  Biso   1.000  H
  H96      1.0000 0.04130  0.05289  0.17431  Biso   1.000  H
  H97      1.0000 0.00881  0.01128  0.19978  Biso   1.000  H
  N71      1.0000 0.06888  0.02008  0.24675  Biso   1.000  N
  H98      1.0000 0.11261  0.15130  0.31449  Biso   1.000  H
  H99      1.0000 0.10489  0.13868  0.24472  Biso   1.000  H
  N72      1.0000 0.11293  0.08199  0.29762  Biso   1.000  N
  H100     1.0000 0.11258  0.15130  0.31449  Biso   1.000  H
  H101     1.0000 0.82499  0.99641  0.75008  Biso   1.000  H
  C100     1.0000 0.88704  0.95476  0.74791  Biso   1.000  C
  H102     1.0000 0.82499  0.99637  0.75008  Biso   1.000  H
  C101     1.0000 0.88700  0.95476  0.74791  Biso   1.000  C
  O32      1.0000 0.85004  0.90356  0.61111  Biso   1.000  O
  N73      1.0000 0.88707  0.91801  0.70234  Biso   1.000  N
  O33      1.0000 0.85004  0.90353  0.61111  Biso   1.000  O
  N74      1.0000 0.88707  0.91797  0.70234  Biso   1.000  N
  O34      1.0000 0.85001  0.90356  0.61111  Biso   1.000  O
  N75      1.0000 0.88704  0.91801  0.70234  Biso   1.000  N
  O35      1.0000 0.85001  0.90353  0.61111  Biso   1.000  O
  N76      1.0000 0.88704  0.91797  0.70234  Biso   1.000  N
  O36      1.0000 0.95786  0.05662  0.74325  Biso   1.000  O
  O37      1.0000 0.95782  0.05662  0.74325  Biso   1.000  O
  N77      1.0000 0.93108  0.97992  0.75325  Biso   1.000  N
  C102     1.0000 0.07343  0.97357  0.26114  Biso   1.000  C
  C103     1.0000 0.07343  0.97354  0.26114  Biso   1.000  C
  C104     1.0000 0.07339  0.97357  0.26114  Biso   1.000  C
  C105     1.0000 0.07339  0.97354  0.26114  Biso   1.000  C
  C106     1.0000 0.11296  0.04524  0.25209  Biso   1.000  C
  C107     1.0000 0.11296  0.04521  0.25209  Biso   1.000  C
  C108     1.0000 0.14207  0.07103  0.34531  Biso   1.000  C
  H103     1.0000 0.87629  0.94250  0.78800  Biso   1.000  H
  C109     1.0000 0.90363  0.87051  0.71347  Biso   1.000  C
  C110     1.0000 0.90360  0.87051  0.71347  Biso   1.000  C
  C111     1.0000 0.97079  0.96195  0.78827  Biso   1.000  C
  C112     1.0000 0.97076  0.96195  0.78827  Biso   1.000  C
  O38      1.0000 0.04214  0.94338  0.25675  Biso   1.000  O
  N78      1.0000 0.11828  0.96610  0.28037  Biso   1.000  N
  O39      1.0000 0.04214  0.94334  0.25675  Biso   1.000  O
  O40      1.0000 0.04218  0.94338  0.25675  Biso   1.000  O
  O41      1.0000 0.04218  0.94334  0.25675  Biso   1.000  O
  C113     1.0000 0.14721  0.00810  0.27703  Biso   1.000  C
  H104     1.0000 0.12371  0.05750  0.21200  Biso   1.000  H
  C114     1.0000 0.14721  0.00807  0.27703  Biso   1.000  C
  H105     1.0000 0.12367  0.05750  0.21200  Biso   1.000  H
  N79      1.0000 0.16081  0.02710  0.33549  Biso   1.000  N
  O42      1.0000 0.14996  0.09644  0.38889  Biso   1.000  O
  N80      1.0000 0.16085  0.02710  0.33549  Biso   1.000  N
  N81      1.0000 0.95423  0.86544  0.70573  Biso   1.000  N
  H106     1.0000 0.88739  0.84870  0.68551  Biso   1.000  H
  H107     1.0000 0.89511  0.86132  0.75528  Biso   1.000  H
  H108     1.0000 0.89511  0.86128  0.75528  Biso   1.000  H
  H109     1.0000 0.89507  0.86132  0.75528  Biso   1.000  H
  H110     1.0000 0.89507  0.86128  0.75528  Biso   1.000  H
  N82      1.0000 0.99898  0.92770  0.75542  Biso   1.000  N
  H111     1.0000 0.99119  0.98869  0.80017  Biso   1.000  H
  H112     1.0000 0.95870  0.94711  0.82569  Biso   1.000  H
  H113     1.0000 0.95870  0.94708  0.82569  Biso   1.000  H
  H114     1.0000 0.95867  0.94711  0.82569  Biso   1.000  H
  H115     1.0000 0.95867  0.94708  0.82569  Biso   1.000  H
  C115     1.0000 0.13809  0.91864  0.28721  Biso   1.000  C
  C116     1.0000 0.13809  0.91861  0.28721  Biso   1.000  C
  H116     1.0000 0.17501  0.00359  0.24988  Biso   1.000  H
  H117     1.0000 0.17498  0.00359  0.24988  Biso   1.000  H
  C117     1.0000 0.20211  0.01085  0.36780  Biso   1.000  C
  C118     1.0000 0.97375  0.83725  0.66247  Biso   1.000  C
  C119     1.0000 0.98756  0.87826  0.75261  Biso   1.000  C
  C120     1.0000 0.97371  0.83725  0.66247  Biso   1.000  C
  C121     1.0000 0.98753  0.87826  0.75261  Biso   1.000  C
  C122     1.0000 0.04514  0.93644  0.74094  Biso   1.000  C
  C123     1.0000 0.04510  0.93644  0.74094  Biso   1.000  C
  N83      1.0000 0.15063  0.90723  0.34920  Biso   1.000  N
  H118     1.0000 0.16648  0.91589  0.26151  Biso   1.000  H
  H119     1.0000 0.11480  0.89532  0.27259  Biso   1.000  H
  N84      1.0000 0.15063  0.90726  0.34920  Biso   1.000  N
  H120     1.0000 0.11480  0.89528  0.27259  Biso   1.000  H
  N85      1.0000 0.15059  0.90723  0.34920  Biso   1.000  N
  N86      1.0000 0.15059  0.90726  0.34920  Biso   1.000  N
  N87      1.0000 0.19379  0.96843  0.40273  Biso   1.000  N
  N88      1.0000 0.19379  0.96839  0.40273  Biso   1.000  N
  N89      1.0000 0.19376  0.96843  0.40273  Biso   1.000  N
  N90      1.0000 0.19376  0.96839  0.40273  Biso   1.000  N
  H121     1.0000 0.22769  0.00469  0.33839  Biso   1.000  H
  H122     1.0000 0.21289  0.03612  0.39540  Biso   1.000  H
  H123     1.0000 0.21289  0.03608  0.39540  Biso   1.000  H
  H124     1.0000 0.22772  0.00469  0.33839  Biso   1.000  H
  H125     1.0000 0.21292  0.03612  0.39540  Biso   1.000  H
  H126     1.0000 0.21292  0.03608  0.39540  Biso   1.000  H
  O43      1.0000 0.95289  0.81843  0.62016  Biso   1.000  O
  N91      1.0000 0.02082  0.83263  0.67424  Biso   1.000  N
  N92      1.0000 0.02082  0.83260  0.67424  Biso   1.000  N
  N93      1.0000 0.02079  0.83263  0.67424  Biso   1.000  N
  N94      1.0000 0.02079  0.83260  0.67424  Biso   1.000  N
  H127     1.0000 0.97770  0.86590  0.79298  Biso   1.000  H
  C124     1.0000 0.03449  0.85522  0.73089  Biso   1.000  C
  O44      1.0000 0.06473  0.97527  0.74352  Biso   1.000  O
  N95      1.0000 0.06571  0.89507  0.72397  Biso   1.000  N
  O45      1.0000 0.06469  0.97527  0.74352  Biso   1.000  O
  C125     1.0000 0.13033  0.87086  0.37988  Biso   1.000  C
  C126     1.0000 0.19502  0.92153  0.37594  Biso   1.000  C
  C127     1.0000 0.13033  0.87083  0.37988  Biso   1.000  C
  C128     1.0000 0.13030  0.87086  0.37988  Biso   1.000  C
  C129     1.0000 0.13030  0.87083  0.37988  Biso   1.000  C
  C130     1.0000 0.19985  0.96702  0.46418  Biso   1.000  C
  C131     1.0000 0.05039  0.79930  0.64270  Biso   1.000  C
  C132     1.0000 0.05035  0.79930  0.64270  Biso   1.000  C
  H128     1.0000 0.04679  0.83189  0.76098  Biso   1.000  H
  H129     1.0000 0.04683  0.83189  0.76098  Biso   1.000  H
  C133     1.0000 0.11666  0.88982  0.72035  Biso   1.000  C
  O46      1.0000 0.09390  0.85029  0.36563  Biso   1.000  O
  N96      1.0000 0.15761  0.86043  0.42934  Biso   1.000  N
  N97      1.0000 0.15761  0.86040  0.42934  Biso   1.000  N
  C134     1.0000 0.20038  0.88859  0.43147  Biso   1.000  C
  H130     1.0000 0.22180  0.91801  0.34689  Biso   1.000  H
  H131     1.0000 0.22180  0.91797  0.34689  Biso   1.000  H
  H132     1.0000 0.22177  0.91801  0.34689  Biso   1.000  H
  H133     1.0000 0.22177  0.91797  0.34689  Biso   1.000  H
  N98      1.0000 0.20207  0.92083  0.48219  Biso   1.000  N
  N99      1.0000 0.20207  0.92079  0.48219  Biso   1.000  N
  O47      1.0000 0.20267  0.00162  0.49767  Biso   1.000  O
  N100     1.0000 0.08710  0.82139  0.60681  Biso   1.000  N
  H134     1.0000 0.06518  0.77802  0.67270  Biso   1.000  H
  H135     1.0000 0.03041  0.77982  0.61577  Biso   1.000  H
  N101     1.0000 0.08710  0.82136  0.60681  Biso   1.000  N
  H136     1.0000 0.06518  0.77799  0.67270  Biso   1.000  H
  H137     1.0000 0.03041  0.77978  0.61577  Biso   1.000  H
  H138     1.0000 0.03037  0.77982  0.61577  Biso   1.000  H
  H139     1.0000 0.03037  0.77978  0.61577  Biso   1.000  H
  N102     1.0000 0.13361  0.88052  0.65962  Biso   1.000  N
  H140     1.0000 0.12649  0.86361  0.74709  Biso   1.000  H
  H141     1.0000 0.13171  0.91900  0.73560  Biso   1.000  H
  H142     1.0000 0.12649  0.86357  0.74709  Biso   1.000  H
  N103     1.0000 0.13365  0.88052  0.65962  Biso   1.000  N
  C135     1.0000 0.15130  0.81829  0.46559  Biso   1.000  C
  C136     1.0000 0.15130  0.81826  0.46559  Biso   1.000  C
  H143     1.0000 0.22938  0.86871  0.42880  Biso   1.000  H
  H144     1.0000 0.22938  0.86868  0.42880  Biso   1.000  H
  C137     1.0000 0.21722  0.90768  0.54206  Biso   1.000  C
  C138     1.0000 0.09027  0.81481  0.54541  Biso   1.000  C
  C139     1.0000 0.13231  0.83440  0.63270  Biso   1.000  C
  C140     1.0000 0.09024  0.81481  0.54541  Biso   1.000  C
  C141     1.0000 0.13227  0.83440  0.63270  Biso   1.000  C
  C142     1.0000 0.16338  0.91054  0.62998  Biso   1.000  C
  N104     1.0000 0.13375  0.82812  0.52654  Biso   1.000  N
  N105     1.0000 0.13379  0.82812  0.52654  Biso   1.000  N
  H145     1.0000 0.12889  0.79712  0.44477  Biso   1.000  H
  H146     1.0000 0.18188  0.80159  0.46871  Biso   1.000  H
  H147     1.0000 0.12889  0.79708  0.44477  Biso   1.000  H
  H148     1.0000 0.12892  0.79712  0.44477  Biso   1.000  H
  H149     1.0000 0.12892  0.79708  0.44477  Biso   1.000  H
  N106     1.0000 0.17973  0.88831  0.57908  Biso   1.000  N
  N107     1.0000 0.17973  0.88827  0.57908  Biso   1.000  N
  N108     1.0000 0.17970  0.88831  0.57908  Biso   1.000  N
  N109     1.0000 0.17970  0.88827  0.57908  Biso   1.000  N
  H150     1.0000 0.24280  0.88411  0.53871  Biso   1.000  H
  H151     1.0000 0.23040  0.93580  0.56260  Biso   1.000  H
  H152     1.0000 0.24280  0.88408  0.53871  Biso   1.000  H
  H153     1.0000 0.23040  0.93577  0.56260  Biso   1.000  H
  H154     1.0000 0.24277  0.88411  0.53871  Biso   1.000  H
  H155     1.0000 0.23037  0.93580  0.56260  Biso   1.000  H
  H156     1.0000 0.24277  0.88408  0.53871  Biso   1.000  H
  H157     1.0000 0.23037  0.93577  0.56260  Biso   1.000  H
  O48      1.0000 0.05849  0.79934  0.51283  Biso   1.000  O
  O49      1.0000 0.05845  0.79934  0.51283  Biso   1.000  O
  H158     1.0000 0.14418  0.80970  0.66121  Biso   1.000  H
  C143     1.0000 0.16465  0.83951  0.57632  Biso   1.000  C
  C144     1.0000 0.16465  0.83947  0.57632  Biso   1.000  C
  C145     1.0000 0.16469  0.83951  0.57632  Biso   1.000  C
  C146     1.0000 0.16469  0.83947  0.57632  Biso   1.000  C
  O50      1.0000 0.17487  0.95028  0.64713  Biso   1.000  O
  O51      1.0000 0.17487  0.95025  0.64713  Biso   1.000  O
  H159     1.0000 0.19210  0.81741  0.57831  Biso   1.000  H
  H160     1.0000 0.19210  0.81738  0.57831  Biso   1.000  H
  C147     1.0000 0.83531  0.16053  0.42368  Biso   1.000  C
  N110     1.0000 0.82027  0.11169  0.42092  Biso   1.000  N
  N111     1.0000 0.86625  0.17188  0.47346  Biso   1.000  N
  C148     1.0000 0.86769  0.16560  0.36730  Biso   1.000  C
  H161     1.0000 0.80790  0.18259  0.42169  Biso   1.000  H
  N112     1.0000 0.86621  0.17188  0.47346  Biso   1.000  N
  C149     1.0000 0.86769  0.16557  0.36730  Biso   1.000  C
  H162     1.0000 0.80790  0.18262  0.42169  Biso   1.000  H
  C150     1.0000 0.83662  0.08946  0.36997  Biso   1.000  C
  C151     1.0000 0.83535  0.16049  0.42368  Biso   1.000  C
  C152     1.0000 0.78278  0.09232  0.45789  Biso   1.000  C
  C153     1.0000 0.83535  0.16053  0.42368  Biso   1.000  C
  C154     1.0000 0.78278  0.09228  0.45789  Biso   1.000  C
  C155     1.0000 0.83531  0.16049  0.42368  Biso   1.000  C
  C156     1.0000 0.78274  0.09232  0.45789  Biso   1.000  C
  C157     1.0000 0.78274  0.09228  0.45789  Biso   1.000  C
  C158     1.0000 0.90973  0.18519  0.45459  Biso   1.000  C
  C159     1.0000 0.84870  0.18171  0.53437  Biso   1.000  C
  N113     1.0000 0.86639  0.11948  0.34038  Biso   1.000  N
  N114     1.0000 0.86639  0.11945  0.34038  Biso   1.000  N
  N115     1.0000 0.86635  0.11948  0.34038  Biso   1.000  N
  N116     1.0000 0.86635  0.11945  0.34038  Biso   1.000  N
  N117     1.0000 0.91290  0.17861  0.39314  Biso   1.000  N
  N118     1.0000 0.91290  0.17864  0.39314  Biso   1.000  N
  H163     1.0000 0.85582  0.19030  0.33879  Biso   1.000  H
  H164     1.0000 0.85582  0.19027  0.33879  Biso   1.000  H
  H165     1.0000 0.85578  0.19030  0.33879  Biso   1.000  H
  H166     1.0000 0.85578  0.19027  0.33879  Biso   1.000  H
  O52      1.0000 0.82513  0.04972  0.35287  Biso   1.000  O
  O53      1.0000 0.82509  0.04972  0.35287  Biso   1.000  O
  H167     1.0000 0.76960  0.06420  0.43740  Biso   1.000  H
  H168     1.0000 0.75720  0.11589  0.46129  Biso   1.000  H
  H169     1.0000 0.75720  0.11592  0.46129  Biso   1.000  H
  N119     1.0000 0.79793  0.07917  0.51781  Biso   1.000  N
  N120     1.0000 0.79793  0.07921  0.51781  Biso   1.000  N
  N121     1.0000 0.79789  0.07917  0.51781  Biso   1.000  N
  N122     1.0000 0.79789  0.07921  0.51781  Biso   1.000  N
  O54      1.0000 0.94151  0.20066  0.48713  Biso   1.000  O
  N123     1.0000 0.84239  0.13957  0.57066  Biso   1.000  N
  H170     1.0000 0.81812  0.19841  0.53129  Biso   1.000  H
  N124     1.0000 0.84236  0.13957  0.57066  Biso   1.000  N
  H171     1.0000 0.81808  0.19841  0.53129  Biso   1.000  H
  H172     1.0000 0.87111  0.20288  0.55518  Biso   1.000  H
  H173     1.0000 0.87111  0.20292  0.55518  Biso   1.000  H
  H174     1.0000 0.87108  0.20288  0.55518  Biso   1.000  H
  H175     1.0000 0.87108  0.20292  0.55518  Biso   1.000  H
  C160     1.0000 0.88334  0.11018  0.27961  Biso   1.000  C
  C161     1.0000 0.94961  0.20070  0.35730  Biso   1.000  C
  C162     1.0000 0.79962  0.11141  0.56849  Biso   1.000  C
  C163     1.0000 0.79958  0.11141  0.56849  Biso   1.000  C
  C164     1.0000 0.80015  0.03298  0.53577  Biso   1.000  C
  C165     1.0000 0.80015  0.03294  0.53577  Biso   1.000  C
  C166     1.0000 0.80011  0.03298  0.53577  Biso   1.000  C
  C167     1.0000 0.80011  0.03294  0.53577  Biso   1.000  C
  C168     1.0000 0.86967  0.12914  0.62007  Biso   1.000  C
  C169     1.0000 0.86967  0.12917  0.62007  Biso   1.000  C
  N125     1.0000 0.93429  0.10493  0.27599  Biso   1.000  N
  H176     1.0000 0.86829  0.08100  0.26440  Biso   1.000  H
  N126     1.0000 0.93429  0.10489  0.27599  Biso   1.000  N
  H177     1.0000 0.86829  0.08097  0.26440  Biso   1.000  H
  H178     1.0000 0.87351  0.13639  0.25291  Biso   1.000  H
  H179     1.0000 0.87351  0.13643  0.25291  Biso   1.000  H
  H180     1.0000 0.87347  0.13639  0.25291  Biso   1.000  H
  H181     1.0000 0.87347  0.13643  0.25291  Biso   1.000  H
  H182     1.0000 0.93482  0.22198  0.32730  Biso   1.000  H
  N127     1.0000 0.97918  0.16737  0.32572  Biso   1.000  N
  H183     1.0000 0.96959  0.22018  0.38418  Biso   1.000  H
  N128     1.0000 0.97918  0.16740  0.32572  Biso   1.000  N
  H184     1.0000 0.93478  0.22198  0.32730  Biso   1.000  H
  H185     1.0000 0.96959  0.22022  0.38418  Biso   1.000  H
  H186     1.0000 0.77062  0.13129  0.57120  Biso   1.000  H
  C170     1.0000 0.80498  0.07847  0.62401  Biso   1.000  C
  H187     1.0000 0.77062  0.13132  0.57120  Biso   1.000  H
  C171     1.0000 0.80498  0.07843  0.62401  Biso   1.000  C
  H188     1.0000 0.77059  0.13129  0.57120  Biso   1.000  H
  C172     1.0000 0.80494  0.07847  0.62401  Biso   1.000  C
  H189     1.0000 0.77059  0.13132  0.57120  Biso   1.000  H
  C173     1.0000 0.80494  0.07843  0.62401  Biso   1.000  C
  N129     1.0000 0.80621  0.03157  0.59722  Biso   1.000  N
  O55      1.0000 0.79733  0.99838  0.50233  Biso   1.000  O
  O56      1.0000 0.79733  0.99834  0.50233  Biso   1.000  O
  O57      1.0000 0.79729  0.99838  0.50233  Biso   1.000  O
  O58      1.0000 0.79729  0.99834  0.50233  Biso   1.000  O
  N130     1.0000 0.84937  0.09274  0.65080  Biso   1.000  N
  O59      1.0000 0.90610  0.14971  0.63437  Biso   1.000  O
  O60      1.0000 0.90610  0.14968  0.63437  Biso   1.000  O
  C174     1.0000 0.96551  0.14478  0.26911  Biso   1.000  C
  C175     1.0000 0.95486  0.06356  0.25906  Biso   1.000  C
  C176     1.0000 0.96551  0.14474  0.26911  Biso   1.000  C
  C177     1.0000 0.95486  0.06353  0.25906  Biso   1.000  C
  C178     1.0000 0.02625  0.16275  0.33748  Biso   1.000  C
  C179     1.0000 0.02629  0.16275  0.33748  Biso   1.000  C
  H190     1.0000 0.77820  0.08199  0.65311  Biso   1.000  H
  C180     1.0000 0.79789  0.98915  0.63220  Biso   1.000  C
  C181     1.0000 0.79786  0.98915  0.63220  Biso   1.000  C
  C182     1.0000 0.86191  0.08136  0.71279  Biso   1.000  C
  C183     1.0000 0.86191  0.08139  0.71279  Biso   1.000  C
  H191     1.0000 0.95321  0.16811  0.23902  Biso   1.000  H
  H192     1.0000 0.95317  0.16811  0.23902  Biso   1.000  H
  C184     1.0000 0.01244  0.12174  0.24739  Biso   1.000  C
  C185     1.0000 0.01244  0.12170  0.24739  Biso   1.000  C
  C186     1.0000 0.01247  0.12174  0.24739  Biso   1.000  C
  C187     1.0000 0.01247  0.12170  0.24739  Biso   1.000  C
  O61      1.0000 0.93527  0.02473  0.25648  Biso   1.000  O
  O62      1.0000 0.93527  0.02470  0.25648  Biso   1.000  O
  N131     1.0000 0.00102  0.07230  0.24458  Biso   1.000  N
  N132     1.0000 0.00102  0.07227  0.24458  Biso   1.000  N
  N133     1.0000 0.00099  0.07230  0.24458  Biso   1.000  N
  N134     1.0000 0.00099  0.07227  0.24458  Biso   1.000  N
  N135     1.0000 0.04577  0.13456  0.29422  Biso   1.000  N
  N136     1.0000 0.04577  0.13453  0.29422  Biso   1.000  N
  N137     1.0000 0.04573  0.13456  0.29422  Biso   1.000  N
  N138     1.0000 0.04573  0.13453  0.29422  Biso   1.000  N
  O63      1.0000 0.04711  0.18157  0.37984  Biso   1.000  O
  O64      1.0000 0.04711  0.18153  0.37984  Biso   1.000  O
  O65      1.0000 0.04707  0.18157  0.37984  Biso   1.000  O
  O66      1.0000 0.04707  0.18153  0.37984  Biso   1.000  O
  N139     1.0000 0.83919  0.97290  0.66451  Biso   1.000  N
  H193     1.0000 0.77231  0.99531  0.66157  Biso   1.000  H
  H194     1.0000 0.78711  0.96388  0.60460  Biso   1.000  H
  N140     1.0000 0.83919  0.97287  0.66451  Biso   1.000  N
  H195     1.0000 0.77231  0.99528  0.66157  Biso   1.000  H
  N141     1.0000 0.83915  0.97290  0.66451  Biso   1.000  N
  H196     1.0000 0.77228  0.99531  0.66157  Biso   1.000  H
  H197     1.0000 0.78708  0.96388  0.60460  Biso   1.000  H
  N142     1.0000 0.83915  0.97287  0.66451  Biso   1.000  N
  H198     1.0000 0.77228  0.99528  0.66157  Biso   1.000  H
  H199     1.0000 0.88520  0.10468  0.72741  Biso   1.000  H
  H200     1.0000 0.88517  0.10468  0.72741  Biso   1.000  H
  N143     1.0000 0.88172  0.03390  0.71963  Biso   1.000  N
  H201     1.0000 0.83352  0.08411  0.73849  Biso   1.000  H
  N144     1.0000 0.88172  0.03386  0.71963  Biso   1.000  N
  H202     1.0000 0.83352  0.08407  0.73849  Biso   1.000  H
  N145     1.0000 0.88168  0.03390  0.71963  Biso   1.000  N
  H203     1.0000 0.83348  0.08411  0.73849  Biso   1.000  H
  N146     1.0000 0.88168  0.03386  0.71963  Biso   1.000  N
  H204     1.0000 0.83348  0.08407  0.73849  Biso   1.000  H
  H205     1.0000 0.02230  0.13410  0.20698  Biso   1.000  H
  H206     1.0000 0.02230  0.13407  0.20698  Biso   1.000  H
  C188     1.0000 0.02921  0.03805  0.21168  Biso   1.000  C
  C189     1.0000 0.02921  0.03802  0.21168  Biso   1.000  C
  C190     1.0000 0.09637  0.12949  0.28648  Biso   1.000  C
  C191     1.0000 0.09637  0.12945  0.28648  Biso   1.000  C
  C192     1.0000 0.85279  0.99190  0.72293  Biso   1.000  C
  C193     1.0000 0.85793  0.92897  0.65469  Biso   1.000  C
  C194     1.0000 0.85793  0.92893  0.65469  Biso   1.000  C
  C195     1.0000 0.85790  0.92897  0.65469  Biso   1.000  C
  C196     1.0000 0.85790  0.92893  0.65469  Biso   1.000  C
  C197     1.0000 0.92657  0.02643  0.73886  Biso   1.000  C
  N147     1.0000 0.06892  0.02008  0.24675  Biso   1.000  N
  H207     1.0000 0.00881  0.01131  0.19978  Biso   1.000  H
  H208     1.0000 0.04130  0.05289  0.17431  Biso   1.000  H
  H209     1.0000 0.00881  0.01128  0.19978  Biso   1.000  H
  N148     1.0000 0.06888  0.02008  0.24675  Biso   1.000  N
  H210     1.0000 0.11261  0.15130  0.31449  Biso   1.000  H
  H211     1.0000 0.10489  0.13868  0.24472  Biso   1.000  H
  N149     1.0000 0.11293  0.08199  0.29762  Biso   1.000  N
  H212     1.0000 0.11258  0.15130  0.31449  Biso   1.000  H
  H213     1.0000 0.82499  0.99641  0.75008  Biso   1.000  H
  C198     1.0000 0.88704  0.95476  0.74791  Biso   1.000  C
  H214     1.0000 0.82499  0.99637  0.75008  Biso   1.000  H
  C199     1.0000 0.88700  0.95476  0.74791  Biso   1.000  C
  O67      1.0000 0.85004  0.90356  0.61111  Biso   1.000  O
  N150     1.0000 0.88707  0.91801  0.70234  Biso   1.000  N
  O68      1.0000 0.85004  0.90353  0.61111  Biso   1.000  O
  N151     1.0000 0.88707  0.91797  0.70234  Biso   1.000  N
  O69      1.0000 0.85001  0.90356  0.61111  Biso   1.000  O
  N152     1.0000 0.88704  0.91801  0.70234  Biso   1.000  N
  O70      1.0000 0.85001  0.90353  0.61111  Biso   1.000  O
  N153     1.0000 0.88704  0.91797  0.70234  Biso   1.000  N
  O71      1.0000 0.95786  0.05662  0.74325  Biso   1.000  O
  O72      1.0000 0.95782  0.05662  0.74325  Biso   1.000  O
  N154     1.0000 0.93108  0.97992  0.75325  Biso   1.000  N
  C200     1.0000 0.07343  0.97357  0.26114  Biso   1.000  C
  C201     1.0000 0.07343  0.97354  0.26114  Biso   1.000  C
  C202     1.0000 0.07339  0.97357  0.26114  Biso   1.000  C
  C203     1.0000 0.07339  0.97354  0.26114  Biso   1.000  C
  C204     1.0000 0.11296  0.04524  0.25209  Biso   1.000  C
  C205     1.0000 0.11296  0.04521  0.25209  Biso   1.000  C
  C206     1.0000 0.14207  0.07103  0.34531  Biso   1.000  C
  H215     1.0000 0.87629  0.94250  0.78800  Biso   1.000  H
  C207     1.0000 0.90363  0.87051  0.71347  Biso   1.000  C
  C208     1.0000 0.90360  0.87051  0.71347  Biso   1.000  C
  C209     1.0000 0.97079  0.96195  0.78827  Biso   1.000  C
  C210     1.0000 0.97076  0.96195  0.78827  Biso   1.000  C
  O73      1.0000 0.04214  0.94338  0.25675  Biso   1.000  O
  N155     1.0000 0.11828  0.96610  0.28037  Biso   1.000  N
  O74      1.0000 0.04214  0.94334  0.25675  Biso   1.000  O
  O75      1.0000 0.04218  0.94338  0.25675  Biso   1.000  O
  O76      1.0000 0.04218  0.94334  0.25675  Biso   1.000  O
  C211     1.0000 0.14721  0.00810  0.27703  Biso   1.000  C
  H216     1.0000 0.12371  0.05750  0.21200  Biso   1.000  H
  C212     1.0000 0.14721  0.00807  0.27703  Biso   1.000  C
  H217     1.0000 0.12367  0.05750  0.21200  Biso   1.000  H
  N156     1.0000 0.16081  0.02710  0.33549  Biso   1.000  N
  O77      1.0000 0.14996  0.09644  0.38889  Biso   1.000  O
  N157     1.0000 0.16085  0.02710  0.33549  Biso   1.000  N
  N158     1.0000 0.95423  0.86544  0.70573  Biso   1.000  N
  H218     1.0000 0.88739  0.84870  0.68551  Biso   1.000  H
  H219     1.0000 0.89511  0.86132  0.75528  Biso   1.000  H
  H220     1.0000 0.89511  0.86128  0.75528  Biso   1.000  H
  H221     1.0000 0.89507  0.86132  0.75528  Biso   1.000  H
  H222     1.0000 0.89507  0.86128  0.75528  Biso   1.000  H
  N159     1.0000 0.99898  0.92770  0.75542  Biso   1.000  N
  H223     1.0000 0.99119  0.98869  0.80017  Biso   1.000  H
  H224     1.0000 0.95870  0.94711  0.82569  Biso   1.000  H
  H225     1.0000 0.95870  0.94708  0.82569  Biso   1.000  H
  H226     1.0000 0.95867  0.94711  0.82569  Biso   1.000  H
  H227     1.0000 0.95867  0.94708  0.82569  Biso   1.000  H
  C213     1.0000 0.13809  0.91864  0.28721  Biso   1.000  C
  C214     1.0000 0.13809  0.91861  0.28721  Biso   1.000  C
  H228     1.0000 0.17501  0.00359  0.24988  Biso   1.000  H
  H229     1.0000 0.17498  0.00359  0.24988  Biso   1.000  H
  C215     1.0000 0.20211  0.01085  0.36780  Biso   1.000  C
  C216     1.0000 0.97375  0.83725  0.66247  Biso   1.000  C
  C217     1.0000 0.98756  0.87826  0.75261  Biso   1.000  C
  C218     1.0000 0.97371  0.83725  0.66247  Biso   1.000  C
  C219     1.0000 0.98753  0.87826  0.75261  Biso   1.000  C
  C220     1.0000 0.04514  0.93644  0.74094  Biso   1.000  C
  C221     1.0000 0.04510  0.93644  0.74094  Biso   1.000  C
  N160     1.0000 0.15063  0.90723  0.34920  Biso   1.000  N
  H230     1.0000 0.16648  0.91589  0.26151  Biso   1.000  H
  H231     1.0000 0.11480  0.89532  0.27259  Biso   1.000  H
  N161     1.0000 0.15063  0.90726  0.34920  Biso   1.000  N
  H232     1.0000 0.11480  0.89528  0.27259  Biso   1.000  H
  N162     1.0000 0.15059  0.90723  0.34920  Biso   1.000  N
  N163     1.0000 0.15059  0.90726  0.34920  Biso   1.000  N
  N164     1.0000 0.19379  0.96843  0.40273  Biso   1.000  N
  N165     1.0000 0.19379  0.96839  0.40273  Biso   1.000  N
  N166     1.0000 0.19376  0.96843  0.40273  Biso   1.000  N
  N167     1.0000 0.19376  0.96839  0.40273  Biso   1.000  N
  H233     1.0000 0.22769  0.00469  0.33839  Biso   1.000  H
  H234     1.0000 0.21289  0.03612  0.39540  Biso   1.000  H
  H235     1.0000 0.21289  0.03608  0.39540  Biso   1.000  H
  H236     1.0000 0.22772  0.00469  0.33839  Biso   1.000  H
  H237     1.0000 0.21292  0.03612  0.39540  Biso   1.000  H
  H238     1.0000 0.21292  0.03608  0.39540  Biso   1.000  H
  O78      1.0000 0.95289  0.81843  0.62016  Biso   1.000  O
  N168     1.0000 0.02082  0.83263  0.67424  Biso   1.000  N
  N169     1.0000 0.02082  0.83260  0.67424  Biso   1.000  N
  N170     1.0000 0.02079  0.83263  0.67424  Biso   1.000  N
  N171     1.0000 0.02079  0.83260  0.67424  Biso   1.000  N
  H239     1.0000 0.97770  0.86590  0.79298  Biso   1.000  H
  C222     1.0000 0.03449  0.85522  0.73089  Biso   1.000  C
  O79      1.0000 0.06473  0.97527  0.74352  Biso   1.000  O
  N172     1.0000 0.06571  0.89507  0.72397  Biso   1.000  N
  O80      1.0000 0.06469  0.97527  0.74352  Biso   1.000  O
  C223     1.0000 0.13033  0.87086  0.37988  Biso   1.000  C
  C224     1.0000 0.19502  0.92153  0.37594  Biso   1.000  C
  C225     1.0000 0.13033  0.87083  0.37988  Biso   1.000  C
  C226     1.0000 0.13030  0.87086  0.37988  Biso   1.000  C
  C227     1.0000 0.13030  0.87083  0.37988  Biso   1.000  C
  C228     1.0000 0.19985  0.96702  0.46418  Biso   1.000  C
  C229     1.0000 0.05039  0.79930  0.64270  Biso   1.000  C
  C230     1.0000 0.05035  0.79930  0.64270  Biso   1.000  C
  H240     1.0000 0.04679  0.83189  0.76098  Biso   1.000  H
  H241     1.0000 0.04683  0.83189  0.76098  Biso   1.000  H
  C231     1.0000 0.11666  0.88982  0.72035  Biso   1.000  C
  O81      1.0000 0.09390  0.85029  0.36563  Biso   1.000  O
  N173     1.0000 0.15761  0.86043  0.42934  Biso   1.000  N
  N174     1.0000 0.15761  0.86040  0.42934  Biso   1.000  N
  C232     1.0000 0.20038  0.88859  0.43147  Biso   1.000  C
  H242     1.0000 0.22180  0.91801  0.34689  Biso   1.000  H
  H243     1.0000 0.22180  0.91797  0.34689  Biso   1.000  H
  H244     1.0000 0.22177  0.91801  0.34689  Biso   1.000  H
  H245     1.0000 0.22177  0.91797  0.34689  Biso   1.000  H
  N175     1.0000 0.20207  0.92083  0.48219  Biso   1.000  N
  N176     1.0000 0.20207  0.92079  0.48219  Biso   1.000  N
  O82      1.0000 0.20267  0.00162  0.49767  Biso   1.000  O
  N177     1.0000 0.08710  0.82139  0.60681  Biso   1.000  N
  H246     1.0000 0.06518  0.77802  0.67270  Biso   1.000  H
  H247     1.0000 0.03041  0.77982  0.61577  Biso   1.000  H
  N178     1.0000 0.08710  0.82136  0.60681  Biso   1.000  N
  H248     1.0000 0.06518  0.77799  0.67270  Biso   1.000  H
  H249     1.0000 0.03041  0.77978  0.61577  Biso   1.000  H
  H250     1.0000 0.03037  0.77982  0.61577  Biso   1.000  H
  H251     1.0000 0.03037  0.77978  0.61577  Biso   1.000  H
  N179     1.0000 0.13361  0.88052  0.65962  Biso   1.000  N
  H252     1.0000 0.12649  0.86361  0.74709  Biso   1.000  H
  H253     1.0000 0.13171  0.91900  0.73560  Biso   1.000  H
  H254     1.0000 0.12649  0.86357  0.74709  Biso   1.000  H
  N180     1.0000 0.13365  0.88052  0.65962  Biso   1.000  N
  C233     1.0000 0.15130  0.81829  0.46559  Biso   1.000  C
  C234     1.0000 0.15130  0.81826  0.46559  Biso   1.000  C
  H255     1.0000 0.22938  0.86871  0.42880  Biso   1.000  H
  H256     1.0000 0.22938  0.86868  0.42880  Biso   1.000  H
  C235     1.0000 0.21722  0.90768  0.54206  Biso   1.000  C
  C236     1.0000 0.09027  0.81481  0.54541  Biso   1.000  C
  C237     1.0000 0.13231  0.83440  0.63270  Biso   1.000  C
  C238     1.0000 0.09024  0.81481  0.54541  Biso   1.000  C
  C239     1.0000 0.13227  0.83440  0.63270  Biso   1.000  C
  C240     1.0000 0.16338  0.91054  0.62998  Biso   1.000  C
  N181     1.0000 0.13375  0.82812  0.52654  Biso   1.000  N
  H257     1.0000 0.12889  0.79712  0.44477  Biso   1.000  H
  H258     1.0000 0.18188  0.80159  0.46871  Biso   1.000  H
  H259     1.0000 0.12889  0.79708  0.44477  Biso   1.000  H
  N182     1.0000 0.13379  0.82812  0.52654  Biso   1.000  N
  H260     1.0000 0.12892  0.79712  0.44477  Biso   1.000  H
  H261     1.0000 0.12892  0.79708  0.44477  Biso   1.000  H
  N183     1.0000 0.17973  0.88831  0.57908  Biso   1.000  N
  H262     1.0000 0.24280  0.88411  0.53871  Biso   1.000  H
  H263     1.0000 0.23040  0.93580  0.56260  Biso   1.000  H
  N184     1.0000 0.17973  0.88827  0.57908  Biso   1.000  N
  H264     1.0000 0.24280  0.88408  0.53871  Biso   1.000  H
  H265     1.0000 0.23040  0.93577  0.56260  Biso   1.000  H
  N185     1.0000 0.17970  0.88831  0.57908  Biso   1.000  N
  H266     1.0000 0.24277  0.88411  0.53871  Biso   1.000  H
  H267     1.0000 0.23037  0.93580  0.56260  Biso   1.000  H
  N186     1.0000 0.17970  0.88827  0.57908  Biso   1.000  N
  H268     1.0000 0.24277  0.88408  0.53871  Biso   1.000  H
  H269     1.0000 0.23037  0.93577  0.56260  Biso   1.000  H
  O83      1.0000 0.05849  0.79934  0.51283  Biso   1.000  O
  O84      1.0000 0.05845  0.79934  0.51283  Biso   1.000  O
  H270     1.0000 0.14418  0.80970  0.66121  Biso   1.000  H
  C241     1.0000 0.16465  0.83951  0.57632  Biso   1.000  C
  C242     1.0000 0.16465  0.83947  0.57632  Biso   1.000  C
  C243     1.0000 0.16469  0.83951  0.57632  Biso   1.000  C
  C244     1.0000 0.16469  0.83947  0.57632  Biso   1.000  C
  O85      1.0000 0.17487  0.95028  0.64713  Biso   1.000  O
  O86      1.0000 0.17487  0.95025  0.64713  Biso   1.000  O
  H271     1.0000 0.19210  0.81741  0.57831  Biso   1.000  H
  H272     1.0000 0.19210  0.81738  0.57831  Biso   1.000  H
  C245     1.0000 0.83531  0.16053  0.42368  Biso   1.000  C
  N187     1.0000 0.82027  0.11169  0.42092  Biso   1.000  N
  N188     1.0000 0.86625  0.17188  0.47346  Biso   1.000  N
  C246     1.0000 0.86769  0.16560  0.36730  Biso   1.000  C
  H273     1.0000 0.80790  0.18259  0.42169  Biso   1.000  H
  C247     1.0000 0.86769  0.16557  0.36730  Biso   1.000  C
  H274     1.0000 0.80790  0.18262  0.42169  Biso   1.000  H
  N189     1.0000 0.86621  0.17188  0.47346  Biso   1.000  N
  C248     1.0000 0.83662  0.08946  0.36997  Biso   1.000  C
  C249     1.0000 0.83535  0.16049  0.42368  Biso   1.000  C
  C250     1.0000 0.78278  0.09232  0.45789  Biso   1.000  C
  C251     1.0000 0.83535  0.16053  0.42368  Biso   1.000  C
  C252     1.0000 0.78278  0.09228  0.45789  Biso   1.000  C
  C253     1.0000 0.83531  0.16049  0.42368  Biso   1.000  C
  C254     1.0000 0.78274  0.09232  0.45789  Biso   1.000  C
  C255     1.0000 0.78274  0.09228  0.45789  Biso   1.000  C
  C256     1.0000 0.90973  0.18519  0.45459  Biso   1.000  C
  C257     1.0000 0.84870  0.18171  0.53437  Biso   1.000  C
  N190     1.0000 0.86639  0.11948  0.34038  Biso   1.000  N
  N191     1.0000 0.86639  0.11945  0.34038  Biso   1.000  N
  N192     1.0000 0.86635  0.11948  0.34038  Biso   1.000  N
  N193     1.0000 0.86635  0.11945  0.34038  Biso   1.000  N
  N194     1.0000 0.91290  0.17861  0.39314  Biso   1.000  N
  H275     1.0000 0.85582  0.19030  0.33879  Biso   1.000  H
  N195     1.0000 0.91290  0.17864  0.39314  Biso   1.000  N
  H276     1.0000 0.85582  0.19027  0.33879  Biso   1.000  H
  H277     1.0000 0.85578  0.19030  0.33879  Biso   1.000  H
  H278     1.0000 0.85578  0.19027  0.33879  Biso   1.000  H
  O87      1.0000 0.82513  0.04972  0.35287  Biso   1.000  O
  O88      1.0000 0.82509  0.04972  0.35287  Biso   1.000  O
  H279     1.0000 0.76960  0.06420  0.43740  Biso   1.000  H
  N196     1.0000 0.79793  0.07917  0.51781  Biso   1.000  N
  H280     1.0000 0.75720  0.11589  0.46129  Biso   1.000  H
  N197     1.0000 0.79793  0.07921  0.51781  Biso   1.000  N
  H281     1.0000 0.75720  0.11592  0.46129  Biso   1.000  H
  N198     1.0000 0.79789  0.07917  0.51781  Biso   1.000  N
  N199     1.0000 0.79789  0.07921  0.51781  Biso   1.000  N
  O89      1.0000 0.94151  0.20066  0.48713  Biso   1.000  O
  N200     1.0000 0.84239  0.13957  0.57066  Biso   1.000  N
  H282     1.0000 0.87111  0.20288  0.55518  Biso   1.000  H
  H283     1.0000 0.81812  0.19841  0.53129  Biso   1.000  H
  H284     1.0000 0.87111  0.20292  0.55518  Biso   1.000  H
  N201     1.0000 0.84236  0.13957  0.57066  Biso   1.000  N
  H285     1.0000 0.87108  0.20288  0.55518  Biso   1.000  H
  H286     1.0000 0.81808  0.19841  0.53129  Biso   1.000  H
  H287     1.0000 0.87108  0.20292  0.55518  Biso   1.000  H
  C258     1.0000 0.88334  0.11018  0.27961  Biso   1.000  C
  C259     1.0000 0.94961  0.20070  0.35730  Biso   1.000  C
  C260     1.0000 0.79962  0.11141  0.56849  Biso   1.000  C
  C261     1.0000 0.80015  0.03298  0.53577  Biso   1.000  C
  C262     1.0000 0.80015  0.03294  0.53577  Biso   1.000  C
  C263     1.0000 0.79958  0.11141  0.56849  Biso   1.000  C
  C264     1.0000 0.80011  0.03298  0.53577  Biso   1.000  C
  C265     1.0000 0.80011  0.03294  0.53577  Biso   1.000  C
  C266     1.0000 0.86967  0.12914  0.62007  Biso   1.000  C
  C267     1.0000 0.86967  0.12917  0.62007  Biso   1.000  C
  N202     1.0000 0.93429  0.10493  0.27599  Biso   1.000  N
  H288     1.0000 0.87351  0.13639  0.25291  Biso   1.000  H
  H289     1.0000 0.86829  0.08100  0.26440  Biso   1.000  H
  N203     1.0000 0.93429  0.10489  0.27599  Biso   1.000  N
  H290     1.0000 0.87351  0.13643  0.25291  Biso   1.000  H
  H291     1.0000 0.86829  0.08097  0.26440  Biso   1.000  H
  H292     1.0000 0.87347  0.13639  0.25291  Biso   1.000  H
  H293     1.0000 0.87347  0.13643  0.25291  Biso   1.000  H
  N204     1.0000 0.97918  0.16737  0.32572  Biso   1.000  N
  H294     1.0000 0.93482  0.22198  0.32730  Biso   1.000  H
  H295     1.0000 0.96959  0.22018  0.38418  Biso   1.000  H
  N205     1.0000 0.97918  0.16740  0.32572  Biso   1.000  N
  H296     1.0000 0.96959  0.22022  0.38418  Biso   1.000  H
  H297     1.0000 0.93478  0.22198  0.32730  Biso   1.000  H
  H298     1.0000 0.77062  0.13129  0.57120  Biso   1.000  H
  C268     1.0000 0.80498  0.07847  0.62401  Biso   1.000  C
  H299     1.0000 0.77062  0.13132  0.57120  Biso   1.000  H
  C269     1.0000 0.80498  0.07843  0.62401  Biso   1.000  C
  H300     1.0000 0.77059  0.13129  0.57120  Biso   1.000  H
  C270     1.0000 0.80494  0.07847  0.62401  Biso   1.000  C
  H301     1.0000 0.77059  0.13132  0.57120  Biso   1.000  H
  C271     1.0000 0.80494  0.07843  0.62401  Biso   1.000  C
  N206     1.0000 0.80621  0.03157  0.59722  Biso   1.000  N
  O90      1.0000 0.79733  0.99838  0.50233  Biso   1.000  O
  O91      1.0000 0.79733  0.99834  0.50233  Biso   1.000  O
  O92      1.0000 0.79729  0.99838  0.50233  Biso   1.000  O
  O93      1.0000 0.79729  0.99834  0.50233  Biso   1.000  O
  N207     1.0000 0.84937  0.09274  0.65080  Biso   1.000  N
  O94      1.0000 0.90610  0.14971  0.63437  Biso   1.000  O
  O95      1.0000 0.90610  0.14968  0.63437  Biso   1.000  O
  C272     1.0000 0.96551  0.14478  0.26911  Biso   1.000  C
  C273     1.0000 0.95486  0.06356  0.25906  Biso   1.000  C
  C274     1.0000 0.96551  0.14474  0.26911  Biso   1.000  C
  C275     1.0000 0.95486  0.06353  0.25906  Biso   1.000  C
  C276     1.0000 0.02625  0.16275  0.33748  Biso   1.000  C
  C277     1.0000 0.02629  0.16275  0.33748  Biso   1.000  C
  H302     1.0000 0.77820  0.08199  0.65311  Biso   1.000  H
  C278     1.0000 0.79789  0.98915  0.63220  Biso   1.000  C
  C279     1.0000 0.79786  0.98915  0.63220  Biso   1.000  C
  C280     1.0000 0.86191  0.08136  0.71279  Biso   1.000  C
  C281     1.0000 0.86191  0.08139  0.71279  Biso   1.000  C
  H303     1.0000 0.95321  0.16811  0.23902  Biso   1.000  H
  H304     1.0000 0.95317  0.16811  0.23902  Biso   1.000  H
  C282     1.0000 0.01244  0.12174  0.24739  Biso   1.000  C
  C283     1.0000 0.01244  0.12170  0.24739  Biso   1.000  C
  C284     1.0000 0.01247  0.12174  0.24739  Biso   1.000  C
  C285     1.0000 0.01247  0.12170  0.24739  Biso   1.000  C
  O96      1.0000 0.93527  0.02473  0.25648  Biso   1.000  O
  O97      1.0000 0.93527  0.02470  0.25648  Biso   1.000  O
  N208     1.0000 0.00102  0.07230  0.24458  Biso   1.000  N
  N209     1.0000 0.00102  0.07227  0.24458  Biso   1.000  N
  N210     1.0000 0.00099  0.07230  0.24458  Biso   1.000  N
  N211     1.0000 0.00099  0.07227  0.24458  Biso   1.000  N
  N212     1.0000 0.04577  0.13456  0.29422  Biso   1.000  N
  N213     1.0000 0.04577  0.13453  0.29422  Biso   1.000  N
  N214     1.0000 0.04573  0.13456  0.29422  Biso   1.000  N
  N215     1.0000 0.04573  0.13453  0.29422  Biso   1.000  N
  O98      1.0000 0.04711  0.18157  0.37984  Biso   1.000  O
  O99      1.0000 0.04711  0.18153  0.37984  Biso   1.000  O
  O100     1.0000 0.04707  0.18157  0.37984  Biso   1.000  O
  O101     1.0000 0.04707  0.18153  0.37984  Biso   1.000  O
  N216     1.0000 0.83919  0.97290  0.66451  Biso   1.000  N
  H305     1.0000 0.77231  0.99531  0.66157  Biso   1.000  H
  H306     1.0000 0.78711  0.96388  0.60460  Biso   1.000  H
  N217     1.0000 0.83919  0.97287  0.66451  Biso   1.000  N
  H307     1.0000 0.77231  0.99528  0.66157  Biso   1.000  H
  N218     1.0000 0.83915  0.97290  0.66451  Biso   1.000  N
  H308     1.0000 0.77228  0.99531  0.66157  Biso   1.000  H
  H309     1.0000 0.78708  0.96388  0.60460  Biso   1.000  H
  N219     1.0000 0.83915  0.97287  0.66451  Biso   1.000  N
  H310     1.0000 0.77228  0.99528  0.66157  Biso   1.000  H
  N220     1.0000 0.88172  0.03390  0.71963  Biso   1.000  N
  H311     1.0000 0.83352  0.08411  0.73849  Biso   1.000  H
  H312     1.0000 0.88520  0.10468  0.72741  Biso   1.000  H
  N221     1.0000 0.88172  0.03386  0.71963  Biso   1.000  N
  H313     1.0000 0.83352  0.08407  0.73849  Biso   1.000  H
  N222     1.0000 0.88168  0.03390  0.71963  Biso   1.000  N
  H314     1.0000 0.83348  0.08411  0.73849  Biso   1.000  H
  H315     1.0000 0.88517  0.10468  0.72741  Biso   1.000  H
  N223     1.0000 0.88168  0.03386  0.71963  Biso   1.000  N
  H316     1.0000 0.83348  0.08407  0.73849  Biso   1.000  H
  H317     1.0000 0.02230  0.13410  0.20698  Biso   1.000  H
  H318     1.0000 0.02230  0.13407  0.20698  Biso   1.000  H
  C286     1.0000 0.02921  0.03805  0.21168  Biso   1.000  C
  C287     1.0000 0.02921  0.03802  0.21168  Biso   1.000  C
  C288     1.0000 0.09637  0.12949  0.28648  Biso   1.000  C
  C289     1.0000 0.09637  0.12945  0.28648  Biso   1.000  C
  C290     1.0000 0.85279  0.99190  0.72293  Biso   1.000  C
  C291     1.0000 0.85793  0.92897  0.65469  Biso   1.000  C
  C292     1.0000 0.85793  0.92893  0.65469  Biso   1.000  C
  C293     1.0000 0.85790  0.92897  0.65469  Biso   1.000  C
  C294     1.0000 0.85790  0.92893  0.65469  Biso   1.000  C
  C295     1.0000 0.92657  0.02643  0.73886  Biso   1.000  C
  N224     1.0000 0.06892  0.02008  0.24675  Biso   1.000  N
  H319     1.0000 0.00881  0.01131  0.19978  Biso   1.000  H
  H320     1.0000 0.04130  0.05289  0.17431  Biso   1.000  H
  H321     1.0000 0.00881  0.01128  0.19978  Biso   1.000  H
  N225     1.0000 0.06888  0.02008  0.24675  Biso   1.000  N
  H322     1.0000 0.11261  0.15130  0.31449  Biso   1.000  H
  H323     1.0000 0.10489  0.13868  0.24472  Biso   1.000  H
  N226     1.0000 0.11293  0.08199  0.29762  Biso   1.000  N
  H324     1.0000 0.11258  0.15130  0.31449  Biso   1.000  H
  H325     1.0000 0.82499  0.99641  0.75008  Biso   1.000  H
  C296     1.0000 0.88704  0.95476  0.74791  Biso   1.000  C
  H326     1.0000 0.82499  0.99637  0.75008  Biso   1.000  H
  C297     1.0000 0.88700  0.95476  0.74791  Biso   1.000  C
  O102     1.0000 0.85004  0.90356  0.61111  Biso   1.000  O
  N227     1.0000 0.88707  0.91801  0.70234  Biso   1.000  N
  O103     1.0000 0.85004  0.90353  0.61111  Biso   1.000  O
  N228     1.0000 0.88707  0.91797  0.70234  Biso   1.000  N
  O104     1.0000 0.85001  0.90356  0.61111  Biso   1.000  O
  N229     1.0000 0.88704  0.91801  0.70234  Biso   1.000  N
  O105     1.0000 0.85001  0.90353  0.61111  Biso   1.000  O
  N230     1.0000 0.88704  0.91797  0.70234  Biso   1.000  N
  N231     1.0000 0.93108  0.97992  0.75325  Biso   1.000  N
  O106     1.0000 0.95786  0.05662  0.74325  Biso   1.000  O
  O107     1.0000 0.95782  0.05662  0.74325  Biso   1.000  O
  C298     1.0000 0.07343  0.97357  0.26114  Biso   1.000  C
  C299     1.0000 0.07343  0.97354  0.26114  Biso   1.000  C
  C300     1.0000 0.07339  0.97357  0.26114  Biso   1.000  C
  C301     1.0000 0.07339  0.97354  0.26114  Biso   1.000  C
  C302     1.0000 0.11296  0.04524  0.25209  Biso   1.000  C
  C303     1.0000 0.11296  0.04521  0.25209  Biso   1.000  C
  C304     1.0000 0.14207  0.07103  0.34531  Biso   1.000  C
  H327     1.0000 0.87629  0.94250  0.78800  Biso   1.000  H
  C305     1.0000 0.90363  0.87051  0.71347  Biso   1.000  C
  C306     1.0000 0.90360  0.87051  0.71347  Biso   1.000  C
  C307     1.0000 0.97079  0.96195  0.78827  Biso   1.000  C
  C308     1.0000 0.97076  0.96195  0.78827  Biso   1.000  C
  O108     1.0000 0.04214  0.94338  0.25675  Biso   1.000  O
  N232     1.0000 0.11828  0.96610  0.28037  Biso   1.000  N
  O109     1.0000 0.04214  0.94334  0.25675  Biso   1.000  O
  O110     1.0000 0.04218  0.94338  0.25675  Biso   1.000  O
  O111     1.0000 0.04218  0.94334  0.25675  Biso   1.000  O
  C309     1.0000 0.14721  0.00810  0.27703  Biso   1.000  C
  H328     1.0000 0.12371  0.05750  0.21200  Biso   1.000  H
  C310     1.0000 0.14721  0.00807  0.27703  Biso   1.000  C
  H329     1.0000 0.12367  0.05750  0.21200  Biso   1.000  H
  N233     1.0000 0.16081  0.02710  0.33549  Biso   1.000  N
  O112     1.0000 0.14996  0.09644  0.38889  Biso   1.000  O
  N234     1.0000 0.16085  0.02710  0.33549  Biso   1.000  N
  N235     1.0000 0.95423  0.86544  0.70573  Biso   1.000  N
  H330     1.0000 0.88739  0.84870  0.68551  Biso   1.000  H
  H331     1.0000 0.89511  0.86132  0.75528  Biso   1.000  H
  H332     1.0000 0.89511  0.86128  0.75528  Biso   1.000  H
  H333     1.0000 0.89507  0.86132  0.75528  Biso   1.000  H
  H334     1.0000 0.89507  0.86128  0.75528  Biso   1.000  H
  N236     1.0000 0.99898  0.92770  0.75542  Biso   1.000  N
  H335     1.0000 0.99119  0.98869  0.80017  Biso   1.000  H
  H336     1.0000 0.95870  0.94711  0.82569  Biso   1.000  H
  H337     1.0000 0.95870  0.94708  0.82569  Biso   1.000  H
  H338     1.0000 0.95867  0.94711  0.82569  Biso   1.000  H
  H339     1.0000 0.95867  0.94708  0.82569  Biso   1.000  H
  C311     1.0000 0.13809  0.91864  0.28721  Biso   1.000  C
  C312     1.0000 0.13809  0.91861  0.28721  Biso   1.000  C
  H340     1.0000 0.17501  0.00359  0.24988  Biso   1.000  H
  H341     1.0000 0.17498  0.00359  0.24988  Biso   1.000  H
  C313     1.0000 0.20211  0.01085  0.36780  Biso   1.000  C
  C314     1.0000 0.97375  0.83725  0.66247  Biso   1.000  C
  C315     1.0000 0.98756  0.87826  0.75261  Biso   1.000  C
  C316     1.0000 0.97371  0.83725  0.66247  Biso   1.000  C
  C317     1.0000 0.98753  0.87826  0.75261  Biso   1.000  C
  C318     1.0000 0.04514  0.93644  0.74094  Biso   1.000  C
  C319     1.0000 0.04510  0.93644  0.74094  Biso   1.000  C
  N237     1.0000 0.15063  0.90723  0.34920  Biso   1.000  N
  H342     1.0000 0.16648  0.91589  0.26151  Biso   1.000  H
  H343     1.0000 0.11480  0.89532  0.27259  Biso   1.000  H
  N238     1.0000 0.15063  0.90726  0.34920  Biso   1.000  N
  H344     1.0000 0.11480  0.89528  0.27259  Biso   1.000  H
  N239     1.0000 0.15059  0.90723  0.34920  Biso   1.000  N
  N240     1.0000 0.15059  0.90726  0.34920  Biso   1.000  N
  N241     1.0000 0.19379  0.96843  0.40273  Biso   1.000  N
  N242     1.0000 0.19379  0.96839  0.40273  Biso   1.000  N
  N243     1.0000 0.19376  0.96843  0.40273  Biso   1.000  N
  N244     1.0000 0.19376  0.96839  0.40273  Biso   1.000  N
  H345     1.0000 0.22769  0.00469  0.33839  Biso   1.000  H
  H346     1.0000 0.21289  0.03612  0.39540  Biso   1.000  H
  H347     1.0000 0.21289  0.03608  0.39540  Biso   1.000  H
  H348     1.0000 0.22772  0.00469  0.33839  Biso   1.000  H
  H349     1.0000 0.21292  0.03612  0.39540  Biso   1.000  H
  H350     1.0000 0.21292  0.03608  0.39540  Biso   1.000  H
  O113     1.0000 0.95289  0.81843  0.62016  Biso   1.000  O
  N245     1.0000 0.02082  0.83263  0.67424  Biso   1.000  N
  N246     1.0000 0.02082  0.83260  0.67424  Biso   1.000  N
  N247     1.0000 0.02079  0.83263  0.67424  Biso   1.000  N
  N248     1.0000 0.02079  0.83260  0.67424  Biso   1.000  N
  H351     1.0000 0.97770  0.86590  0.79298  Biso   1.000  H
  C320     1.0000 0.03449  0.85522  0.73089  Biso   1.000  C
  O114     1.0000 0.06473  0.97527  0.74352  Biso   1.000  O
  N249     1.0000 0.06571  0.89507  0.72397  Biso   1.000  N
  O115     1.0000 0.06469  0.97527  0.74352  Biso   1.000  O
  C321     1.0000 0.13033  0.87086  0.37988  Biso   1.000  C
  C322     1.0000 0.19502  0.92153  0.37594  Biso   1.000  C
  C323     1.0000 0.13033  0.87083  0.37988  Biso   1.000  C
  C324     1.0000 0.13030  0.87086  0.37988  Biso   1.000  C
  C325     1.0000 0.13030  0.87083  0.37988  Biso   1.000  C
  C326     1.0000 0.19985  0.96702  0.46418  Biso   1.000  C
  C327     1.0000 0.05039  0.79930  0.64270  Biso   1.000  C
  C328     1.0000 0.05035  0.79930  0.64270  Biso   1.000  C
  H352     1.0000 0.04679  0.83189  0.76098  Biso   1.000  H
  H353     1.0000 0.04683  0.83189  0.76098  Biso   1.000  H
  C329     1.0000 0.11666  0.88982  0.72035  Biso   1.000  C
  O116     1.0000 0.09390  0.85029  0.36563  Biso   1.000  O
  N250     1.0000 0.15761  0.86043  0.42934  Biso   1.000  N
  N251     1.0000 0.15761  0.86040  0.42934  Biso   1.000  N
  C330     1.0000 0.20038  0.88859  0.43147  Biso   1.000  C
  H354     1.0000 0.22180  0.91801  0.34689  Biso   1.000  H
  H355     1.0000 0.22180  0.91797  0.34689  Biso   1.000  H
  H356     1.0000 0.22177  0.91801  0.34689  Biso   1.000  H
  H357     1.0000 0.22177  0.91797  0.34689  Biso   1.000  H
  N252     1.0000 0.20207  0.92083  0.48219  Biso   1.000  N
  N253     1.0000 0.20207  0.92079  0.48219  Biso   1.000  N
  O117     1.0000 0.20267  0.00162  0.49767  Biso   1.000  O
  N254     1.0000 0.08710  0.82139  0.60681  Biso   1.000  N
  H358     1.0000 0.06518  0.77802  0.67270  Biso   1.000  H
  H359     1.0000 0.03041  0.77982  0.61577  Biso   1.000  H
  N255     1.0000 0.08710  0.82136  0.60681  Biso   1.000  N
  H360     1.0000 0.06518  0.77799  0.67270  Biso   1.000  H
  H361     1.0000 0.03041  0.77978  0.61577  Biso   1.000  H
  H362     1.0000 0.03037  0.77982  0.61577  Biso   1.000  H
  H363     1.0000 0.03037  0.77978  0.61577  Biso   1.000  H
  N256     1.0000 0.13361  0.88052  0.65962  Biso   1.000  N
  H364     1.0000 0.12649  0.86361  0.74709  Biso   1.000  H
  H365     1.0000 0.13171  0.91900  0.73560  Biso   1.000  H
  H366     1.0000 0.12649  0.86357  0.74709  Biso   1.000  H
  N257     1.0000 0.13365  0.88052  0.65962  Biso   1.000  N
  C331     1.0000 0.15130  0.81829  0.46559  Biso   1.000  C
  C332     1.0000 0.15130  0.81826  0.46559  Biso   1.000  C
  H367     1.0000 0.22938  0.86871  0.42880  Biso   1.000  H
  H368     1.0000 0.22938  0.86868  0.42880  Biso   1.000  H
  C333     1.0000 0.21722  0.90768  0.54206  Biso   1.000  C
  C334     1.0000 0.09027  0.81481  0.54541  Biso   1.000  C
  C335     1.0000 0.13231  0.83440  0.63270  Biso   1.000  C
  C336     1.0000 0.09024  0.81481  0.54541  Biso   1.000  C
  C337     1.0000 0.13227  0.83440  0.63270  Biso   1.000  C
  C338     1.0000 0.16338  0.91054  0.62998  Biso   1.000  C
  N258     1.0000 0.13375  0.82812  0.52654  Biso   1.000  N
  H369     1.0000 0.12889  0.79712  0.44477  Biso   1.000  H
  H370     1.0000 0.18188  0.80159  0.46871  Biso   1.000  H
  H371     1.0000 0.12889  0.79708  0.44477  Biso   1.000  H
  N259     1.0000 0.13379  0.82812  0.52654  Biso   1.000  N
  H372     1.0000 0.12892  0.79712  0.44477  Biso   1.000  H
  H373     1.0000 0.12892  0.79708  0.44477  Biso   1.000  H
  N260     1.0000 0.17973  0.88831  0.57908  Biso   1.000  N
  H374     1.0000 0.24280  0.88411  0.53871  Biso   1.000  H
  H375     1.0000 0.23040  0.93580  0.56260  Biso   1.000  H
  N261     1.0000 0.17973  0.88827  0.57908  Biso   1.000  N
  H376     1.0000 0.24280  0.88408  0.53871  Biso   1.000  H
  H377     1.0000 0.23040  0.93577  0.56260  Biso   1.000  H
  N262     1.0000 0.17970  0.88831  0.57908  Biso   1.000  N
  H378     1.0000 0.24277  0.88411  0.53871  Biso   1.000  H
  H379     1.0000 0.23037  0.93580  0.56260  Biso   1.000  H
  N263     1.0000 0.17970  0.88827  0.57908  Biso   1.000  N
  H380     1.0000 0.24277  0.88408  0.53871  Biso   1.000  H
  H381     1.0000 0.23037  0.93577  0.56260  Biso   1.000  H
  O118     1.0000 0.05849  0.79934  0.51283  Biso   1.000  O
  O119     1.0000 0.05845  0.79934  0.51283  Biso   1.000  O
  H382     1.0000 0.14418  0.80970  0.66121  Biso   1.000  H
  C339     1.0000 0.16465  0.83951  0.57632  Biso   1.000  C
  C340     1.0000 0.16465  0.83947  0.57632  Biso   1.000  C
  C341     1.0000 0.16469  0.83951  0.57632  Biso   1.000  C
  C342     1.0000 0.16469  0.83947  0.57632  Biso   1.000  C
  O120     1.0000 0.17487  0.95028  0.64713  Biso   1.000  O
  O121     1.0000 0.17487  0.95025  0.64713  Biso   1.000  O
  H383     1.0000 0.19210  0.81741  0.57831  Biso   1.000  H
  H384     1.0000 0.19210  0.81738  0.57831  Biso   1.000  H
  C343     1.0000 0.83531  0.16053  0.42368  Biso   1.000  C
  N264     1.0000 0.82027  0.11169  0.42092  Biso   1.000  N
  N265     1.0000 0.86625  0.17188  0.47346  Biso   1.000  N
  C344     1.0000 0.86769  0.16560  0.36730  Biso   1.000  C
  H385     1.0000 0.80790  0.18259  0.42169  Biso   1.000  H
  C345     1.0000 0.86769  0.16557  0.36730  Biso   1.000  C
  H386     1.0000 0.80790  0.18262  0.42169  Biso   1.000  H
  N266     1.0000 0.86621  0.17188  0.47346  Biso   1.000  N
  C346     1.0000 0.83662  0.08946  0.36997  Biso   1.000  C
  C347     1.0000 0.83535  0.16049  0.42368  Biso   1.000  C
  C348     1.0000 0.78278  0.09232  0.45789  Biso   1.000  C
  C349     1.0000 0.83535  0.16053  0.42368  Biso   1.000  C
  C350     1.0000 0.78278  0.09228  0.45789  Biso   1.000  C
  C351     1.0000 0.83531  0.16049  0.42368  Biso   1.000  C
  C352     1.0000 0.78274  0.09232  0.45789  Biso   1.000  C
  C353     1.0000 0.78274  0.09228  0.45789  Biso   1.000  C
  C354     1.0000 0.90973  0.18519  0.45459  Biso   1.000  C
  C355     1.0000 0.84870  0.18171  0.53437  Biso   1.000  C
  N267     1.0000 0.86639  0.11948  0.34038  Biso   1.000  N
  N268     1.0000 0.86639  0.11945  0.34038  Biso   1.000  N
  N269     1.0000 0.86635  0.11948  0.34038  Biso   1.000  N
  N270     1.0000 0.86635  0.11945  0.34038  Biso   1.000  N
  N271     1.0000 0.91290  0.17861  0.39314  Biso   1.000  N
  H387     1.0000 0.85582  0.19030  0.33879  Biso   1.000  H
  N272     1.0000 0.91290  0.17864  0.39314  Biso   1.000  N
  H388     1.0000 0.85582  0.19027  0.33879  Biso   1.000  H
  H389     1.0000 0.85578  0.19030  0.33879  Biso   1.000  H
  H390     1.0000 0.85578  0.19027  0.33879  Biso   1.000  H
  O122     1.0000 0.82513  0.04972  0.35287  Biso   1.000  O
  O123     1.0000 0.82509  0.04972  0.35287  Biso   1.000  O
  H391     1.0000 0.76960  0.06420  0.43740  Biso   1.000  H
  N273     1.0000 0.79793  0.07917  0.51781  Biso   1.000  N
  H392     1.0000 0.75720  0.11589  0.46129  Biso   1.000  H
  N274     1.0000 0.79793  0.07921  0.51781  Biso   1.000  N
  H393     1.0000 0.75720  0.11592  0.46129  Biso   1.000  H
  N275     1.0000 0.79789  0.07917  0.51781  Biso   1.000  N
  N276     1.0000 0.79789  0.07921  0.51781  Biso   1.000  N
  O124     1.0000 0.94151  0.20066  0.48713  Biso   1.000  O
  N277     1.0000 0.84239  0.13957  0.57066  Biso   1.000  N
  H394     1.0000 0.87111  0.20288  0.55518  Biso   1.000  H
  H395     1.0000 0.81812  0.19841  0.53129  Biso   1.000  H
  H396     1.0000 0.87111  0.20292  0.55518  Biso   1.000  H
  N278     1.0000 0.84236  0.13957  0.57066  Biso   1.000  N
  H397     1.0000 0.87108  0.20288  0.55518  Biso   1.000  H
  H398     1.0000 0.81808  0.19841  0.53129  Biso   1.000  H
  H399     1.0000 0.87108  0.20292  0.55518  Biso   1.000  H
  C356     1.0000 0.88334  0.11018  0.27961  Biso   1.000  C
  C357     1.0000 0.94961  0.20070  0.35730  Biso   1.000  C
  C358     1.0000 0.79962  0.11141  0.56849  Biso   1.000  C
  C359     1.0000 0.80015  0.03298  0.53577  Biso   1.000  C
  C360     1.0000 0.80015  0.03294  0.53577  Biso   1.000  C
  C361     1.0000 0.79958  0.11141  0.56849  Biso   1.000  C
  C362     1.0000 0.80011  0.03298  0.53577  Biso   1.000  C
  C363     1.0000 0.80011  0.03294  0.53577  Biso   1.000  C
  C364     1.0000 0.86967  0.12914  0.62007  Biso   1.000  C
  C365     1.0000 0.86967  0.12917  0.62007  Biso   1.000  C
  N279     1.0000 0.93429  0.10493  0.27599  Biso   1.000  N
  H400     1.0000 0.87351  0.13639  0.25291  Biso   1.000  H
  H401     1.0000 0.86829  0.08100  0.26440  Biso   1.000  H
  N280     1.0000 0.93429  0.10489  0.27599  Biso   1.000  N
  H402     1.0000 0.87351  0.13643  0.25291  Biso   1.000  H
  H403     1.0000 0.86829  0.08097  0.26440  Biso   1.000  H
  H404     1.0000 0.87347  0.13639  0.25291  Biso   1.000  H
  H405     1.0000 0.87347  0.13643  0.25291  Biso   1.000  H
  N281     1.0000 0.97918  0.16737  0.32572  Biso   1.000  N
  H406     1.0000 0.93482  0.22198  0.32730  Biso   1.000  H
  H407     1.0000 0.96959  0.22018  0.38418  Biso   1.000  H
  N282     1.0000 0.97918  0.16740  0.32572  Biso   1.000  N
  H408     1.0000 0.96959  0.22022  0.38418  Biso   1.000  H
  H409     1.0000 0.93478  0.22198  0.32730  Biso   1.000  H
  H410     1.0000 0.77062  0.13129  0.57120  Biso   1.000  H
  C366     1.0000 0.80498  0.07847  0.62401  Biso   1.000  C
  H411     1.0000 0.77062  0.13132  0.57120  Biso   1.000  H
  C367     1.0000 0.80498  0.07843  0.62401  Biso   1.000  C
  H412     1.0000 0.77059  0.13129  0.57120  Biso   1.000  H
  C368     1.0000 0.80494  0.07847  0.62401  Biso   1.000  C
  H413     1.0000 0.77059  0.13132  0.57120  Biso   1.000  H
  C369     1.0000 0.80494  0.07843  0.62401  Biso   1.000  C
  N283     1.0000 0.80621  0.03157  0.59722  Biso   1.000  N
  O125     1.0000 0.79733  0.99838  0.50233  Biso   1.000  O
  O126     1.0000 0.79733  0.99834  0.50233  Biso   1.000  O
  O127     1.0000 0.79729  0.99838  0.50233  Biso   1.000  O
  O128     1.0000 0.79729  0.99834  0.50233  Biso   1.000  O
  N284     1.0000 0.84937  0.09274  0.65080  Biso   1.000  N
  O129     1.0000 0.90610  0.14971  0.63437  Biso   1.000  O
  O130     1.0000 0.90610  0.14968  0.63437  Biso   1.000  O
  C370     1.0000 0.96551  0.14478  0.26911  Biso   1.000  C
  C371     1.0000 0.95486  0.06356  0.25906  Biso   1.000  C
  C372     1.0000 0.96551  0.14474  0.26911  Biso   1.000  C
  C373     1.0000 0.95486  0.06353  0.25906  Biso   1.000  C
  C374     1.0000 0.02625  0.16275  0.33748  Biso   1.000  C
  C375     1.0000 0.02629  0.16275  0.33748  Biso   1.000  C
  H414     1.0000 0.77820  0.08199  0.65311  Biso   1.000  H
  C376     1.0000 0.79789  0.98915  0.63220  Biso   1.000  C
  C377     1.0000 0.79786  0.98915  0.63220  Biso   1.000  C
  C378     1.0000 0.86191  0.08136  0.71279  Biso   1.000  C
  C379     1.0000 0.86191  0.08139  0.71279  Biso   1.000  C
  H415     1.0000 0.95321  0.16811  0.23902  Biso   1.000  H
  H416     1.0000 0.95317  0.16811  0.23902  Biso   1.000  H
  C380     1.0000 0.01244  0.12174  0.24739  Biso   1.000  C
  C381     1.0000 0.01244  0.12170  0.24739  Biso   1.000  C
  C382     1.0000 0.01247  0.12174  0.24739  Biso   1.000  C
  C383     1.0000 0.01247  0.12170  0.24739  Biso   1.000  C
  O131     1.0000 0.93527  0.02473  0.25648  Biso   1.000  O
  O132     1.0000 0.93527  0.02470  0.25648  Biso   1.000  O
  N285     1.0000 0.00102  0.07230  0.24458  Biso   1.000  N
  N286     1.0000 0.00102  0.07227  0.24458  Biso   1.000  N
  N287     1.0000 0.00099  0.07230  0.24458  Biso   1.000  N
  N288     1.0000 0.00099  0.07227  0.24458  Biso   1.000  N
  N289     1.0000 0.04577  0.13456  0.29422  Biso   1.000  N
  N290     1.0000 0.04577  0.13453  0.29422  Biso   1.000  N
  N291     1.0000 0.04573  0.13456  0.29422  Biso   1.000  N
  N292     1.0000 0.04573  0.13453  0.29422  Biso   1.000  N
  O133     1.0000 0.04711  0.18157  0.37984  Biso   1.000  O
  O134     1.0000 0.04711  0.18153  0.37984  Biso   1.000  O
  O135     1.0000 0.04707  0.18157  0.37984  Biso   1.000  O
  O136     1.0000 0.04707  0.18153  0.37984  Biso   1.000  O
  N293     1.0000 0.83919  0.97290  0.66451  Biso   1.000  N
  H417     1.0000 0.77231  0.99531  0.66157  Biso   1.000  H
  H418     1.0000 0.78711  0.96388  0.60460  Biso   1.000  H
  N294     1.0000 0.83919  0.97287  0.66451  Biso   1.000  N
  H419     1.0000 0.77231  0.99528  0.66157  Biso   1.000  H
  N295     1.0000 0.83915  0.97290  0.66451  Biso   1.000  N
  H420     1.0000 0.77228  0.99531  0.66157  Biso   1.000  H
  H421     1.0000 0.78708  0.96388  0.60460  Biso   1.000  H
  N296     1.0000 0.83915  0.97287  0.66451  Biso   1.000  N
  H422     1.0000 0.77228  0.99528  0.66157  Biso   1.000  H
  N297     1.0000 0.88172  0.03390  0.71963  Biso   1.000  N
  H423     1.0000 0.83352  0.08411  0.73849  Biso   1.000  H
  H424     1.0000 0.88520  0.10468  0.72741  Biso   1.000  H
  N298     1.0000 0.88172  0.03386  0.71963  Biso   1.000  N
  H425     1.0000 0.83352  0.08407  0.73849  Biso   1.000  H
  N299     1.0000 0.88168  0.03390  0.71963  Biso   1.000  N
  H426     1.0000 0.83348  0.08411  0.73849  Biso   1.000  H
  H427     1.0000 0.88517  0.10468  0.72741  Biso   1.000  H
  N300     1.0000 0.88168  0.03386  0.71963  Biso   1.000  N
  H428     1.0000 0.83348  0.08407  0.73849  Biso   1.000  H
  H429     1.0000 0.02230  0.13410  0.20698  Biso   1.000  H
  H430     1.0000 0.02230  0.13407  0.20698  Biso   1.000  H
  C384     1.0000 0.02921  0.03805  0.21168  Biso   1.000  C
  C385     1.0000 0.02921  0.03802  0.21168  Biso   1.000  C
  C386     1.0000 0.09637  0.12949  0.28648  Biso   1.000  C
  C387     1.0000 0.09637  0.12945  0.28648  Biso   1.000  C
  C388     1.0000 0.85279  0.99190  0.72293  Biso   1.000  C
  C389     1.0000 0.85793  0.92897  0.65469  Biso   1.000  C
  C390     1.0000 0.85793  0.92893  0.65469  Biso   1.000  C
  C391     1.0000 0.85790  0.92897  0.65469  Biso   1.000  C
  C392     1.0000 0.85790  0.92893  0.65469  Biso   1.000  C
  C393     1.0000 0.92657  0.02643  0.73886  Biso   1.000  C
  N301     1.0000 0.06892  0.02008  0.24675  Biso   1.000  N
  H431     1.0000 0.00881  0.01131  0.19978  Biso   1.000  H
  H432     1.0000 0.04130  0.05289  0.17431  Biso   1.000  H
  H433     1.0000 0.00881  0.01128  0.19978  Biso   1.000  H
  N302     1.0000 0.06888  0.02008  0.24675  Biso   1.000  N
  H434     1.0000 0.11261  0.15130  0.31449  Biso   1.000  H
  H435     1.0000 0.10489  0.13868  0.24472  Biso   1.000  H
  N303     1.0000 0.11293  0.08199  0.29762  Biso   1.000  N
  H436     1.0000 0.11258  0.15130  0.31449  Biso   1.000  H
  H437     1.0000 0.82499  0.99641  0.75008  Biso   1.000  H
  C394     1.0000 0.88704  0.95476  0.74791  Biso   1.000  C
  H438     1.0000 0.82499  0.99637  0.75008  Biso   1.000  H
  C395     1.0000 0.88700  0.95476  0.74791  Biso   1.000  C
  O137     1.0000 0.85004  0.90356  0.61111  Biso   1.000  O
  N304     1.0000 0.88707  0.91801  0.70234  Biso   1.000  N
  O138     1.0000 0.85004  0.90353  0.61111  Biso   1.000  O
  N305     1.0000 0.88707  0.91797  0.70234  Biso   1.000  N
  O139     1.0000 0.85001  0.90356  0.61111  Biso   1.000  O
  N306     1.0000 0.88704  0.91801  0.70234  Biso   1.000  N
  O140     1.0000 0.85001  0.90353  0.61111  Biso   1.000  O
  N307     1.0000 0.88704  0.91797  0.70234  Biso   1.000  N
  N308     1.0000 0.93108  0.97992  0.75325  Biso   1.000  N
  O141     1.0000 0.95786  0.05662  0.74325  Biso   1.000  O
  O142     1.0000 0.95782  0.05662  0.74325  Biso   1.000  O
  C396     1.0000 0.07343  0.97357  0.26114  Biso   1.000  C
  C397     1.0000 0.07343  0.97354  0.26114  Biso   1.000  C
  C398     1.0000 0.07339  0.97357  0.26114  Biso   1.000  C
  C399     1.0000 0.07339  0.97354  0.26114  Biso   1.000  C
  C400     1.0000 0.11296  0.04524  0.25209  Biso   1.000  C
  C401     1.0000 0.11296  0.04521  0.25209  Biso   1.000  C
  C402     1.0000 0.14207  0.07103  0.34531  Biso   1.000  C
  H439     1.0000 0.87629  0.94250  0.78800  Biso   1.000  H
  C403     1.0000 0.90363  0.87051  0.71347  Biso   1.000  C
  C404     1.0000 0.90360  0.87051  0.71347  Biso   1.000  C
  C405     1.0000 0.97079  0.96195  0.78827  Biso   1.000  C
  C406     1.0000 0.97076  0.96195  0.78827  Biso   1.000  C
  O143     1.0000 0.04214  0.94338  0.25675  Biso   1.000  O
  N309     1.0000 0.11828  0.96610  0.28037  Biso   1.000  N
  O144     1.0000 0.04214  0.94334  0.25675  Biso   1.000  O
  O145     1.0000 0.04218  0.94338  0.25675  Biso   1.000  O
  O146     1.0000 0.04218  0.94334  0.25675  Biso   1.000  O
  C407     1.0000 0.14721  0.00810  0.27703  Biso   1.000  C
  H440     1.0000 0.12371  0.05750  0.21200  Biso   1.000  H
  C408     1.0000 0.14721  0.00807  0.27703  Biso   1.000  C
  H441     1.0000 0.12367  0.05750  0.21200  Biso   1.000  H
  N310     1.0000 0.16081  0.02710  0.33549  Biso   1.000  N
  O147     1.0000 0.14996  0.09644  0.38889  Biso   1.000  O
  N311     1.0000 0.16085  0.02710  0.33549  Biso   1.000  N
  N312     1.0000 0.95423  0.86544  0.70573  Biso   1.000  N
  H442     1.0000 0.88739  0.84870  0.68551  Biso   1.000  H
  H443     1.0000 0.89511  0.86132  0.75528  Biso   1.000  H
  H444     1.0000 0.89511  0.86128  0.75528  Biso   1.000  H
  H445     1.0000 0.89507  0.86132  0.75528  Biso   1.000  H
  H446     1.0000 0.89507  0.86128  0.75528  Biso   1.000  H
  N313     1.0000 0.99898  0.92770  0.75542  Biso   1.000  N
  H447     1.0000 0.99119  0.98869  0.80017  Biso   1.000  H
  H448     1.0000 0.95870  0.94711  0.82569  Biso   1.000  H
  H449     1.0000 0.95870  0.94708  0.82569  Biso   1.000  H
  H450     1.0000 0.95867  0.94711  0.82569  Biso   1.000  H
  H451     1.0000 0.95867  0.94708  0.82569  Biso   1.000  H
  C409     1.0000 0.13809  0.91864  0.28721  Biso   1.000  C
  C410     1.0000 0.13809  0.91861  0.28721  Biso   1.000  C
  H452     1.0000 0.17501  0.00359  0.24988  Biso   1.000  H
  H453     1.0000 0.17498  0.00359  0.24988  Biso   1.000  H
  C411     1.0000 0.20211  0.01085  0.36780  Biso   1.000  C
  C412     1.0000 0.97375  0.83725  0.66247  Biso   1.000  C
  C413     1.0000 0.98756  0.87826  0.75261  Biso   1.000  C
  C414     1.0000 0.97371  0.83725  0.66247  Biso   1.000  C
  C415     1.0000 0.98753  0.87826  0.75261  Biso   1.000  C
  C416     1.0000 0.04514  0.93644  0.74094  Biso   1.000  C
  C417     1.0000 0.04510  0.93644  0.74094  Biso   1.000  C
  N314     1.0000 0.15063  0.90723  0.34920  Biso   1.000  N
  H454     1.0000 0.16648  0.91589  0.26151  Biso   1.000  H
  H455     1.0000 0.11480  0.89532  0.27259  Biso   1.000  H
  N315     1.0000 0.15063  0.90726  0.34920  Biso   1.000  N
  H456     1.0000 0.11480  0.89528  0.27259  Biso   1.000  H
  N316     1.0000 0.15059  0.90723  0.34920  Biso   1.000  N
  N317     1.0000 0.15059  0.90726  0.34920  Biso   1.000  N
  N318     1.0000 0.19379  0.96843  0.40273  Biso   1.000  N
  N319     1.0000 0.19379  0.96839  0.40273  Biso   1.000  N
  N320     1.0000 0.19376  0.96843  0.40273  Biso   1.000  N
  N321     1.0000 0.19376  0.96839  0.40273  Biso   1.000  N
  H457     1.0000 0.22769  0.00469  0.33839  Biso   1.000  H
  H458     1.0000 0.21289  0.03612  0.39540  Biso   1.000  H
  H459     1.0000 0.21289  0.03608  0.39540  Biso   1.000  H
  H460     1.0000 0.22772  0.00469  0.33839  Biso   1.000  H
  H461     1.0000 0.21292  0.03612  0.39540  Biso   1.000  H
  H462     1.0000 0.21292  0.03608  0.39540  Biso   1.000  H
  O148     1.0000 0.95289  0.81843  0.62016  Biso   1.000  O
  N322     1.0000 0.02082  0.83263  0.67424  Biso   1.000  N
  N323     1.0000 0.02082  0.83260  0.67424  Biso   1.000  N
  N324     1.0000 0.02079  0.83263  0.67424  Biso   1.000  N
  N325     1.0000 0.02079  0.83260  0.67424  Biso   1.000  N
  H463     1.0000 0.97770  0.86590  0.79298  Biso   1.000  H
  C418     1.0000 0.03449  0.85522  0.73089  Biso   1.000  C
  O149     1.0000 0.06473  0.97527  0.74352  Biso   1.000  O
  N326     1.0000 0.06571  0.89507  0.72397  Biso   1.000  N
  O150     1.0000 0.06469  0.97527  0.74352  Biso   1.000  O
  C419     1.0000 0.13033  0.87086  0.37988  Biso   1.000  C
  C420     1.0000 0.19502  0.92153  0.37594  Biso   1.000  C
  C421     1.0000 0.13033  0.87083  0.37988  Biso   1.000  C
  C422     1.0000 0.13030  0.87086  0.37988  Biso   1.000  C
  C423     1.0000 0.13030  0.87083  0.37988  Biso   1.000  C
  C424     1.0000 0.19985  0.96702  0.46418  Biso   1.000  C
  C425     1.0000 0.05039  0.79930  0.64270  Biso   1.000  C
  C426     1.0000 0.05035  0.79930  0.64270  Biso   1.000  C
  H464     1.0000 0.04679  0.83189  0.76098  Biso   1.000  H
  H465     1.0000 0.04683  0.83189  0.76098  Biso   1.000  H
  C427     1.0000 0.11666  0.88982  0.72035  Biso   1.000  C
  O151     1.0000 0.09390  0.85029  0.36563  Biso   1.000  O
  N327     1.0000 0.15761  0.86043  0.42934  Biso   1.000  N
  N328     1.0000 0.15761  0.86040  0.42934  Biso   1.000  N
  C428     1.0000 0.20038  0.88859  0.43147  Biso   1.000  C
  H466     1.0000 0.22180  0.91801  0.34689  Biso   1.000  H
  H467     1.0000 0.22180  0.91797  0.34689  Biso   1.000  H
  H468     1.0000 0.22177  0.91801  0.34689  Biso   1.000  H
  H469     1.0000 0.22177  0.91797  0.34689  Biso   1.000  H
  N329     1.0000 0.20207  0.92083  0.48219  Biso   1.000  N
  N330     1.0000 0.20207  0.92079  0.48219  Biso   1.000  N
  O152     1.0000 0.20267  0.00162  0.49767  Biso   1.000  O
  N331     1.0000 0.08710  0.82139  0.60681  Biso   1.000  N
  H470     1.0000 0.06518  0.77802  0.67270  Biso   1.000  H
  H471     1.0000 0.03041  0.77982  0.61577  Biso   1.000  H
  N332     1.0000 0.08710  0.82136  0.60681  Biso   1.000  N
  H472     1.0000 0.06518  0.77799  0.67270  Biso   1.000  H
  H473     1.0000 0.03041  0.77978  0.61577  Biso   1.000  H
  H474     1.0000 0.03037  0.77982  0.61577  Biso   1.000  H
  H475     1.0000 0.03037  0.77978  0.61577  Biso   1.000  H
  N333     1.0000 0.13361  0.88052  0.65962  Biso   1.000  N
  H476     1.0000 0.12649  0.86361  0.74709  Biso   1.000  H
  H477     1.0000 0.13171  0.91900  0.73560  Biso   1.000  H
  H478     1.0000 0.12649  0.86357  0.74709  Biso   1.000  H
  N334     1.0000 0.13365  0.88052  0.65962  Biso   1.000  N
  C429     1.0000 0.15130  0.81829  0.46559  Biso   1.000  C
  C430     1.0000 0.15130  0.81826  0.46559  Biso   1.000  C
  H479     1.0000 0.22938  0.86871  0.42880  Biso   1.000  H
  H480     1.0000 0.22938  0.86868  0.42880  Biso   1.000  H
  C431     1.0000 0.21722  0.90768  0.54206  Biso   1.000  C
  C432     1.0000 0.09027  0.81481  0.54541  Biso   1.000  C
  C433     1.0000 0.13231  0.83440  0.63270  Biso   1.000  C
  C434     1.0000 0.09024  0.81481  0.54541  Biso   1.000  C
  C435     1.0000 0.13227  0.83440  0.63270  Biso   1.000  C
  C436     1.0000 0.16338  0.91054  0.62998  Biso   1.000  C
  N335     1.0000 0.13375  0.82812  0.52654  Biso   1.000  N
  H481     1.0000 0.12889  0.79712  0.44477  Biso   1.000  H
  H482     1.0000 0.18188  0.80159  0.46871  Biso   1.000  H
  H483     1.0000 0.12889  0.79708  0.44477  Biso   1.000  H
  N336     1.0000 0.13379  0.82812  0.52654  Biso   1.000  N
  H484     1.0000 0.12892  0.79712  0.44477  Biso   1.000  H
  H485     1.0000 0.12892  0.79708  0.44477  Biso   1.000  H
  N337     1.0000 0.17973  0.88831  0.57908  Biso   1.000  N
  H486     1.0000 0.24280  0.88411  0.53871  Biso   1.000  H
  H487     1.0000 0.23040  0.93580  0.56260  Biso   1.000  H
  N338     1.0000 0.17973  0.88827  0.57908  Biso   1.000  N
  H488     1.0000 0.24280  0.88408  0.53871  Biso   1.000  H
  H489     1.0000 0.23040  0.93577  0.56260  Biso   1.000  H
  N339     1.0000 0.17970  0.88831  0.57908  Biso   1.000  N
  H490     1.0000 0.24277  0.88411  0.53871  Biso   1.000  H
  H491     1.0000 0.23037  0.93580  0.56260  Biso   1.000  H
  N340     1.0000 0.17970  0.88827  0.57908  Biso   1.000  N
  H492     1.0000 0.24277  0.88408  0.53871  Biso   1.000  H
  H493     1.0000 0.23037  0.93577  0.56260  Biso   1.000  H
  O153     1.0000 0.05849  0.79934  0.51283  Biso   1.000  O
  O154     1.0000 0.05845  0.79934  0.51283  Biso   1.000  O
  H494     1.0000 0.14418  0.80970  0.66121  Biso   1.000  H
  C437     1.0000 0.16465  0.83951  0.57632  Biso   1.000  C
  C438     1.0000 0.16465  0.83947  0.57632  Biso   1.000  C
  C439     1.0000 0.16469  0.83951  0.57632  Biso   1.000  C
  C440     1.0000 0.16469  0.83947  0.57632  Biso   1.000  C
  O155     1.0000 0.17487  0.95028  0.64713  Biso   1.000  O
  O156     1.0000 0.17487  0.95025  0.64713  Biso   1.000  O
  H495     1.0000 0.19210  0.81741  0.57831  Biso   1.000  H
  H496     1.0000 0.19210  0.81738  0.57831  Biso   1.000  H
  O157     1.0000 0.85001  0.40354  0.38889  Biso   1.000  O
  C441     1.0000 0.85793  0.42895  0.34531  Biso   1.000  C
  C442     1.0000 0.85790  0.42895  0.34531  Biso   1.000  C
  N341     1.0000 0.83919  0.47289  0.33549  Biso   1.000  N
  N342     1.0000 0.83915  0.47289  0.33549  Biso   1.000  N
  N343     1.0000 0.88707  0.41799  0.29762  Biso   1.000  N
  O158     1.0000 0.85004  0.40354  0.38889  Biso   1.000  O
  N344     1.0000 0.88704  0.41799  0.29762  Biso   1.000  N
  C443     1.0000 0.79786  0.48917  0.36780  Biso   1.000  C
  C444     1.0000 0.79789  0.48917  0.36780  Biso   1.000  C
  C445     1.0000 0.85279  0.49188  0.27703  Biso   1.000  C
  C446     1.0000 0.88704  0.45478  0.25209  Biso   1.000  C
  C447     1.0000 0.88700  0.45478  0.25209  Biso   1.000  C
  C448     1.0000 0.90363  0.37049  0.28648  Biso   1.000  C
  C449     1.0000 0.90360  0.37049  0.28648  Biso   1.000  C
  N345     1.0000 0.80621  0.53159  0.40273  Biso   1.000  N
  H497     1.0000 0.77231  0.49530  0.33839  Biso   1.000  H
  H498     1.0000 0.78711  0.46390  0.39540  Biso   1.000  H
  H499     1.0000 0.77228  0.49530  0.33839  Biso   1.000  H
  H500     1.0000 0.78708  0.46390  0.39540  Biso   1.000  H
  N346     1.0000 0.88172  0.53388  0.28037  Biso   1.000  N
  H501     1.0000 0.82499  0.49639  0.24988  Biso   1.000  H
  N347     1.0000 0.88168  0.53388  0.28037  Biso   1.000  N
  N348     1.0000 0.93108  0.47993  0.24675  Biso   1.000  N
  H502     1.0000 0.87629  0.44248  0.21200  Biso   1.000  H
  N349     1.0000 0.95423  0.36542  0.29422  Biso   1.000  N
  H503     1.0000 0.88739  0.34868  0.31449  Biso   1.000  H
  H504     1.0000 0.89511  0.36130  0.24472  Biso   1.000  H
  H505     1.0000 0.89507  0.36130  0.24472  Biso   1.000  H
  C450     1.0000 0.80498  0.57845  0.37594  Biso   1.000  C
  C451     1.0000 0.80015  0.53296  0.46418  Biso   1.000  C
  C452     1.0000 0.80494  0.57845  0.37594  Biso   1.000  C
  C453     1.0000 0.80011  0.53296  0.46418  Biso   1.000  C
  C454     1.0000 0.86191  0.58137  0.28721  Biso   1.000  C
  C455     1.0000 0.92657  0.52644  0.26114  Biso   1.000  C
  C456     1.0000 0.97079  0.46196  0.21168  Biso   1.000  C
  C457     1.0000 0.97076  0.46196  0.21168  Biso   1.000  C
  C458     1.0000 0.97375  0.33727  0.33748  Biso   1.000  C
  C459     1.0000 0.98756  0.37825  0.24739  Biso   1.000  C
  C460     1.0000 0.97371  0.33727  0.33748  Biso   1.000  C
  C461     1.0000 0.98753  0.37825  0.24739  Biso   1.000  C
  N350     1.0000 0.84937  0.59272  0.34920  Biso   1.000  N
  C462     1.0000 0.79962  0.61139  0.43147  Biso   1.000  C
  H506     1.0000 0.77820  0.58197  0.34689  Biso   1.000  H
  C463     1.0000 0.79958  0.61139  0.43147  Biso   1.000  C
  N351     1.0000 0.79793  0.57916  0.48219  Biso   1.000  N
  O159     1.0000 0.79733  0.49836  0.49767  Biso   1.000  O
  N352     1.0000 0.79789  0.57916  0.48219  Biso   1.000  N
  O160     1.0000 0.79729  0.49836  0.49767  Biso   1.000  O
  H507     1.0000 0.83352  0.58409  0.26151  Biso   1.000  H
  H508     1.0000 0.88520  0.60470  0.27259  Biso   1.000  H
  H509     1.0000 0.83348  0.58409  0.26151  Biso   1.000  H
  H510     1.0000 0.88517  0.60470  0.27259  Biso   1.000  H
  O161     1.0000 0.95786  0.55664  0.25675  Biso   1.000  O
  O162     1.0000 0.95782  0.55664  0.25675  Biso   1.000  O
  N353     1.0000 0.99898  0.42772  0.24458  Biso   1.000  N
  H511     1.0000 0.99119  0.48871  0.19978  Biso   1.000  H
  H512     1.0000 0.95870  0.44709  0.17431  Biso   1.000  H
  H513     1.0000 0.95867  0.44709  0.17431  Biso   1.000  H
  O163     1.0000 0.95289  0.31842  0.37984  Biso   1.000  O
  N354     1.0000 0.02082  0.33262  0.32572  Biso   1.000  N
  N355     1.0000 0.02079  0.33262  0.32572  Biso   1.000  N
  H514     1.0000 0.97770  0.36588  0.20698  Biso   1.000  H
  C464     1.0000 0.03449  0.35520  0.26911  Biso   1.000  C
  C465     1.0000 0.86967  0.62912  0.37988  Biso   1.000  C
  N356     1.0000 0.84239  0.63958  0.42934  Biso   1.000  N
  H515     1.0000 0.77062  0.63130  0.42880  Biso   1.000  H
  N357     1.0000 0.84236  0.63958  0.42934  Biso   1.000  N
  H516     1.0000 0.77059  0.63130  0.42880  Biso   1.000  H
  C466     1.0000 0.78278  0.59230  0.54206  Biso   1.000  C
  C467     1.0000 0.78274  0.59230  0.54206  Biso   1.000  C
  C468     1.0000 0.04514  0.43645  0.25906  Biso   1.000  C
  C469     1.0000 0.04510  0.43645  0.25906  Biso   1.000  C
  C470     1.0000 0.05039  0.29928  0.35730  Biso   1.000  C
  C471     1.0000 0.05035  0.29928  0.35730  Biso   1.000  C
  N358     1.0000 0.06571  0.39505  0.27599  Biso   1.000  N
  H517     1.0000 0.04679  0.33188  0.23902  Biso   1.000  H
  H518     1.0000 0.04683  0.33188  0.23902  Biso   1.000  H
  O164     1.0000 0.90610  0.64970  0.36563  Biso   1.000  O
  C472     1.0000 0.84870  0.68169  0.46559  Biso   1.000  C
  N359     1.0000 0.82027  0.61171  0.57908  Biso   1.000  N
  H519     1.0000 0.75720  0.61591  0.53871  Biso   1.000  H
  H520     1.0000 0.76960  0.56418  0.56260  Biso   1.000  H
  O165     1.0000 0.06473  0.47525  0.25648  Biso   1.000  O
  O166     1.0000 0.06469  0.47525  0.25648  Biso   1.000  O
  N360     1.0000 0.08710  0.32138  0.39314  Biso   1.000  N
  H521     1.0000 0.06518  0.27800  0.32730  Biso   1.000  H
  H522     1.0000 0.03041  0.27980  0.38418  Biso   1.000  H
  H523     1.0000 0.03037  0.27980  0.38418  Biso   1.000  H
  C473     1.0000 0.11666  0.38980  0.27961  Biso   1.000  C
  N361     1.0000 0.86625  0.67186  0.52654  Biso   1.000  N
  H524     1.0000 0.87111  0.70290  0.44477  Biso   1.000  H
  H525     1.0000 0.81812  0.69839  0.46871  Biso   1.000  H
  N362     1.0000 0.86621  0.67186  0.52654  Biso   1.000  N
  H526     1.0000 0.87108  0.70290  0.44477  Biso   1.000  H
  H527     1.0000 0.81808  0.69839  0.46871  Biso   1.000  H
  C474     1.0000 0.83535  0.66048  0.57632  Biso   1.000  C
  C475     1.0000 0.83662  0.58944  0.62998  Biso   1.000  C
  C476     1.0000 0.83531  0.66048  0.57632  Biso   1.000  C
  C477     1.0000 0.09027  0.31482  0.45459  Biso   1.000  C
  C478     1.0000 0.13231  0.33438  0.36730  Biso   1.000  C
  C479     1.0000 0.09024  0.31482  0.45459  Biso   1.000  C
  C480     1.0000 0.13227  0.33438  0.36730  Biso   1.000  C
  N363     1.0000 0.13361  0.38054  0.34038  Biso   1.000  N
  H528     1.0000 0.12649  0.36359  0.25291  Biso   1.000  H
  H529     1.0000 0.13171  0.41898  0.26440  Biso   1.000  H
  N364     1.0000 0.13365  0.38054  0.34038  Biso   1.000  N
  C481     1.0000 0.90973  0.68518  0.54541  Biso   1.000  C
  C482     1.0000 0.86769  0.66559  0.63270  Biso   1.000  C
  H530     1.0000 0.80790  0.68260  0.57831  Biso   1.000  H
  N365     1.0000 0.86639  0.61946  0.65962  Biso   1.000  N
  O167     1.0000 0.82513  0.54970  0.64713  Biso   1.000  O
  N366     1.0000 0.86635  0.61946  0.65962  Biso   1.000  N
  O168     1.0000 0.82509  0.54970  0.64713  Biso   1.000  O
  O169     1.0000 0.05849  0.29932  0.48713  Biso   1.000  O
  N367     1.0000 0.13375  0.32811  0.47346  Biso   1.000  N
  O170     1.0000 0.05845  0.29932  0.48713  Biso   1.000  O
  N368     1.0000 0.13379  0.32811  0.47346  Biso   1.000  N
  H531     1.0000 0.14418  0.30968  0.33879  Biso   1.000  H
  C483     1.0000 0.16465  0.33949  0.42368  Biso   1.000  C
  C484     1.0000 0.16469  0.33949  0.42368  Biso   1.000  C
  C485     1.0000 0.16338  0.41056  0.36997  Biso   1.000  C
  O171     1.0000 0.94151  0.70064  0.51283  Biso   1.000  O
  N369     1.0000 0.91290  0.67859  0.60681  Biso   1.000  N
  H532     1.0000 0.85582  0.69029  0.66121  Biso   1.000  H
  H533     1.0000 0.85578  0.69029  0.66121  Biso   1.000  H
  C486     1.0000 0.88334  0.61016  0.72035  Biso   1.000  C
  C487     1.0000 0.15130  0.31828  0.53437  Biso   1.000  C
  N370     1.0000 0.17973  0.38829  0.42092  Biso   1.000  N
  N371     1.0000 0.17970  0.38829  0.42092  Biso   1.000  N
  H534     1.0000 0.19210  0.31740  0.42169  Biso   1.000  H
  O172     1.0000 0.17487  0.45027  0.35287  Biso   1.000  O
  C488     1.0000 0.94961  0.70068  0.64270  Biso   1.000  C
  N372     1.0000 0.93429  0.60491  0.72397  Biso   1.000  N
  H535     1.0000 0.87351  0.63638  0.74709  Biso   1.000  H
  H536     1.0000 0.86829  0.58099  0.73560  Biso   1.000  H
  H537     1.0000 0.87347  0.63638  0.74709  Biso   1.000  H
  N373     1.0000 0.15761  0.36042  0.57066  Biso   1.000  N
  H538     1.0000 0.12889  0.29710  0.55518  Biso   1.000  H
  H539     1.0000 0.18188  0.30161  0.53129  Biso   1.000  H
  H540     1.0000 0.12892  0.29710  0.55518  Biso   1.000  H
  C489     1.0000 0.21722  0.40767  0.45789  Biso   1.000  C
  N374     1.0000 0.97918  0.66735  0.67424  Biso   1.000  N
  H541     1.0000 0.93482  0.72200  0.67270  Biso   1.000  H
  H542     1.0000 0.96959  0.72020  0.61577  Biso   1.000  H
  H543     1.0000 0.93478  0.72200  0.67270  Biso   1.000  H
  C490     1.0000 0.95486  0.56355  0.74094  Biso   1.000  C
  C491     1.0000 0.96551  0.64476  0.73089  Biso   1.000  C
  C492     1.0000 0.13033  0.37085  0.62007  Biso   1.000  C
  C493     1.0000 0.20038  0.38857  0.56849  Biso   1.000  C
  C494     1.0000 0.13030  0.37085  0.62007  Biso   1.000  C
  N375     1.0000 0.20207  0.42081  0.51781  Biso   1.000  N
  H544     1.0000 0.24280  0.38409  0.46129  Biso   1.000  H
  H545     1.0000 0.23040  0.43578  0.43740  Biso   1.000  H
  H546     1.0000 0.24277  0.38409  0.46129  Biso   1.000  H
  H547     1.0000 0.23037  0.43578  0.43740  Biso   1.000  H
  C495     1.0000 0.02625  0.66273  0.66247  Biso   1.000  C
  C496     1.0000 0.02629  0.66273  0.66247  Biso   1.000  C
  O173     1.0000 0.93527  0.52472  0.74352  Biso   1.000  O
  N376     1.0000 0.00102  0.57228  0.75542  Biso   1.000  N
  N377     1.0000 0.00099  0.57228  0.75542  Biso   1.000  N
  H548     1.0000 0.95321  0.66809  0.76098  Biso   1.000  H
  H549     1.0000 0.95317  0.66809  0.76098  Biso   1.000  H
  C497     1.0000 0.01244  0.62172  0.75261  Biso   1.000  C
  C498     1.0000 0.01247  0.62172  0.75261  Biso   1.000  C
  O174     1.0000 0.09390  0.35027  0.63437  Biso   1.000  O
  N378     1.0000 0.15063  0.40728  0.65080  Biso   1.000  N
  N379     1.0000 0.15059  0.40728  0.65080  Biso   1.000  N
  H550     1.0000 0.22938  0.36870  0.57120  Biso   1.000  H
  C499     1.0000 0.19502  0.42155  0.62401  Biso   1.000  C
  C500     1.0000 0.19985  0.46704  0.53577  Biso   1.000  C
  O175     1.0000 0.04711  0.68155  0.62016  Biso   1.000  O
  N380     1.0000 0.04577  0.63454  0.70573  Biso   1.000  N
  O176     1.0000 0.04707  0.68155  0.62016  Biso   1.000  O
  N381     1.0000 0.04573  0.63454  0.70573  Biso   1.000  N
  C501     1.0000 0.02921  0.53804  0.78827  Biso   1.000  C
  H551     1.0000 0.02230  0.63409  0.79298  Biso   1.000  H
  C502     1.0000 0.13809  0.41863  0.71279  Biso   1.000  C
  N382     1.0000 0.19379  0.46841  0.59722  Biso   1.000  N
  N383     1.0000 0.19376  0.46841  0.59722  Biso   1.000  N
  H552     1.0000 0.22180  0.41799  0.65311  Biso   1.000  H
  H553     1.0000 0.22177  0.41799  0.65311  Biso   1.000  H
  O177     1.0000 0.20267  0.50164  0.50233  Biso   1.000  O
  C503     1.0000 0.09637  0.62947  0.71347  Biso   1.000  C
  N384     1.0000 0.06892  0.52007  0.75325  Biso   1.000  N
  H554     1.0000 0.00881  0.51129  0.80017  Biso   1.000  H
  H555     1.0000 0.04130  0.55291  0.82569  Biso   1.000  H
  N385     1.0000 0.06888  0.52007  0.75325  Biso   1.000  N
  N386     1.0000 0.11828  0.46612  0.71963  Biso   1.000  N
  H556     1.0000 0.16648  0.41588  0.73849  Biso   1.000  H
  H557     1.0000 0.11480  0.39530  0.72741  Biso   1.000  H
  C504     1.0000 0.20211  0.51083  0.63220  Biso   1.000  C
  N387     1.0000 0.11293  0.58197  0.70234  Biso   1.000  N
  H558     1.0000 0.11261  0.65128  0.68551  Biso   1.000  H
  H559     1.0000 0.10489  0.63870  0.75528  Biso   1.000  H
  H560     1.0000 0.11258  0.65128  0.68551  Biso   1.000  H
  C505     1.0000 0.07343  0.47356  0.73886  Biso   1.000  C
  C506     1.0000 0.11296  0.54522  0.74791  Biso   1.000  C
  C507     1.0000 0.07339  0.47356  0.73886  Biso   1.000  C
  C508     1.0000 0.14721  0.50809  0.72293  Biso   1.000  C
  N388     1.0000 0.16081  0.52708  0.66451  Biso   1.000  N
  N389     1.0000 0.16085  0.52708  0.66451  Biso   1.000  N
  H561     1.0000 0.22769  0.50470  0.66157  Biso   1.000  H
  H562     1.0000 0.21289  0.53610  0.60460  Biso   1.000  H
  H563     1.0000 0.22772  0.50470  0.66157  Biso   1.000  H
  H564     1.0000 0.21292  0.53610  0.60460  Biso   1.000  H
  C509     1.0000 0.14207  0.57102  0.65469  Biso   1.000  C
  O178     1.0000 0.04214  0.44336  0.74325  Biso   1.000  O
  O179     1.0000 0.04218  0.44336  0.74325  Biso   1.000  O
  H565     1.0000 0.12371  0.55749  0.78800  Biso   1.000  H
  H566     1.0000 0.12367  0.55749  0.78800  Biso   1.000  H
  H567     1.0000 0.17501  0.50358  0.75008  Biso   1.000  H
  H568     1.0000 0.17498  0.50358  0.75008  Biso   1.000  H
  O180     1.0000 0.14996  0.59642  0.61111  Biso   1.000  O
  O181     1.0000 0.85001  0.40354  0.38889  Biso   1.000  O
  C510     1.0000 0.85793  0.42895  0.34531  Biso   1.000  C
  C511     1.0000 0.85790  0.42895  0.34531  Biso   1.000  C
  N390     1.0000 0.83919  0.47289  0.33549  Biso   1.000  N
  N391     1.0000 0.83915  0.47289  0.33549  Biso   1.000  N
  N392     1.0000 0.88707  0.41799  0.29762  Biso   1.000  N
  O182     1.0000 0.85004  0.40354  0.38889  Biso   1.000  O
  N393     1.0000 0.88704  0.41799  0.29762  Biso   1.000  N
  C512     1.0000 0.79789  0.48917  0.36780  Biso   1.000  C
  C513     1.0000 0.79786  0.48917  0.36780  Biso   1.000  C
  C514     1.0000 0.85279  0.49188  0.27703  Biso   1.000  C
  C515     1.0000 0.88704  0.45478  0.25209  Biso   1.000  C
  C516     1.0000 0.88700  0.45478  0.25209  Biso   1.000  C
  C517     1.0000 0.90363  0.37049  0.28648  Biso   1.000  C
  C518     1.0000 0.90360  0.37049  0.28648  Biso   1.000  C
  N394     1.0000 0.80621  0.53159  0.40273  Biso   1.000  N
  H569     1.0000 0.77231  0.49530  0.33839  Biso   1.000  H
  H570     1.0000 0.78711  0.46390  0.39540  Biso   1.000  H
  H571     1.0000 0.77228  0.49530  0.33839  Biso   1.000  H
  H572     1.0000 0.78708  0.46390  0.39540  Biso   1.000  H
  N395     1.0000 0.88172  0.53388  0.28037  Biso   1.000  N
  N396     1.0000 0.88168  0.53388  0.28037  Biso   1.000  N
  H573     1.0000 0.82499  0.49639  0.24988  Biso   1.000  H
  N397     1.0000 0.93108  0.47993  0.24675  Biso   1.000  N
  H574     1.0000 0.87629  0.44248  0.21200  Biso   1.000  H
  N398     1.0000 0.95423  0.36542  0.29422  Biso   1.000  N
  H575     1.0000 0.88739  0.34868  0.31449  Biso   1.000  H
  H576     1.0000 0.89511  0.36130  0.24472  Biso   1.000  H
  H577     1.0000 0.89507  0.36130  0.24472  Biso   1.000  H
  C519     1.0000 0.80498  0.57845  0.37594  Biso   1.000  C
  C520     1.0000 0.80015  0.53296  0.46418  Biso   1.000  C
  C521     1.0000 0.80494  0.57845  0.37594  Biso   1.000  C
  C522     1.0000 0.80011  0.53296  0.46418  Biso   1.000  C
  C523     1.0000 0.86191  0.58137  0.28721  Biso   1.000  C
  C524     1.0000 0.92657  0.52644  0.26114  Biso   1.000  C
  C525     1.0000 0.97079  0.46196  0.21168  Biso   1.000  C
  C526     1.0000 0.97076  0.46196  0.21168  Biso   1.000  C
  C527     1.0000 0.97375  0.33727  0.33748  Biso   1.000  C
  C528     1.0000 0.98756  0.37825  0.24739  Biso   1.000  C
  C529     1.0000 0.97371  0.33727  0.33748  Biso   1.000  C
  C530     1.0000 0.98753  0.37825  0.24739  Biso   1.000  C
  N399     1.0000 0.84937  0.59272  0.34920  Biso   1.000  N
  H578     1.0000 0.77820  0.58197  0.34689  Biso   1.000  H
  C531     1.0000 0.79962  0.61139  0.43147  Biso   1.000  C
  C532     1.0000 0.79958  0.61139  0.43147  Biso   1.000  C
  N400     1.0000 0.79793  0.57916  0.48219  Biso   1.000  N
  O183     1.0000 0.79733  0.49836  0.49767  Biso   1.000  O
  N401     1.0000 0.79789  0.57916  0.48219  Biso   1.000  N
  O184     1.0000 0.79729  0.49836  0.49767  Biso   1.000  O
  H579     1.0000 0.83352  0.58409  0.26151  Biso   1.000  H
  H580     1.0000 0.88520  0.60470  0.27259  Biso   1.000  H
  H581     1.0000 0.83348  0.58409  0.26151  Biso   1.000  H
  H582     1.0000 0.88517  0.60470  0.27259  Biso   1.000  H
  O185     1.0000 0.95786  0.55664  0.25675  Biso   1.000  O
  O186     1.0000 0.95782  0.55664  0.25675  Biso   1.000  O
  N402     1.0000 0.99898  0.42772  0.24458  Biso   1.000  N
  H583     1.0000 0.99119  0.48871  0.19978  Biso   1.000  H
  H584     1.0000 0.95870  0.44709  0.17431  Biso   1.000  H
  H585     1.0000 0.95867  0.44709  0.17431  Biso   1.000  H
  O187     1.0000 0.95289  0.31842  0.37984  Biso   1.000  O
  N403     1.0000 0.02082  0.33262  0.32572  Biso   1.000  N
  N404     1.0000 0.02079  0.33262  0.32572  Biso   1.000  N
  H586     1.0000 0.97770  0.36588  0.20698  Biso   1.000  H
  C533     1.0000 0.03449  0.35520  0.26911  Biso   1.000  C
  C534     1.0000 0.86967  0.62912  0.37988  Biso   1.000  C
  N405     1.0000 0.84239  0.63958  0.42934  Biso   1.000  N
  H587     1.0000 0.77062  0.63130  0.42880  Biso   1.000  H
  N406     1.0000 0.84236  0.63958  0.42934  Biso   1.000  N
  H588     1.0000 0.77059  0.63130  0.42880  Biso   1.000  H
  C535     1.0000 0.78278  0.59230  0.54206  Biso   1.000  C
  C536     1.0000 0.78274  0.59230  0.54206  Biso   1.000  C
  C537     1.0000 0.04514  0.43645  0.25906  Biso   1.000  C
  C538     1.0000 0.04510  0.43645  0.25906  Biso   1.000  C
  C539     1.0000 0.05039  0.29928  0.35730  Biso   1.000  C
  C540     1.0000 0.05035  0.29928  0.35730  Biso   1.000  C
  N407     1.0000 0.06571  0.39505  0.27599  Biso   1.000  N
  H589     1.0000 0.04679  0.33188  0.23902  Biso   1.000  H
  H590     1.0000 0.04683  0.33188  0.23902  Biso   1.000  H
  O188     1.0000 0.90610  0.64970  0.36563  Biso   1.000  O
  C541     1.0000 0.84870  0.68169  0.46559  Biso   1.000  C
  N408     1.0000 0.82027  0.61171  0.57908  Biso   1.000  N
  H591     1.0000 0.75720  0.61591  0.53871  Biso   1.000  H
  H592     1.0000 0.76960  0.56418  0.56260  Biso   1.000  H
  O189     1.0000 0.06473  0.47525  0.25648  Biso   1.000  O
  O190     1.0000 0.06469  0.47525  0.25648  Biso   1.000  O
  N409     1.0000 0.08710  0.32138  0.39314  Biso   1.000  N
  H593     1.0000 0.06518  0.27800  0.32730  Biso   1.000  H
  H594     1.0000 0.03041  0.27980  0.38418  Biso   1.000  H
  H595     1.0000 0.03037  0.27980  0.38418  Biso   1.000  H
  C542     1.0000 0.11666  0.38980  0.27961  Biso   1.000  C
  N410     1.0000 0.86625  0.67186  0.52654  Biso   1.000  N
  H596     1.0000 0.87111  0.70290  0.44477  Biso   1.000  H
  H597     1.0000 0.81812  0.69839  0.46871  Biso   1.000  H
  N411     1.0000 0.86621  0.67186  0.52654  Biso   1.000  N
  H598     1.0000 0.87108  0.70290  0.44477  Biso   1.000  H
  H599     1.0000 0.81808  0.69839  0.46871  Biso   1.000  H
  C543     1.0000 0.83662  0.58944  0.62998  Biso   1.000  C
  C544     1.0000 0.83535  0.66048  0.57632  Biso   1.000  C
  C545     1.0000 0.83531  0.66048  0.57632  Biso   1.000  C
  C546     1.0000 0.09027  0.31482  0.45459  Biso   1.000  C
  C547     1.0000 0.13231  0.33438  0.36730  Biso   1.000  C
  C548     1.0000 0.09024  0.31482  0.45459  Biso   1.000  C
  C549     1.0000 0.13227  0.33438  0.36730  Biso   1.000  C
  N412     1.0000 0.13361  0.38054  0.34038  Biso   1.000  N
  H600     1.0000 0.12649  0.36359  0.25291  Biso   1.000  H
  H601     1.0000 0.13171  0.41898  0.26440  Biso   1.000  H
  N413     1.0000 0.13365  0.38054  0.34038  Biso   1.000  N
  C550     1.0000 0.90973  0.68518  0.54541  Biso   1.000  C
  N414     1.0000 0.86639  0.61946  0.65962  Biso   1.000  N
  O191     1.0000 0.82513  0.54970  0.64713  Biso   1.000  O
  N415     1.0000 0.86635  0.61946  0.65962  Biso   1.000  N
  O192     1.0000 0.82509  0.54970  0.64713  Biso   1.000  O
  C551     1.0000 0.86769  0.66559  0.63270  Biso   1.000  C
  H602     1.0000 0.80790  0.68260  0.57831  Biso   1.000  H
  O193     1.0000 0.05849  0.29932  0.48713  Biso   1.000  O
  N416     1.0000 0.13375  0.32811  0.47346  Biso   1.000  N
  O194     1.0000 0.05845  0.29932  0.48713  Biso   1.000  O
  N417     1.0000 0.13379  0.32811  0.47346  Biso   1.000  N
  H603     1.0000 0.14418  0.30968  0.33879  Biso   1.000  H
  C552     1.0000 0.16465  0.33949  0.42368  Biso   1.000  C
  C553     1.0000 0.16469  0.33949  0.42368  Biso   1.000  C
  C554     1.0000 0.16338  0.41056  0.36997  Biso   1.000  C
  O195     1.0000 0.94151  0.70064  0.51283  Biso   1.000  O
  N418     1.0000 0.91290  0.67859  0.60681  Biso   1.000  N
  C555     1.0000 0.88334  0.61016  0.72035  Biso   1.000  C
  H604     1.0000 0.85582  0.69029  0.66121  Biso   1.000  H
  H605     1.0000 0.85578  0.69029  0.66121  Biso   1.000  H
  C556     1.0000 0.15130  0.31828  0.53437  Biso   1.000  C
  N419     1.0000 0.17973  0.38829  0.42092  Biso   1.000  N
  N420     1.0000 0.17970  0.38829  0.42092  Biso   1.000  N
  H606     1.0000 0.19210  0.31740  0.42169  Biso   1.000  H
  O196     1.0000 0.17487  0.45027  0.35287  Biso   1.000  O
  C557     1.0000 0.94961  0.70068  0.64270  Biso   1.000  C
  N421     1.0000 0.93429  0.60491  0.72397  Biso   1.000  N
  H607     1.0000 0.86829  0.58099  0.73560  Biso   1.000  H
  H608     1.0000 0.87351  0.63638  0.74709  Biso   1.000  H
  H609     1.0000 0.87347  0.63638  0.74709  Biso   1.000  H
  N422     1.0000 0.15761  0.36042  0.57066  Biso   1.000  N
  H610     1.0000 0.12889  0.29710  0.55518  Biso   1.000  H
  H611     1.0000 0.18188  0.30161  0.53129  Biso   1.000  H
  H612     1.0000 0.12892  0.29710  0.55518  Biso   1.000  H
  C558     1.0000 0.21722  0.40767  0.45789  Biso   1.000  C
  N423     1.0000 0.97918  0.66735  0.67424  Biso   1.000  N
  H613     1.0000 0.96959  0.72020  0.61577  Biso   1.000  H
  H614     1.0000 0.93482  0.72200  0.67270  Biso   1.000  H
  H615     1.0000 0.93478  0.72200  0.67270  Biso   1.000  H
  C559     1.0000 0.95486  0.56355  0.74094  Biso   1.000  C
  C560     1.0000 0.96551  0.64476  0.73089  Biso   1.000  C
  C561     1.0000 0.13033  0.37085  0.62007  Biso   1.000  C
  C562     1.0000 0.20038  0.38857  0.56849  Biso   1.000  C
  C563     1.0000 0.13030  0.37085  0.62007  Biso   1.000  C
  N424     1.0000 0.20207  0.42081  0.51781  Biso   1.000  N
  H616     1.0000 0.24280  0.38409  0.46129  Biso   1.000  H
  H617     1.0000 0.23040  0.43578  0.43740  Biso   1.000  H
  H618     1.0000 0.24277  0.38409  0.46129  Biso   1.000  H
  H619     1.0000 0.23037  0.43578  0.43740  Biso   1.000  H
  C564     1.0000 0.02625  0.66273  0.66247  Biso   1.000  C
  C565     1.0000 0.02629  0.66273  0.66247  Biso   1.000  C
  O197     1.0000 0.93527  0.52472  0.74352  Biso   1.000  O
  N425     1.0000 0.00102  0.57228  0.75542  Biso   1.000  N
  N426     1.0000 0.00099  0.57228  0.75542  Biso   1.000  N
  H620     1.0000 0.95321  0.66809  0.76098  Biso   1.000  H
  H621     1.0000 0.95317  0.66809  0.76098  Biso   1.000  H
  C566     1.0000 0.01244  0.62172  0.75261  Biso   1.000  C
  C567     1.0000 0.01247  0.62172  0.75261  Biso   1.000  C
  N427     1.0000 0.15063  0.40728  0.65080  Biso   1.000  N
  N428     1.0000 0.15059  0.40728  0.65080  Biso   1.000  N
  O198     1.0000 0.09390  0.35027  0.63437  Biso   1.000  O
  H622     1.0000 0.22938  0.36870  0.57120  Biso   1.000  H
  C568     1.0000 0.19502  0.42155  0.62401  Biso   1.000  C
  C569     1.0000 0.19985  0.46704  0.53577  Biso   1.000  C
  O199     1.0000 0.04711  0.68155  0.62016  Biso   1.000  O
  N429     1.0000 0.04577  0.63454  0.70573  Biso   1.000  N
  O200     1.0000 0.04707  0.68155  0.62016  Biso   1.000  O
  N430     1.0000 0.04573  0.63454  0.70573  Biso   1.000  N
  C570     1.0000 0.02921  0.53804  0.78827  Biso   1.000  C
  H623     1.0000 0.02230  0.63409  0.79298  Biso   1.000  H
  C571     1.0000 0.13809  0.41863  0.71279  Biso   1.000  C
  N431     1.0000 0.19379  0.46841  0.59722  Biso   1.000  N
  N432     1.0000 0.19376  0.46841  0.59722  Biso   1.000  N
  H624     1.0000 0.22180  0.41799  0.65311  Biso   1.000  H
  H625     1.0000 0.22177  0.41799  0.65311  Biso   1.000  H
  O201     1.0000 0.20267  0.50164  0.50233  Biso   1.000  O
  C572     1.0000 0.09637  0.62947  0.71347  Biso   1.000  C
  N433     1.0000 0.06892  0.52007  0.75325  Biso   1.000  N
  H626     1.0000 0.00881  0.51129  0.80017  Biso   1.000  H
  H627     1.0000 0.04130  0.55291  0.82569  Biso   1.000  H
  N434     1.0000 0.06888  0.52007  0.75325  Biso   1.000  N
  N435     1.0000 0.11828  0.46612  0.71963  Biso   1.000  N
  H628     1.0000 0.16648  0.41588  0.73849  Biso   1.000  H
  H629     1.0000 0.11480  0.39530  0.72741  Biso   1.000  H
  C573     1.0000 0.20211  0.51083  0.63220  Biso   1.000  C
  N436     1.0000 0.11293  0.58197  0.70234  Biso   1.000  N
  H630     1.0000 0.11261  0.65128  0.68551  Biso   1.000  H
  H631     1.0000 0.10489  0.63870  0.75528  Biso   1.000  H
  H632     1.0000 0.11258  0.65128  0.68551  Biso   1.000  H
  C574     1.0000 0.07343  0.47356  0.73886  Biso   1.000  C
  C575     1.0000 0.11296  0.54522  0.74791  Biso   1.000  C
  C576     1.0000 0.07339  0.47356  0.73886  Biso   1.000  C
  C577     1.0000 0.14721  0.50809  0.72293  Biso   1.000  C
  N437     1.0000 0.16081  0.52708  0.66451  Biso   1.000  N
  N438     1.0000 0.16085  0.52708  0.66451  Biso   1.000  N
  H633     1.0000 0.22769  0.50470  0.66157  Biso   1.000  H
  H634     1.0000 0.21289  0.53610  0.60460  Biso   1.000  H
  H635     1.0000 0.22772  0.50470  0.66157  Biso   1.000  H
  H636     1.0000 0.21292  0.53610  0.60460  Biso   1.000  H
  C578     1.0000 0.14207  0.57102  0.65469  Biso   1.000  C
  O202     1.0000 0.04214  0.44336  0.74325  Biso   1.000  O
  O203     1.0000 0.04218  0.44336  0.74325  Biso   1.000  O
  H637     1.0000 0.12371  0.55749  0.78800  Biso   1.000  H
  H638     1.0000 0.12367  0.55749  0.78800  Biso   1.000  H
  H639     1.0000 0.17501  0.50358  0.75008  Biso   1.000  H
  H640     1.0000 0.17498  0.50358  0.75008  Biso   1.000  H
  O204     1.0000 0.14996  0.59642  0.61111  Biso   1.000  O
  C579     1.0000 0.59635  0.12949  0.21349  Biso   1.000  C
  N439     1.0000 0.54575  0.13456  0.20576  Biso   1.000  N
  N440     1.0000 0.54575  0.13453  0.20576  Biso   1.000  N
  N441     1.0000 0.61291  0.08199  0.20236  Biso   1.000  N
  H641     1.0000 0.61259  0.15130  0.18548  Biso   1.000  H
  H642     1.0000 0.60488  0.13868  0.25531  Biso   1.000  H
  N442     1.0000 0.61291  0.08199  0.20232  Biso   1.000  N
  H643     1.0000 0.60488  0.13868  0.25526  Biso   1.000  H
  C580     1.0000 0.52627  0.16275  0.16250  Biso   1.000  C
  C581     1.0000 0.51242  0.12174  0.25259  Biso   1.000  C
  C582     1.0000 0.51242  0.12170  0.25259  Biso   1.000  C
  C583     1.0000 0.59635  0.12945  0.21349  Biso   1.000  C
  C584     1.0000 0.61298  0.04524  0.24788  Biso   1.000  C
  C585     1.0000 0.64205  0.07103  0.15471  Biso   1.000  C
  C586     1.0000 0.64205  0.07103  0.15467  Biso   1.000  C
  C587     1.0000 0.61298  0.04521  0.24788  Biso   1.000  C
  N443     1.0000 0.47919  0.16737  0.17426  Biso   1.000  N
  N444     1.0000 0.47919  0.16740  0.17426  Biso   1.000  N
  O205     1.0000 0.54709  0.18157  0.12014  Biso   1.000  O
  O206     1.0000 0.54709  0.18153  0.12014  Biso   1.000  O
  C588     1.0000 0.46552  0.14478  0.23092  Biso   1.000  C
  C589     1.0000 0.46552  0.14478  0.23087  Biso   1.000  C
  C590     1.0000 0.46552  0.14474  0.23092  Biso   1.000  C
  C591     1.0000 0.46552  0.14474  0.23087  Biso   1.000  C
  N445     1.0000 0.50100  0.07230  0.25540  Biso   1.000  N
  N446     1.0000 0.50100  0.07227  0.25540  Biso   1.000  N
  H644     1.0000 0.52229  0.13410  0.29300  Biso   1.000  H
  H645     1.0000 0.52229  0.13410  0.29295  Biso   1.000  H
  H646     1.0000 0.52229  0.13407  0.29300  Biso   1.000  H
  H647     1.0000 0.52229  0.13407  0.29295  Biso   1.000  H
  N447     1.0000 0.56890  0.02008  0.25322  Biso   1.000  N
  C592     1.0000 0.64719  0.00810  0.22295  Biso   1.000  C
  H648     1.0000 0.62369  0.05750  0.28798  Biso   1.000  H
  C593     1.0000 0.64719  0.00807  0.22295  Biso   1.000  C
  O207     1.0000 0.64994  0.09644  0.11109  Biso   1.000  O
  N448     1.0000 0.66079  0.02710  0.16453  Biso   1.000  N
  N449     1.0000 0.66079  0.02710  0.16449  Biso   1.000  N
  C594     1.0000 0.44963  0.20070  0.14268  Biso   1.000  C
  N450     1.0000 0.43427  0.10493  0.22399  Biso   1.000  N
  N451     1.0000 0.43427  0.10493  0.22395  Biso   1.000  N
  N452     1.0000 0.43427  0.10489  0.22399  Biso   1.000  N
  N453     1.0000 0.43427  0.10489  0.22395  Biso   1.000  N
  H649     1.0000 0.45319  0.16811  0.26101  Biso   1.000  H
  H650     1.0000 0.45319  0.16811  0.26096  Biso   1.000  H
  C595     1.0000 0.45488  0.06356  0.24092  Biso   1.000  C
  C596     1.0000 0.45488  0.06353  0.24092  Biso   1.000  C
  C597     1.0000 0.52923  0.03805  0.28829  Biso   1.000  C
  C598     1.0000 0.52923  0.03802  0.28829  Biso   1.000  C
  C599     1.0000 0.57341  0.97357  0.23888  Biso   1.000  C
  C600     1.0000 0.57341  0.97357  0.23883  Biso   1.000  C
  C601     1.0000 0.57341  0.97354  0.23888  Biso   1.000  C
  C602     1.0000 0.57341  0.97354  0.23883  Biso   1.000  C
  N454     1.0000 0.61830  0.96610  0.21965  Biso   1.000  N
  N455     1.0000 0.61830  0.96610  0.21960  Biso   1.000  N
  H651     1.0000 0.67499  0.00359  0.25010  Biso   1.000  H
  H652     1.0000 0.67499  0.00359  0.25006  Biso   1.000  H
  C603     1.0000 0.70212  0.01085  0.13218  Biso   1.000  C
  N456     1.0000 0.41292  0.17861  0.10684  Biso   1.000  N
  N457     1.0000 0.41292  0.17864  0.10684  Biso   1.000  N
  H653     1.0000 0.43480  0.22198  0.17268  Biso   1.000  H
  H654     1.0000 0.46957  0.22018  0.11580  Biso   1.000  H
  H655     1.0000 0.46957  0.22022  0.11580  Biso   1.000  H
  C604     1.0000 0.38332  0.11018  0.22037  Biso   1.000  C
  C605     1.0000 0.38332  0.11018  0.22033  Biso   1.000  C
  O208     1.0000 0.43526  0.02473  0.24350  Biso   1.000  O
  O209     1.0000 0.43526  0.02470  0.24350  Biso   1.000  O
  H656     1.0000 0.50879  0.01131  0.30019  Biso   1.000  H
  H657     1.0000 0.54128  0.05289  0.32572  Biso   1.000  H
  H658     1.0000 0.54128  0.05289  0.32567  Biso   1.000  H
  H659     1.0000 0.50879  0.01128  0.30019  Biso   1.000  H
  O210     1.0000 0.54212  0.94338  0.24327  Biso   1.000  O
  O211     1.0000 0.54212  0.94338  0.24322  Biso   1.000  O
  O212     1.0000 0.54212  0.94334  0.24327  Biso   1.000  O
  O213     1.0000 0.54212  0.94334  0.24322  Biso   1.000  O
  C606     1.0000 0.63807  0.91864  0.21282  Biso   1.000  C
  C607     1.0000 0.63807  0.91864  0.21277  Biso   1.000  C
  C608     1.0000 0.63807  0.91861  0.21282  Biso   1.000  C
  C609     1.0000 0.63807  0.91861  0.21277  Biso   1.000  C
  H660     1.0000 0.72767  0.00469  0.16159  Biso   1.000  H
  H661     1.0000 0.71287  0.03612  0.10462  Biso   1.000  H
  H662     1.0000 0.71287  0.03612  0.10457  Biso   1.000  H
  H663     1.0000 0.71287  0.03608  0.10462  Biso   1.000  H
  H664     1.0000 0.71287  0.03608  0.10457  Biso   1.000  H
  N458     1.0000 0.69377  0.96843  0.09724  Biso   1.000  N
  N459     1.0000 0.69377  0.96843  0.09720  Biso   1.000  N
  N460     1.0000 0.69377  0.96839  0.09724  Biso   1.000  N
  N461     1.0000 0.69377  0.96839  0.09720  Biso   1.000  N
  C610     1.0000 0.36771  0.16560  0.13268  Biso   1.000  C
  C611     1.0000 0.40975  0.18519  0.04539  Biso   1.000  C
  C612     1.0000 0.36771  0.16557  0.13268  Biso   1.000  C
  N462     1.0000 0.36637  0.11948  0.15960  Biso   1.000  N
  N463     1.0000 0.36637  0.11945  0.15960  Biso   1.000  N
  H665     1.0000 0.37349  0.13639  0.24712  Biso   1.000  H
  H666     1.0000 0.36831  0.08100  0.23558  Biso   1.000  H
  H667     1.0000 0.37349  0.13639  0.24707  Biso   1.000  H
  H668     1.0000 0.37349  0.13643  0.24712  Biso   1.000  H
  H669     1.0000 0.36831  0.08097  0.23558  Biso   1.000  H
  H670     1.0000 0.37349  0.13643  0.24707  Biso   1.000  H
  N464     1.0000 0.65061  0.90723  0.15078  Biso   1.000  N
  H671     1.0000 0.66650  0.91589  0.23852  Biso   1.000  H
  H672     1.0000 0.61478  0.89532  0.22739  Biso   1.000  H
  H673     1.0000 0.66650  0.91589  0.23847  Biso   1.000  H
  N465     1.0000 0.65061  0.90726  0.15078  Biso   1.000  N
  H674     1.0000 0.61478  0.89528  0.22739  Biso   1.000  H
  C613     1.0000 0.69501  0.92153  0.12403  Biso   1.000  C
  C614     1.0000 0.69983  0.96702  0.03579  Biso   1.000  C
  H675     1.0000 0.35580  0.19030  0.16118  Biso   1.000  H
  C615     1.0000 0.33533  0.16049  0.07634  Biso   1.000  C
  C616     1.0000 0.33533  0.16049  0.07629  Biso   1.000  C
  H676     1.0000 0.35580  0.19027  0.16118  Biso   1.000  H
  C617     1.0000 0.33533  0.16053  0.07634  Biso   1.000  C
  C618     1.0000 0.33533  0.16053  0.07629  Biso   1.000  C
  N466     1.0000 0.36623  0.17188  0.02656  Biso   1.000  N
  N467     1.0000 0.36623  0.17188  0.02652  Biso   1.000  N
  O214     1.0000 0.44149  0.20066  0.01285  Biso   1.000  O
  C619     1.0000 0.33660  0.08946  0.13001  Biso   1.000  C
  C620     1.0000 0.33660  0.08946  0.12996  Biso   1.000  C
  C621     1.0000 0.63032  0.87086  0.12010  Biso   1.000  C
  C622     1.0000 0.63032  0.87083  0.12010  Biso   1.000  C
  C623     1.0000 0.70040  0.88859  0.06851  Biso   1.000  C
  H677     1.0000 0.72179  0.91801  0.15308  Biso   1.000  H
  H678     1.0000 0.72179  0.91797  0.15308  Biso   1.000  H
  O215     1.0000 0.70269  0.00162  0.00231  Biso   1.000  O
  N468     1.0000 0.70209  0.92083  0.01783  Biso   1.000  N
  N469     1.0000 0.70209  0.92083  0.01778  Biso   1.000  N
  N470     1.0000 0.70209  0.92079  0.01783  Biso   1.000  N
  N471     1.0000 0.70209  0.92079  0.01778  Biso   1.000  N
  N472     1.0000 0.32028  0.11169  0.07910  Biso   1.000  N
  H679     1.0000 0.30788  0.18259  0.07828  Biso   1.000  H
  N473     1.0000 0.32028  0.11169  0.07905  Biso   1.000  N
  H680     1.0000 0.30788  0.18262  0.07828  Biso   1.000  H
  C624     1.0000 0.34868  0.18171  0.96561  Biso   1.000  C
  C625     1.0000 0.34868  0.18171  0.96556  Biso   1.000  C
  O216     1.0000 0.32511  0.04972  0.14716  Biso   1.000  O
  O217     1.0000 0.32511  0.04972  0.14711  Biso   1.000  O
  O218     1.0000 0.59388  0.85029  0.13435  Biso   1.000  O
  N474     1.0000 0.65759  0.86043  0.07064  Biso   1.000  N
  N475     1.0000 0.65759  0.86040  0.07064  Biso   1.000  N
  H681     1.0000 0.72940  0.86871  0.07118  Biso   1.000  H
  H682     1.0000 0.72940  0.86868  0.07118  Biso   1.000  H
  C626     1.0000 0.71724  0.90768  0.95792  Biso   1.000  C
  C627     1.0000 0.28276  0.09232  0.04208  Biso   1.000  C
  C628     1.0000 0.28276  0.09228  0.04208  Biso   1.000  C
  N476     1.0000 0.34238  0.13957  0.92936  Biso   1.000  N
  H683     1.0000 0.37109  0.20288  0.94479  Biso   1.000  H
  H684     1.0000 0.31810  0.19841  0.96869  Biso   1.000  H
  N477     1.0000 0.34238  0.13957  0.92932  Biso   1.000  N
  H685     1.0000 0.37109  0.20292  0.94479  Biso   1.000  H
  C629     1.0000 0.65128  0.81829  0.03439  Biso   1.000  C
  C630     1.0000 0.65128  0.81826  0.03439  Biso   1.000  C
  N478     1.0000 0.67972  0.88831  0.92090  Biso   1.000  N
  H686     1.0000 0.74279  0.88411  0.96131  Biso   1.000  H
  H687     1.0000 0.73038  0.93580  0.93742  Biso   1.000  H
  H688     1.0000 0.74279  0.88411  0.96127  Biso   1.000  H
  H689     1.0000 0.73038  0.93580  0.93737  Biso   1.000  H
  N479     1.0000 0.67972  0.88827  0.92090  Biso   1.000  N
  H690     1.0000 0.74279  0.88408  0.96131  Biso   1.000  H
  H691     1.0000 0.73038  0.93577  0.93742  Biso   1.000  H
  H692     1.0000 0.74279  0.88408  0.96127  Biso   1.000  H
  H693     1.0000 0.73038  0.93577  0.93737  Biso   1.000  H
  H694     1.0000 0.25718  0.11589  0.03869  Biso   1.000  H
  H695     1.0000 0.26958  0.06420  0.06258  Biso   1.000  H
  H696     1.0000 0.25718  0.11592  0.03869  Biso   1.000  H
  N480     1.0000 0.29791  0.07917  0.98217  Biso   1.000  N
  N481     1.0000 0.29791  0.07921  0.98217  Biso   1.000  N
  C631     1.0000 0.36968  0.12914  0.87990  Biso   1.000  C
  C632     1.0000 0.29960  0.11141  0.93149  Biso   1.000  C
  C633     1.0000 0.29960  0.11141  0.93144  Biso   1.000  C
  C634     1.0000 0.36968  0.12917  0.87990  Biso   1.000  C
  N482     1.0000 0.63377  0.82812  0.97344  Biso   1.000  N
  H697     1.0000 0.62887  0.79712  0.05521  Biso   1.000  H
  H698     1.0000 0.68190  0.80159  0.03131  Biso   1.000  H
  H699     1.0000 0.62887  0.79712  0.05516  Biso   1.000  H
  H700     1.0000 0.68190  0.80159  0.03127  Biso   1.000  H
  H701     1.0000 0.62887  0.79708  0.05521  Biso   1.000  H
  H702     1.0000 0.62887  0.79708  0.05516  Biso   1.000  H
  C635     1.0000 0.66467  0.83951  0.92366  Biso   1.000  C
  C636     1.0000 0.66337  0.91054  0.86999  Biso   1.000  C
  C637     1.0000 0.66467  0.83947  0.92366  Biso   1.000  C
  C638     1.0000 0.30013  0.03298  0.96421  Biso   1.000  C
  C639     1.0000 0.30013  0.03298  0.96416  Biso   1.000  C
  C640     1.0000 0.30013  0.03294  0.96421  Biso   1.000  C
  C641     1.0000 0.30013  0.03294  0.96416  Biso   1.000  C
  N483     1.0000 0.34939  0.09274  0.84922  Biso   1.000  N
  O219     1.0000 0.40608  0.14971  0.86565  Biso   1.000  O
  N484     1.0000 0.34939  0.09274  0.84918  Biso   1.000  N
  O220     1.0000 0.40608  0.14971  0.86560  Biso   1.000  O
  O221     1.0000 0.40608  0.14968  0.86565  Biso   1.000  O
  O222     1.0000 0.40608  0.14968  0.86560  Biso   1.000  O
  H703     1.0000 0.27060  0.13129  0.92882  Biso   1.000  H
  C642     1.0000 0.30496  0.07847  0.87597  Biso   1.000  C
  H704     1.0000 0.27060  0.13129  0.92878  Biso   1.000  H
  C643     1.0000 0.30496  0.07847  0.87592  Biso   1.000  C
  H705     1.0000 0.27060  0.13132  0.92882  Biso   1.000  H
  C644     1.0000 0.30496  0.07843  0.87597  Biso   1.000  C
  H706     1.0000 0.27060  0.13132  0.92878  Biso   1.000  H
  C645     1.0000 0.30496  0.07843  0.87592  Biso   1.000  C
  C646     1.0000 0.59025  0.81481  0.95461  Biso   1.000  C
  C647     1.0000 0.59025  0.81481  0.95457  Biso   1.000  C
  C648     1.0000 0.63229  0.83440  0.86732  Biso   1.000  C
  H707     1.0000 0.69208  0.81741  0.92172  Biso   1.000  H
  C649     1.0000 0.63229  0.83440  0.86728  Biso   1.000  C
  H708     1.0000 0.69208  0.81741  0.92167  Biso   1.000  H
  H709     1.0000 0.69208  0.81738  0.92172  Biso   1.000  H
  H710     1.0000 0.69208  0.81738  0.92167  Biso   1.000  H
  N485     1.0000 0.63363  0.88052  0.84040  Biso   1.000  N
  N486     1.0000 0.63363  0.88052  0.84035  Biso   1.000  N
  O223     1.0000 0.67485  0.95028  0.85284  Biso   1.000  O
  O224     1.0000 0.67485  0.95025  0.85284  Biso   1.000  O
  O225     1.0000 0.29731  0.99838  0.99769  Biso   1.000  O
  O226     1.0000 0.29731  0.99838  0.99765  Biso   1.000  O
  O227     1.0000 0.29731  0.99834  0.99769  Biso   1.000  O
  O228     1.0000 0.29731  0.99834  0.99765  Biso   1.000  O
  N487     1.0000 0.30619  0.03157  0.90276  Biso   1.000  N
  C650     1.0000 0.36190  0.08136  0.78718  Biso   1.000  C
  C651     1.0000 0.36190  0.08139  0.78718  Biso   1.000  C
  H711     1.0000 0.27818  0.08199  0.84692  Biso   1.000  H
  H712     1.0000 0.27818  0.08199  0.84687  Biso   1.000  H
  N488     1.0000 0.58708  0.82139  0.89316  Biso   1.000  N
  N489     1.0000 0.58708  0.82136  0.89316  Biso   1.000  N
  O229     1.0000 0.55847  0.79934  0.98715  Biso   1.000  O
  H713     1.0000 0.64420  0.80970  0.83882  Biso   1.000  H
  H714     1.0000 0.64420  0.80970  0.83877  Biso   1.000  H
  C652     1.0000 0.61664  0.88982  0.77963  Biso   1.000  C
  C653     1.0000 0.29788  0.98915  0.86782  Biso   1.000  C
  C654     1.0000 0.29788  0.98915  0.86778  Biso   1.000  C
  N490     1.0000 0.38170  0.03390  0.78035  Biso   1.000  N
  H715     1.0000 0.33350  0.08411  0.76148  Biso   1.000  H
  H716     1.0000 0.38519  0.10468  0.77261  Biso   1.000  H
  H717     1.0000 0.38519  0.10468  0.77257  Biso   1.000  H
  N491     1.0000 0.38170  0.03386  0.78035  Biso   1.000  N
  H718     1.0000 0.33350  0.08407  0.76148  Biso   1.000  H
  C655     1.0000 0.55037  0.79930  0.85732  Biso   1.000  C
  C656     1.0000 0.55037  0.79930  0.85728  Biso   1.000  C
  N492     1.0000 0.56570  0.89507  0.77601  Biso   1.000  N
  H719     1.0000 0.62648  0.86361  0.75288  Biso   1.000  H
  H720     1.0000 0.63169  0.91900  0.76442  Biso   1.000  H
  H721     1.0000 0.63169  0.91900  0.76438  Biso   1.000  H
  H722     1.0000 0.62648  0.86357  0.75288  Biso   1.000  H
  N493     1.0000 0.33917  0.97290  0.83547  Biso   1.000  N
  H723     1.0000 0.27229  0.99531  0.83841  Biso   1.000  H
  H724     1.0000 0.28709  0.96388  0.89538  Biso   1.000  H
  H725     1.0000 0.27229  0.99531  0.83836  Biso   1.000  H
  N494     1.0000 0.33917  0.97287  0.83547  Biso   1.000  N
  H726     1.0000 0.27229  0.99528  0.83841  Biso   1.000  H
  H727     1.0000 0.27229  0.99528  0.83836  Biso   1.000  H
  C657     1.0000 0.35277  0.99190  0.77705  Biso   1.000  C
  C658     1.0000 0.35277  0.99190  0.77700  Biso   1.000  C
  C659     1.0000 0.42655  0.02643  0.76112  Biso   1.000  C
  N495     1.0000 0.52081  0.83263  0.82574  Biso   1.000  N
  N496     1.0000 0.52081  0.83260  0.82574  Biso   1.000  N
  H728     1.0000 0.56520  0.77802  0.82732  Biso   1.000  H
  H729     1.0000 0.53039  0.77982  0.88420  Biso   1.000  H
  H730     1.0000 0.56520  0.77802  0.82728  Biso   1.000  H
  H731     1.0000 0.56520  0.77799  0.82732  Biso   1.000  H
  H732     1.0000 0.53039  0.77978  0.88420  Biso   1.000  H
  H733     1.0000 0.56520  0.77799  0.82728  Biso   1.000  H
  C660     1.0000 0.54512  0.93644  0.75908  Biso   1.000  C
  C661     1.0000 0.54512  0.93644  0.75904  Biso   1.000  C
  C662     1.0000 0.53448  0.85522  0.76908  Biso   1.000  C
  C663     1.0000 0.35792  0.92897  0.84529  Biso   1.000  C
  C664     1.0000 0.35792  0.92893  0.84529  Biso   1.000  C
  H734     1.0000 0.32501  0.99641  0.74990  Biso   1.000  H
  C665     1.0000 0.38702  0.95476  0.75212  Biso   1.000  C
  C666     1.0000 0.38702  0.95476  0.75207  Biso   1.000  C
  H735     1.0000 0.32501  0.99637  0.74990  Biso   1.000  H
  N497     1.0000 0.43110  0.97992  0.74678  Biso   1.000  N
  N498     1.0000 0.43110  0.97992  0.74673  Biso   1.000  N
  O230     1.0000 0.45784  0.05662  0.75673  Biso   1.000  O
  C667     1.0000 0.47373  0.83725  0.83750  Biso   1.000  C
  N499     1.0000 0.49900  0.92770  0.74460  Biso   1.000  N
  N500     1.0000 0.49900  0.92770  0.74456  Biso   1.000  N
  O231     1.0000 0.56471  0.97527  0.75650  Biso   1.000  O
  O232     1.0000 0.56471  0.97527  0.75646  Biso   1.000  O
  C668     1.0000 0.48754  0.87826  0.74741  Biso   1.000  C
  C669     1.0000 0.48754  0.87826  0.74736  Biso   1.000  C
  H736     1.0000 0.54677  0.83189  0.73899  Biso   1.000  H
  N501     1.0000 0.38705  0.91801  0.79764  Biso   1.000  N
  O233     1.0000 0.35002  0.90356  0.88891  Biso   1.000  O
  O234     1.0000 0.35002  0.90356  0.88886  Biso   1.000  O
  N502     1.0000 0.38705  0.91797  0.79764  Biso   1.000  N
  O235     1.0000 0.35002  0.90353  0.88891  Biso   1.000  O
  O236     1.0000 0.35002  0.90353  0.88886  Biso   1.000  O
  H737     1.0000 0.37631  0.94250  0.71202  Biso   1.000  H
  H738     1.0000 0.37631  0.94250  0.71198  Biso   1.000  H
  C670     1.0000 0.47077  0.96195  0.71171  Biso   1.000  C
  N503     1.0000 0.45425  0.86544  0.79424  Biso   1.000  N
  O237     1.0000 0.45291  0.81843  0.87986  Biso   1.000  O
  O238     1.0000 0.45291  0.81843  0.87981  Biso   1.000  O
  H739     1.0000 0.47768  0.86590  0.70700  Biso   1.000  H
  C671     1.0000 0.40362  0.87051  0.78651  Biso   1.000  C
  H740     1.0000 0.49121  0.98869  0.69981  Biso   1.000  H
  H741     1.0000 0.45869  0.94711  0.67428  Biso   1.000  H
  H742     1.0000 0.45869  0.94708  0.67428  Biso   1.000  H
  H743     1.0000 0.38741  0.84870  0.81452  Biso   1.000  H
  H744     1.0000 0.39509  0.86132  0.74469  Biso   1.000  H
  H745     1.0000 0.38741  0.84870  0.81447  Biso   1.000  H
  H746     1.0000 0.39509  0.86128  0.74469  Biso   1.000  H
  C672     1.0000 0.59635  0.12949  0.21349  Biso   1.000  C
  N504     1.0000 0.54575  0.13456  0.20576  Biso   1.000  N
  N505     1.0000 0.54575  0.13453  0.20576  Biso   1.000  N
  H747     1.0000 0.61259  0.15130  0.18548  Biso   1.000  H
  N506     1.0000 0.61291  0.08199  0.20236  Biso   1.000  N
  H748     1.0000 0.60488  0.13868  0.25531  Biso   1.000  H
  N507     1.0000 0.61291  0.08199  0.20232  Biso   1.000  N
  H749     1.0000 0.60488  0.13868  0.25526  Biso   1.000  H
  C673     1.0000 0.52627  0.16275  0.16250  Biso   1.000  C
  C674     1.0000 0.51242  0.12174  0.25259  Biso   1.000  C
  C675     1.0000 0.51242  0.12170  0.25259  Biso   1.000  C
  C676     1.0000 0.59635  0.12945  0.21349  Biso   1.000  C
  C677     1.0000 0.61298  0.04524  0.24788  Biso   1.000  C
  C678     1.0000 0.64205  0.07103  0.15471  Biso   1.000  C
  C679     1.0000 0.61298  0.04521  0.24788  Biso   1.000  C
  C680     1.0000 0.64205  0.07103  0.15467  Biso   1.000  C
  N508     1.0000 0.47919  0.16737  0.17426  Biso   1.000  N
  N509     1.0000 0.47919  0.16740  0.17426  Biso   1.000  N
  O239     1.0000 0.54709  0.18157  0.12014  Biso   1.000  O
  O240     1.0000 0.54709  0.18153  0.12014  Biso   1.000  O
  C681     1.0000 0.46552  0.14478  0.23092  Biso   1.000  C
  C682     1.0000 0.46552  0.14478  0.23087  Biso   1.000  C
  C683     1.0000 0.46552  0.14474  0.23092  Biso   1.000  C
  C684     1.0000 0.46552  0.14474  0.23087  Biso   1.000  C
  N510     1.0000 0.50100  0.07230  0.25540  Biso   1.000  N
  N511     1.0000 0.50100  0.07227  0.25540  Biso   1.000  N
  H750     1.0000 0.52229  0.13410  0.29300  Biso   1.000  H
  H751     1.0000 0.52229  0.13410  0.29295  Biso   1.000  H
  H752     1.0000 0.52229  0.13407  0.29300  Biso   1.000  H
  H753     1.0000 0.52229  0.13407  0.29295  Biso   1.000  H
  N512     1.0000 0.56890  0.02008  0.25322  Biso   1.000  N
  C685     1.0000 0.64719  0.00810  0.22295  Biso   1.000  C
  H754     1.0000 0.62369  0.05750  0.28798  Biso   1.000  H
  C686     1.0000 0.64719  0.00807  0.22295  Biso   1.000  C
  O241     1.0000 0.64994  0.09644  0.11109  Biso   1.000  O
  N513     1.0000 0.66079  0.02710  0.16453  Biso   1.000  N
  N514     1.0000 0.66079  0.02710  0.16449  Biso   1.000  N
  C687     1.0000 0.44963  0.20070  0.14268  Biso   1.000  C
  N515     1.0000 0.43427  0.10493  0.22399  Biso   1.000  N
  N516     1.0000 0.43427  0.10493  0.22395  Biso   1.000  N
  N517     1.0000 0.43427  0.10489  0.22399  Biso   1.000  N
  N518     1.0000 0.43427  0.10489  0.22395  Biso   1.000  N
  H755     1.0000 0.45319  0.16811  0.26101  Biso   1.000  H
  H756     1.0000 0.45319  0.16811  0.26096  Biso   1.000  H
  C688     1.0000 0.45488  0.06356  0.24092  Biso   1.000  C
  C689     1.0000 0.45488  0.06353  0.24092  Biso   1.000  C
  C690     1.0000 0.52923  0.03805  0.28829  Biso   1.000  C
  C691     1.0000 0.52923  0.03802  0.28829  Biso   1.000  C
  C692     1.0000 0.57341  0.97357  0.23888  Biso   1.000  C
  C693     1.0000 0.57341  0.97357  0.23883  Biso   1.000  C
  C694     1.0000 0.57341  0.97354  0.23888  Biso   1.000  C
  C695     1.0000 0.57341  0.97354  0.23883  Biso   1.000  C
  N519     1.0000 0.61830  0.96610  0.21965  Biso   1.000  N
  N520     1.0000 0.61830  0.96610  0.21960  Biso   1.000  N
  H757     1.0000 0.67499  0.00359  0.25010  Biso   1.000  H
  H758     1.0000 0.67499  0.00359  0.25006  Biso   1.000  H
  C696     1.0000 0.70212  0.01085  0.13218  Biso   1.000  C
  N521     1.0000 0.41292  0.17861  0.10684  Biso   1.000  N
  N522     1.0000 0.41292  0.17864  0.10684  Biso   1.000  N
  H759     1.0000 0.43480  0.22198  0.17268  Biso   1.000  H
  H760     1.0000 0.46957  0.22018  0.11580  Biso   1.000  H
  H761     1.0000 0.46957  0.22022  0.11580  Biso   1.000  H
  C697     1.0000 0.38332  0.11018  0.22037  Biso   1.000  C
  C698     1.0000 0.38332  0.11018  0.22033  Biso   1.000  C
  O242     1.0000 0.43526  0.02473  0.24350  Biso   1.000  O
  O243     1.0000 0.43526  0.02470  0.24350  Biso   1.000  O
  H762     1.0000 0.50879  0.01131  0.30019  Biso   1.000  H
  H763     1.0000 0.54128  0.05289  0.32572  Biso   1.000  H
  H764     1.0000 0.50879  0.01128  0.30019  Biso   1.000  H
  H765     1.0000 0.54128  0.05289  0.32567  Biso   1.000  H
  O244     1.0000 0.54212  0.94338  0.24327  Biso   1.000  O
  O245     1.0000 0.54212  0.94338  0.24322  Biso   1.000  O
  O246     1.0000 0.54212  0.94334  0.24327  Biso   1.000  O
  O247     1.0000 0.54212  0.94334  0.24322  Biso   1.000  O
  C699     1.0000 0.63807  0.91864  0.21282  Biso   1.000  C
  C700     1.0000 0.63807  0.91864  0.21277  Biso   1.000  C
  C701     1.0000 0.63807  0.91861  0.21282  Biso   1.000  C
  C702     1.0000 0.63807  0.91861  0.21277  Biso   1.000  C
  H766     1.0000 0.72767  0.00469  0.16159  Biso   1.000  H
  N523     1.0000 0.69377  0.96843  0.09724  Biso   1.000  N
  N524     1.0000 0.69377  0.96843  0.09720  Biso   1.000  N
  N525     1.0000 0.69377  0.96839  0.09724  Biso   1.000  N
  N526     1.0000 0.69377  0.96839  0.09720  Biso   1.000  N
  H767     1.0000 0.71287  0.03612  0.10462  Biso   1.000  H
  H768     1.0000 0.71287  0.03612  0.10457  Biso   1.000  H
  H769     1.0000 0.71287  0.03608  0.10462  Biso   1.000  H
  H770     1.0000 0.71287  0.03608  0.10457  Biso   1.000  H
  C703     1.0000 0.36771  0.16560  0.13268  Biso   1.000  C
  C704     1.0000 0.40975  0.18519  0.04539  Biso   1.000  C
  C705     1.0000 0.36771  0.16557  0.13268  Biso   1.000  C
  N527     1.0000 0.36637  0.11948  0.15960  Biso   1.000  N
  N528     1.0000 0.36637  0.11945  0.15960  Biso   1.000  N
  H771     1.0000 0.36831  0.08100  0.23558  Biso   1.000  H
  H772     1.0000 0.36831  0.08097  0.23558  Biso   1.000  H
  H773     1.0000 0.37349  0.13639  0.24712  Biso   1.000  H
  H774     1.0000 0.37349  0.13639  0.24707  Biso   1.000  H
  H775     1.0000 0.37349  0.13643  0.24712  Biso   1.000  H
  H776     1.0000 0.37349  0.13643  0.24707  Biso   1.000  H
  N529     1.0000 0.65061  0.90723  0.15078  Biso   1.000  N
  H777     1.0000 0.66650  0.91589  0.23852  Biso   1.000  H
  H778     1.0000 0.61478  0.89532  0.22739  Biso   1.000  H
  H779     1.0000 0.66650  0.91589  0.23847  Biso   1.000  H
  N530     1.0000 0.65061  0.90726  0.15078  Biso   1.000  N
  H780     1.0000 0.61478  0.89528  0.22739  Biso   1.000  H
  C706     1.0000 0.69501  0.92153  0.12403  Biso   1.000  C
  C707     1.0000 0.69983  0.96702  0.03579  Biso   1.000  C
  H781     1.0000 0.35580  0.19030  0.16118  Biso   1.000  H
  H782     1.0000 0.35580  0.19027  0.16118  Biso   1.000  H
  C708     1.0000 0.33533  0.16049  0.07634  Biso   1.000  C
  C709     1.0000 0.33533  0.16049  0.07629  Biso   1.000  C
  C710     1.0000 0.33533  0.16053  0.07634  Biso   1.000  C
  C711     1.0000 0.33533  0.16053  0.07629  Biso   1.000  C
  N531     1.0000 0.36623  0.17188  0.02656  Biso   1.000  N
  N532     1.0000 0.36623  0.17188  0.02652  Biso   1.000  N
  O248     1.0000 0.44149  0.20066  0.01285  Biso   1.000  O
  C712     1.0000 0.33660  0.08946  0.13001  Biso   1.000  C
  C713     1.0000 0.33660  0.08946  0.12996  Biso   1.000  C
  C714     1.0000 0.63032  0.87086  0.12010  Biso   1.000  C
  C715     1.0000 0.63032  0.87083  0.12010  Biso   1.000  C
  C716     1.0000 0.70040  0.88859  0.06851  Biso   1.000  C
  H783     1.0000 0.72179  0.91801  0.15308  Biso   1.000  H
  H784     1.0000 0.72179  0.91797  0.15308  Biso   1.000  H
  O249     1.0000 0.70269  0.00162  0.00231  Biso   1.000  O
  N533     1.0000 0.70209  0.92083  0.01783  Biso   1.000  N
  N534     1.0000 0.70209  0.92083  0.01778  Biso   1.000  N
  N535     1.0000 0.70209  0.92079  0.01783  Biso   1.000  N
  N536     1.0000 0.70209  0.92079  0.01778  Biso   1.000  N
  H785     1.0000 0.30788  0.18259  0.07828  Biso   1.000  H
  N537     1.0000 0.32028  0.11169  0.07910  Biso   1.000  N
  N538     1.0000 0.32028  0.11169  0.07905  Biso   1.000  N
  H786     1.0000 0.30788  0.18262  0.07828  Biso   1.000  H
  C717     1.0000 0.34868  0.18171  0.96561  Biso   1.000  C
  C718     1.0000 0.34868  0.18171  0.96556  Biso   1.000  C
  O250     1.0000 0.32511  0.04972  0.14716  Biso   1.000  O
  O251     1.0000 0.32511  0.04972  0.14711  Biso   1.000  O
  O252     1.0000 0.59388  0.85029  0.13435  Biso   1.000  O
  N539     1.0000 0.65759  0.86043  0.07064  Biso   1.000  N
  N540     1.0000 0.65759  0.86040  0.07064  Biso   1.000  N
  H787     1.0000 0.72940  0.86871  0.07118  Biso   1.000  H
  H788     1.0000 0.72940  0.86868  0.07118  Biso   1.000  H
  C719     1.0000 0.71724  0.90768  0.95792  Biso   1.000  C
  C720     1.0000 0.28276  0.09232  0.04208  Biso   1.000  C
  C721     1.0000 0.28276  0.09228  0.04208  Biso   1.000  C
  N541     1.0000 0.34238  0.13957  0.92936  Biso   1.000  N
  H789     1.0000 0.37109  0.20288  0.94479  Biso   1.000  H
  H790     1.0000 0.31810  0.19841  0.96869  Biso   1.000  H
  N542     1.0000 0.34238  0.13957  0.92932  Biso   1.000  N
  H791     1.0000 0.37109  0.20292  0.94479  Biso   1.000  H
  C722     1.0000 0.65128  0.81829  0.03439  Biso   1.000  C
  C723     1.0000 0.65128  0.81826  0.03439  Biso   1.000  C
  N543     1.0000 0.67972  0.88831  0.92090  Biso   1.000  N
  H792     1.0000 0.74279  0.88411  0.96131  Biso   1.000  H
  H793     1.0000 0.73038  0.93580  0.93742  Biso   1.000  H
  H794     1.0000 0.74279  0.88411  0.96127  Biso   1.000  H
  H795     1.0000 0.73038  0.93580  0.93737  Biso   1.000  H
  N544     1.0000 0.67972  0.88827  0.92090  Biso   1.000  N
  H796     1.0000 0.74279  0.88408  0.96131  Biso   1.000  H
  H797     1.0000 0.73038  0.93577  0.93742  Biso   1.000  H
  H798     1.0000 0.74279  0.88408  0.96127  Biso   1.000  H
  H799     1.0000 0.73038  0.93577  0.93737  Biso   1.000  H
  H800     1.0000 0.25718  0.11589  0.03869  Biso   1.000  H
  H801     1.0000 0.26958  0.06420  0.06258  Biso   1.000  H
  H802     1.0000 0.25718  0.11592  0.03869  Biso   1.000  H
  N545     1.0000 0.29791  0.07917  0.98217  Biso   1.000  N
  N546     1.0000 0.29791  0.07921  0.98217  Biso   1.000  N
  C724     1.0000 0.36968  0.12914  0.87990  Biso   1.000  C
  C725     1.0000 0.29960  0.11141  0.93149  Biso   1.000  C
  C726     1.0000 0.29960  0.11141  0.93144  Biso   1.000  C
  C727     1.0000 0.36968  0.12917  0.87990  Biso   1.000  C
  N547     1.0000 0.63377  0.82812  0.97344  Biso   1.000  N
  H803     1.0000 0.62887  0.79712  0.05521  Biso   1.000  H
  H804     1.0000 0.68190  0.80159  0.03131  Biso   1.000  H
  H805     1.0000 0.62887  0.79712  0.05516  Biso   1.000  H
  H806     1.0000 0.68190  0.80159  0.03127  Biso   1.000  H
  H807     1.0000 0.62887  0.79708  0.05521  Biso   1.000  H
  H808     1.0000 0.62887  0.79708  0.05516  Biso   1.000  H
  C728     1.0000 0.66467  0.83951  0.92366  Biso   1.000  C
  C729     1.0000 0.66337  0.91054  0.86999  Biso   1.000  C
  C730     1.0000 0.66467  0.83947  0.92366  Biso   1.000  C
  C731     1.0000 0.30013  0.03298  0.96421  Biso   1.000  C
  C732     1.0000 0.30013  0.03298  0.96416  Biso   1.000  C
  C733     1.0000 0.30013  0.03294  0.96421  Biso   1.000  C
  C734     1.0000 0.30013  0.03294  0.96416  Biso   1.000  C
  N548     1.0000 0.34939  0.09274  0.84922  Biso   1.000  N
  O253     1.0000 0.40608  0.14971  0.86565  Biso   1.000  O
  N549     1.0000 0.34939  0.09274  0.84918  Biso   1.000  N
  O254     1.0000 0.40608  0.14971  0.86560  Biso   1.000  O
  O255     1.0000 0.40608  0.14968  0.86565  Biso   1.000  O
  O256     1.0000 0.40608  0.14968  0.86560  Biso   1.000  O
  H809     1.0000 0.27060  0.13129  0.92882  Biso   1.000  H
  C735     1.0000 0.30496  0.07847  0.87597  Biso   1.000  C
  H810     1.0000 0.27060  0.13129  0.92878  Biso   1.000  H
  C736     1.0000 0.30496  0.07847  0.87592  Biso   1.000  C
  H811     1.0000 0.27060  0.13132  0.92882  Biso   1.000  H
  C737     1.0000 0.30496  0.07843  0.87597  Biso   1.000  C
  H812     1.0000 0.27060  0.13132  0.92878  Biso   1.000  H
  C738     1.0000 0.30496  0.07843  0.87592  Biso   1.000  C
  C739     1.0000 0.59025  0.81481  0.95461  Biso   1.000  C
  C740     1.0000 0.59025  0.81481  0.95457  Biso   1.000  C
  C741     1.0000 0.63229  0.83440  0.86732  Biso   1.000  C
  H813     1.0000 0.69208  0.81741  0.92172  Biso   1.000  H
  C742     1.0000 0.63229  0.83440  0.86728  Biso   1.000  C
  H814     1.0000 0.69208  0.81741  0.92167  Biso   1.000  H
  H815     1.0000 0.69208  0.81738  0.92172  Biso   1.000  H
  H816     1.0000 0.69208  0.81738  0.92167  Biso   1.000  H
  N550     1.0000 0.63363  0.88052  0.84040  Biso   1.000  N
  N551     1.0000 0.63363  0.88052  0.84035  Biso   1.000  N
  O257     1.0000 0.67485  0.95028  0.85284  Biso   1.000  O
  O258     1.0000 0.67485  0.95025  0.85284  Biso   1.000  O
  O259     1.0000 0.29731  0.99838  0.99769  Biso   1.000  O
  O260     1.0000 0.29731  0.99838  0.99765  Biso   1.000  O
  O261     1.0000 0.29731  0.99834  0.99769  Biso   1.000  O
  O262     1.0000 0.29731  0.99834  0.99765  Biso   1.000  O
  N552     1.0000 0.30619  0.03157  0.90276  Biso   1.000  N
  C743     1.0000 0.36190  0.08136  0.78718  Biso   1.000  C
  C744     1.0000 0.36190  0.08139  0.78718  Biso   1.000  C
  H817     1.0000 0.27818  0.08199  0.84692  Biso   1.000  H
  H818     1.0000 0.27818  0.08199  0.84687  Biso   1.000  H
  N553     1.0000 0.58708  0.82139  0.89316  Biso   1.000  N
  N554     1.0000 0.58708  0.82136  0.89316  Biso   1.000  N
  O263     1.0000 0.55847  0.79934  0.98715  Biso   1.000  O
  H819     1.0000 0.64420  0.80970  0.83882  Biso   1.000  H
  H820     1.0000 0.64420  0.80970  0.83877  Biso   1.000  H
  C745     1.0000 0.61664  0.88982  0.77963  Biso   1.000  C
  C746     1.0000 0.29788  0.98915  0.86782  Biso   1.000  C
  C747     1.0000 0.29788  0.98915  0.86778  Biso   1.000  C
  N555     1.0000 0.38170  0.03390  0.78035  Biso   1.000  N
  H821     1.0000 0.33350  0.08411  0.76148  Biso   1.000  H
  H822     1.0000 0.38519  0.10468  0.77261  Biso   1.000  H
  H823     1.0000 0.38519  0.10468  0.77257  Biso   1.000  H
  N556     1.0000 0.38170  0.03386  0.78035  Biso   1.000  N
  H824     1.0000 0.33350  0.08407  0.76148  Biso   1.000  H
  C748     1.0000 0.55037  0.79930  0.85732  Biso   1.000  C
  C749     1.0000 0.55037  0.79930  0.85728  Biso   1.000  C
  N557     1.0000 0.56570  0.89507  0.77601  Biso   1.000  N
  H825     1.0000 0.62648  0.86361  0.75288  Biso   1.000  H
  H826     1.0000 0.63169  0.91900  0.76442  Biso   1.000  H
  H827     1.0000 0.63169  0.91900  0.76438  Biso   1.000  H
  H828     1.0000 0.62648  0.86357  0.75288  Biso   1.000  H
  N558     1.0000 0.33917  0.97290  0.83547  Biso   1.000  N
  H829     1.0000 0.27229  0.99531  0.83841  Biso   1.000  H
  H830     1.0000 0.28709  0.96388  0.89538  Biso   1.000  H
  H831     1.0000 0.27229  0.99531  0.83836  Biso   1.000  H
  N559     1.0000 0.33917  0.97287  0.83547  Biso   1.000  N
  H832     1.0000 0.27229  0.99528  0.83841  Biso   1.000  H
  H833     1.0000 0.27229  0.99528  0.83836  Biso   1.000  H
  C750     1.0000 0.35277  0.99190  0.77705  Biso   1.000  C
  C751     1.0000 0.35277  0.99190  0.77700  Biso   1.000  C
  C752     1.0000 0.42655  0.02643  0.76112  Biso   1.000  C
  N560     1.0000 0.52081  0.83263  0.82574  Biso   1.000  N
  N561     1.0000 0.52081  0.83260  0.82574  Biso   1.000  N
  H834     1.0000 0.56520  0.77802  0.82732  Biso   1.000  H
  H835     1.0000 0.53039  0.77982  0.88420  Biso   1.000  H
  H836     1.0000 0.56520  0.77802  0.82728  Biso   1.000  H
  H837     1.0000 0.56520  0.77799  0.82732  Biso   1.000  H
  H838     1.0000 0.53039  0.77978  0.88420  Biso   1.000  H
  H839     1.0000 0.56520  0.77799  0.82728  Biso   1.000  H
  C753     1.0000 0.54512  0.93644  0.75908  Biso   1.000  C
  C754     1.0000 0.54512  0.93644  0.75904  Biso   1.000  C
  C755     1.0000 0.53448  0.85522  0.76908  Biso   1.000  C
  C756     1.0000 0.35792  0.92897  0.84529  Biso   1.000  C
  C757     1.0000 0.35792  0.92893  0.84529  Biso   1.000  C
  H840     1.0000 0.32501  0.99641  0.74990  Biso   1.000  H
  C758     1.0000 0.38702  0.95476  0.75212  Biso   1.000  C
  C759     1.0000 0.38702  0.95476  0.75207  Biso   1.000  C
  H841     1.0000 0.32501  0.99637  0.74990  Biso   1.000  H
  N562     1.0000 0.43110  0.97992  0.74678  Biso   1.000  N
  N563     1.0000 0.43110  0.97992  0.74673  Biso   1.000  N
  O264     1.0000 0.45784  0.05662  0.75673  Biso   1.000  O
  C760     1.0000 0.47373  0.83725  0.83750  Biso   1.000  C
  N564     1.0000 0.49900  0.92770  0.74460  Biso   1.000  N
  N565     1.0000 0.49900  0.92770  0.74456  Biso   1.000  N
  O265     1.0000 0.56471  0.97527  0.75650  Biso   1.000  O
  O266     1.0000 0.56471  0.97527  0.75646  Biso   1.000  O
  C761     1.0000 0.48754  0.87826  0.74741  Biso   1.000  C
  C762     1.0000 0.48754  0.87826  0.74736  Biso   1.000  C
  H842     1.0000 0.54677  0.83189  0.73899  Biso   1.000  H
  N566     1.0000 0.38705  0.91801  0.79764  Biso   1.000  N
  O267     1.0000 0.35002  0.90356  0.88891  Biso   1.000  O
  O268     1.0000 0.35002  0.90356  0.88886  Biso   1.000  O
  N567     1.0000 0.38705  0.91797  0.79764  Biso   1.000  N
  O269     1.0000 0.35002  0.90353  0.88891  Biso   1.000  O
  O270     1.0000 0.35002  0.90353  0.88886  Biso   1.000  O
  H843     1.0000 0.37631  0.94250  0.71202  Biso   1.000  H
  H844     1.0000 0.37631  0.94250  0.71198  Biso   1.000  H
  C763     1.0000 0.47077  0.96195  0.71171  Biso   1.000  C
  N568     1.0000 0.45425  0.86544  0.79424  Biso   1.000  N
  O271     1.0000 0.45291  0.81843  0.87986  Biso   1.000  O
  O272     1.0000 0.45291  0.81843  0.87981  Biso   1.000  O
  H845     1.0000 0.47768  0.86590  0.70700  Biso   1.000  H
  C764     1.0000 0.40362  0.87051  0.78651  Biso   1.000  C
  H846     1.0000 0.49121  0.98869  0.69981  Biso   1.000  H
  H847     1.0000 0.45869  0.94711  0.67428  Biso   1.000  H
  H848     1.0000 0.45869  0.94708  0.67428  Biso   1.000  H
  H849     1.0000 0.38741  0.84870  0.81452  Biso   1.000  H
  H850     1.0000 0.39509  0.86132  0.74469  Biso   1.000  H
  H851     1.0000 0.38741  0.84870  0.81447  Biso   1.000  H
  H852     1.0000 0.39509  0.86128  0.74469  Biso   1.000  H
  C765     1.0000 0.59635  0.12949  0.21349  Biso   1.000  C
  N569     1.0000 0.54575  0.13456  0.20576  Biso   1.000  N
  N570     1.0000 0.54575  0.13453  0.20576  Biso   1.000  N
  H853     1.0000 0.61259  0.15130  0.18548  Biso   1.000  H
  N571     1.0000 0.61291  0.08199  0.20236  Biso   1.000  N
  H854     1.0000 0.60488  0.13868  0.25531  Biso   1.000  H
  N572     1.0000 0.61291  0.08199  0.20232  Biso   1.000  N
  H855     1.0000 0.60488  0.13868  0.25526  Biso   1.000  H
  C766     1.0000 0.52627  0.16275  0.16250  Biso   1.000  C
  C767     1.0000 0.51242  0.12174  0.25259  Biso   1.000  C
  C768     1.0000 0.51242  0.12170  0.25259  Biso   1.000  C
  C769     1.0000 0.59635  0.12945  0.21349  Biso   1.000  C
  C770     1.0000 0.61298  0.04524  0.24788  Biso   1.000  C
  C771     1.0000 0.64205  0.07103  0.15471  Biso   1.000  C
  C772     1.0000 0.64205  0.07103  0.15467  Biso   1.000  C
  C773     1.0000 0.61298  0.04521  0.24788  Biso   1.000  C
  N573     1.0000 0.47919  0.16737  0.17426  Biso   1.000  N
  N574     1.0000 0.47919  0.16740  0.17426  Biso   1.000  N
  O273     1.0000 0.54709  0.18157  0.12014  Biso   1.000  O
  O274     1.0000 0.54709  0.18153  0.12014  Biso   1.000  O
  C774     1.0000 0.46552  0.14478  0.23092  Biso   1.000  C
  C775     1.0000 0.46552  0.14478  0.23087  Biso   1.000  C
  C776     1.0000 0.46552  0.14474  0.23092  Biso   1.000  C
  C777     1.0000 0.46552  0.14474  0.23087  Biso   1.000  C
  N575     1.0000 0.50100  0.07230  0.25540  Biso   1.000  N
  H856     1.0000 0.52229  0.13410  0.29300  Biso   1.000  H
  H857     1.0000 0.52229  0.13410  0.29295  Biso   1.000  H
  N576     1.0000 0.50100  0.07227  0.25540  Biso   1.000  N
  H858     1.0000 0.52229  0.13407  0.29300  Biso   1.000  H
  H859     1.0000 0.52229  0.13407  0.29295  Biso   1.000  H
  N577     1.0000 0.56890  0.02008  0.25322  Biso   1.000  N
  H860     1.0000 0.62369  0.05750  0.28798  Biso   1.000  H
  C778     1.0000 0.64719  0.00810  0.22295  Biso   1.000  C
  C779     1.0000 0.64719  0.00807  0.22295  Biso   1.000  C
  O275     1.0000 0.64994  0.09644  0.11109  Biso   1.000  O
  N578     1.0000 0.66079  0.02710  0.16453  Biso   1.000  N
  N579     1.0000 0.66079  0.02710  0.16449  Biso   1.000  N
  C780     1.0000 0.44963  0.20070  0.14268  Biso   1.000  C
  N580     1.0000 0.43427  0.10493  0.22399  Biso   1.000  N
  H861     1.0000 0.45319  0.16811  0.26101  Biso   1.000  H
  N581     1.0000 0.43427  0.10493  0.22395  Biso   1.000  N
  H862     1.0000 0.45319  0.16811  0.26096  Biso   1.000  H
  N582     1.0000 0.43427  0.10489  0.22399  Biso   1.000  N
  N583     1.0000 0.43427  0.10489  0.22395  Biso   1.000  N
  C781     1.0000 0.45488  0.06356  0.24092  Biso   1.000  C
  C782     1.0000 0.45488  0.06353  0.24092  Biso   1.000  C
  C783     1.0000 0.52923  0.03805  0.28829  Biso   1.000  C
  C784     1.0000 0.52923  0.03802  0.28829  Biso   1.000  C
  C785     1.0000 0.57341  0.97357  0.23888  Biso   1.000  C
  C786     1.0000 0.57341  0.97357  0.23883  Biso   1.000  C
  C787     1.0000 0.57341  0.97354  0.23888  Biso   1.000  C
  C788     1.0000 0.57341  0.97354  0.23883  Biso   1.000  C
  N584     1.0000 0.61830  0.96610  0.21965  Biso   1.000  N
  N585     1.0000 0.61830  0.96610  0.21960  Biso   1.000  N
  H863     1.0000 0.67499  0.00359  0.25010  Biso   1.000  H
  H864     1.0000 0.67499  0.00359  0.25006  Biso   1.000  H
  C789     1.0000 0.70212  0.01085  0.13218  Biso   1.000  C
  H865     1.0000 0.43480  0.22198  0.17268  Biso   1.000  H
  N586     1.0000 0.41292  0.17861  0.10684  Biso   1.000  N
  H866     1.0000 0.46957  0.22018  0.11580  Biso   1.000  H
  N587     1.0000 0.41292  0.17864  0.10684  Biso   1.000  N
  H867     1.0000 0.46957  0.22022  0.11580  Biso   1.000  H
  C790     1.0000 0.38332  0.11018  0.22037  Biso   1.000  C
  C791     1.0000 0.38332  0.11018  0.22033  Biso   1.000  C
  O276     1.0000 0.43526  0.02473  0.24350  Biso   1.000  O
  O277     1.0000 0.43526  0.02470  0.24350  Biso   1.000  O
  H868     1.0000 0.50879  0.01131  0.30019  Biso   1.000  H
  H869     1.0000 0.54128  0.05289  0.32572  Biso   1.000  H
  H870     1.0000 0.54128  0.05289  0.32567  Biso   1.000  H
  H871     1.0000 0.50879  0.01128  0.30019  Biso   1.000  H
  O278     1.0000 0.54212  0.94338  0.24327  Biso   1.000  O
  O279     1.0000 0.54212  0.94338  0.24322  Biso   1.000  O
  O280     1.0000 0.54212  0.94334  0.24327  Biso   1.000  O
  O281     1.0000 0.54212  0.94334  0.24322  Biso   1.000  O
  C792     1.0000 0.63807  0.91864  0.21282  Biso   1.000  C
  C793     1.0000 0.63807  0.91864  0.21277  Biso   1.000  C
  C794     1.0000 0.63807  0.91861  0.21282  Biso   1.000  C
  C795     1.0000 0.63807  0.91861  0.21277  Biso   1.000  C
  H872     1.0000 0.72767  0.00469  0.16159  Biso   1.000  H
  N588     1.0000 0.69377  0.96843  0.09724  Biso   1.000  N
  N589     1.0000 0.69377  0.96843  0.09720  Biso   1.000  N
  N590     1.0000 0.69377  0.96839  0.09724  Biso   1.000  N
  N591     1.0000 0.69377  0.96839  0.09720  Biso   1.000  N
  H873     1.0000 0.71287  0.03612  0.10462  Biso   1.000  H
  H874     1.0000 0.71287  0.03612  0.10457  Biso   1.000  H
  H875     1.0000 0.71287  0.03608  0.10462  Biso   1.000  H
  H876     1.0000 0.71287  0.03608  0.10457  Biso   1.000  H
  C796     1.0000 0.40975  0.18519  0.04539  Biso   1.000  C
  C797     1.0000 0.36771  0.16560  0.13268  Biso   1.000  C
  C798     1.0000 0.36771  0.16557  0.13268  Biso   1.000  C
  N592     1.0000 0.36637  0.11948  0.15960  Biso   1.000  N
  N593     1.0000 0.36637  0.11945  0.15960  Biso   1.000  N
  H877     1.0000 0.37349  0.13639  0.24712  Biso   1.000  H
  H878     1.0000 0.36831  0.08100  0.23558  Biso   1.000  H
  H879     1.0000 0.37349  0.13639  0.24707  Biso   1.000  H
  H880     1.0000 0.37349  0.13643  0.24712  Biso   1.000  H
  H881     1.0000 0.36831  0.08097  0.23558  Biso   1.000  H
  H882     1.0000 0.37349  0.13643  0.24707  Biso   1.000  H
  N594     1.0000 0.65061  0.90723  0.15078  Biso   1.000  N
  H883     1.0000 0.66650  0.91589  0.23852  Biso   1.000  H
  H884     1.0000 0.61478  0.89532  0.22739  Biso   1.000  H
  H885     1.0000 0.66650  0.91589  0.23847  Biso   1.000  H
  N595     1.0000 0.65061  0.90726  0.15078  Biso   1.000  N
  H886     1.0000 0.61478  0.89528  0.22739  Biso   1.000  H
  C799     1.0000 0.69501  0.92153  0.12403  Biso   1.000  C
  C800     1.0000 0.69983  0.96702  0.03579  Biso   1.000  C
  O282     1.0000 0.44149  0.20066  0.01285  Biso   1.000  O
  N596     1.0000 0.36623  0.17188  0.02656  Biso   1.000  N
  N597     1.0000 0.36623  0.17188  0.02652  Biso   1.000  N
  H887     1.0000 0.35580  0.19030  0.16118  Biso   1.000  H
  C801     1.0000 0.33533  0.16049  0.07634  Biso   1.000  C
  C802     1.0000 0.33533  0.16049  0.07629  Biso   1.000  C
  H888     1.0000 0.35580  0.19027  0.16118  Biso   1.000  H
  C803     1.0000 0.33533  0.16053  0.07634  Biso   1.000  C
  C804     1.0000 0.33533  0.16053  0.07629  Biso   1.000  C
  C805     1.0000 0.33660  0.08946  0.13001  Biso   1.000  C
  C806     1.0000 0.33660  0.08946  0.12996  Biso   1.000  C
  C807     1.0000 0.63032  0.87086  0.12010  Biso   1.000  C
  C808     1.0000 0.63032  0.87083  0.12010  Biso   1.000  C
  C809     1.0000 0.70040  0.88859  0.06851  Biso   1.000  C
  H889     1.0000 0.72179  0.91801  0.15308  Biso   1.000  H
  H890     1.0000 0.72179  0.91797  0.15308  Biso   1.000  H
  O283     1.0000 0.70269  0.00162  0.00231  Biso   1.000  O
  N598     1.0000 0.70209  0.92083  0.01783  Biso   1.000  N
  N599     1.0000 0.70209  0.92083  0.01778  Biso   1.000  N
  N600     1.0000 0.70209  0.92079  0.01783  Biso   1.000  N
  N601     1.0000 0.70209  0.92079  0.01778  Biso   1.000  N
  C810     1.0000 0.34868  0.18171  0.96561  Biso   1.000  C
  C811     1.0000 0.34868  0.18171  0.96556  Biso   1.000  C
  N602     1.0000 0.32028  0.11169  0.07910  Biso   1.000  N
  H891     1.0000 0.30788  0.18259  0.07828  Biso   1.000  H
  N603     1.0000 0.32028  0.11169  0.07905  Biso   1.000  N
  H892     1.0000 0.30788  0.18262  0.07828  Biso   1.000  H
  O284     1.0000 0.32511  0.04972  0.14716  Biso   1.000  O
  O285     1.0000 0.32511  0.04972  0.14711  Biso   1.000  O
  O286     1.0000 0.59388  0.85029  0.13435  Biso   1.000  O
  N604     1.0000 0.65759  0.86043  0.07064  Biso   1.000  N
  N605     1.0000 0.65759  0.86040  0.07064  Biso   1.000  N
  H893     1.0000 0.72940  0.86871  0.07118  Biso   1.000  H
  H894     1.0000 0.72940  0.86868  0.07118  Biso   1.000  H
  C812     1.0000 0.71724  0.90768  0.95792  Biso   1.000  C
  N606     1.0000 0.34238  0.13957  0.92936  Biso   1.000  N
  H895     1.0000 0.37109  0.20288  0.94479  Biso   1.000  H
  H896     1.0000 0.31810  0.19841  0.96869  Biso   1.000  H
  N607     1.0000 0.34238  0.13957  0.92932  Biso   1.000  N
  H897     1.0000 0.37109  0.20292  0.94479  Biso   1.000  H
  C813     1.0000 0.28276  0.09232  0.04208  Biso   1.000  C
  C814     1.0000 0.28276  0.09228  0.04208  Biso   1.000  C
  C815     1.0000 0.65128  0.81829  0.03439  Biso   1.000  C
  C816     1.0000 0.65128  0.81826  0.03439  Biso   1.000  C
  N608     1.0000 0.67972  0.88831  0.92090  Biso   1.000  N
  H898     1.0000 0.74279  0.88411  0.96131  Biso   1.000  H
  H899     1.0000 0.73038  0.93580  0.93742  Biso   1.000  H
  H900     1.0000 0.74279  0.88411  0.96127  Biso   1.000  H
  H901     1.0000 0.73038  0.93580  0.93737  Biso   1.000  H
  N609     1.0000 0.67972  0.88827  0.92090  Biso   1.000  N
  H902     1.0000 0.74279  0.88408  0.96131  Biso   1.000  H
  H903     1.0000 0.73038  0.93577  0.93742  Biso   1.000  H
  H904     1.0000 0.74279  0.88408  0.96127  Biso   1.000  H
  H905     1.0000 0.73038  0.93577  0.93737  Biso   1.000  H
  C817     1.0000 0.36968  0.12914  0.87990  Biso   1.000  C
  C818     1.0000 0.29960  0.11141  0.93149  Biso   1.000  C
  C819     1.0000 0.29960  0.11141  0.93144  Biso   1.000  C
  C820     1.0000 0.36968  0.12917  0.87990  Biso   1.000  C
  H906     1.0000 0.26958  0.06420  0.06258  Biso   1.000  H
  N610     1.0000 0.29791  0.07917  0.98217  Biso   1.000  N
  N611     1.0000 0.29791  0.07921  0.98217  Biso   1.000  N
  H907     1.0000 0.25718  0.11589  0.03869  Biso   1.000  H
  H908     1.0000 0.25718  0.11592  0.03869  Biso   1.000  H
  N612     1.0000 0.63377  0.82812  0.97344  Biso   1.000  N
  H909     1.0000 0.62887  0.79712  0.05521  Biso   1.000  H
  H910     1.0000 0.68190  0.80159  0.03131  Biso   1.000  H
  H911     1.0000 0.62887  0.79712  0.05516  Biso   1.000  H
  H912     1.0000 0.68190  0.80159  0.03127  Biso   1.000  H
  H913     1.0000 0.62887  0.79708  0.05521  Biso   1.000  H
  H914     1.0000 0.62887  0.79708  0.05516  Biso   1.000  H
  C821     1.0000 0.66467  0.83951  0.92366  Biso   1.000  C
  C822     1.0000 0.66337  0.91054  0.86999  Biso   1.000  C
  C823     1.0000 0.66467  0.83947  0.92366  Biso   1.000  C
  N613     1.0000 0.34939  0.09274  0.84922  Biso   1.000  N
  O287     1.0000 0.40608  0.14971  0.86565  Biso   1.000  O
  N614     1.0000 0.34939  0.09274  0.84918  Biso   1.000  N
  O288     1.0000 0.40608  0.14971  0.86560  Biso   1.000  O
  O289     1.0000 0.40608  0.14968  0.86565  Biso   1.000  O
  O290     1.0000 0.40608  0.14968  0.86560  Biso   1.000  O
  H915     1.0000 0.27060  0.13129  0.92882  Biso   1.000  H
  C824     1.0000 0.30496  0.07847  0.87597  Biso   1.000  C
  H916     1.0000 0.27060  0.13129  0.92878  Biso   1.000  H
  C825     1.0000 0.30496  0.07847  0.87592  Biso   1.000  C
  H917     1.0000 0.27060  0.13132  0.92882  Biso   1.000  H
  C826     1.0000 0.30496  0.07843  0.87597  Biso   1.000  C
  H918     1.0000 0.27060  0.13132  0.92878  Biso   1.000  H
  C827     1.0000 0.30496  0.07843  0.87592  Biso   1.000  C
  C828     1.0000 0.30013  0.03298  0.96421  Biso   1.000  C
  C829     1.0000 0.30013  0.03298  0.96416  Biso   1.000  C
  C830     1.0000 0.30013  0.03294  0.96421  Biso   1.000  C
  C831     1.0000 0.30013  0.03294  0.96416  Biso   1.000  C
  C832     1.0000 0.59025  0.81481  0.95461  Biso   1.000  C
  C833     1.0000 0.59025  0.81481  0.95457  Biso   1.000  C
  C834     1.0000 0.63229  0.83440  0.86732  Biso   1.000  C
  H919     1.0000 0.69208  0.81741  0.92172  Biso   1.000  H
  C835     1.0000 0.63229  0.83440  0.86728  Biso   1.000  C
  H920     1.0000 0.69208  0.81741  0.92167  Biso   1.000  H
  H921     1.0000 0.69208  0.81738  0.92172  Biso   1.000  H
  H922     1.0000 0.69208  0.81738  0.92167  Biso   1.000  H
  O291     1.0000 0.67485  0.95028  0.85284  Biso   1.000  O
  N615     1.0000 0.63363  0.88052  0.84040  Biso   1.000  N
  N616     1.0000 0.63363  0.88052  0.84035  Biso   1.000  N
  O292     1.0000 0.67485  0.95025  0.85284  Biso   1.000  O
  C836     1.0000 0.36190  0.08136  0.78718  Biso   1.000  C
  C837     1.0000 0.36190  0.08139  0.78718  Biso   1.000  C
  N617     1.0000 0.30619  0.03157  0.90276  Biso   1.000  N
  H923     1.0000 0.27818  0.08199  0.84692  Biso   1.000  H
  H924     1.0000 0.27818  0.08199  0.84687  Biso   1.000  H
  O293     1.0000 0.29731  0.99838  0.99769  Biso   1.000  O
  O294     1.0000 0.29731  0.99838  0.99765  Biso   1.000  O
  O295     1.0000 0.29731  0.99834  0.99769  Biso   1.000  O
  O296     1.0000 0.29731  0.99834  0.99765  Biso   1.000  O
  O297     1.0000 0.55847  0.79934  0.98715  Biso   1.000  O
  N618     1.0000 0.58708  0.82139  0.89316  Biso   1.000  N
  N619     1.0000 0.58708  0.82136  0.89316  Biso   1.000  N
  H925     1.0000 0.64420  0.80970  0.83882  Biso   1.000  H
  H926     1.0000 0.64420  0.80970  0.83877  Biso   1.000  H
  C838     1.0000 0.61664  0.88982  0.77963  Biso   1.000  C
  N620     1.0000 0.38170  0.03390  0.78035  Biso   1.000  N
  H927     1.0000 0.33350  0.08411  0.76148  Biso   1.000  H
  H928     1.0000 0.38519  0.10468  0.77261  Biso   1.000  H
  H929     1.0000 0.38519  0.10468  0.77257  Biso   1.000  H
  N621     1.0000 0.38170  0.03386  0.78035  Biso   1.000  N
  H930     1.0000 0.33350  0.08407  0.76148  Biso   1.000  H
  C839     1.0000 0.29788  0.98915  0.86782  Biso   1.000  C
  C840     1.0000 0.29788  0.98915  0.86778  Biso   1.000  C
  C841     1.0000 0.55037  0.79930  0.85732  Biso   1.000  C
  C842     1.0000 0.55037  0.79930  0.85728  Biso   1.000  C
  N622     1.0000 0.56570  0.89507  0.77601  Biso   1.000  N
  H931     1.0000 0.62648  0.86361  0.75288  Biso   1.000  H
  H932     1.0000 0.63169  0.91900  0.76442  Biso   1.000  H
  H933     1.0000 0.63169  0.91900  0.76438  Biso   1.000  H
  H934     1.0000 0.62648  0.86357  0.75288  Biso   1.000  H
  C843     1.0000 0.35277  0.99190  0.77705  Biso   1.000  C
  C844     1.0000 0.35277  0.99190  0.77700  Biso   1.000  C
  C845     1.0000 0.42655  0.02643  0.76112  Biso   1.000  C
  N623     1.0000 0.33917  0.97290  0.83547  Biso   1.000  N
  H935     1.0000 0.27229  0.99531  0.83841  Biso   1.000  H
  H936     1.0000 0.28709  0.96388  0.89538  Biso   1.000  H
  H937     1.0000 0.27229  0.99531  0.83836  Biso   1.000  H
  N624     1.0000 0.33917  0.97287  0.83547  Biso   1.000  N
  H938     1.0000 0.27229  0.99528  0.83841  Biso   1.000  H
  H939     1.0000 0.27229  0.99528  0.83836  Biso   1.000  H
  N625     1.0000 0.52081  0.83263  0.82574  Biso   1.000  N
  N626     1.0000 0.52081  0.83260  0.82574  Biso   1.000  N
  H940     1.0000 0.56520  0.77802  0.82732  Biso   1.000  H
  H941     1.0000 0.53039  0.77982  0.88420  Biso   1.000  H
  H942     1.0000 0.56520  0.77802  0.82728  Biso   1.000  H
  H943     1.0000 0.56520  0.77799  0.82732  Biso   1.000  H
  H944     1.0000 0.53039  0.77978  0.88420  Biso   1.000  H
  H945     1.0000 0.56520  0.77799  0.82728  Biso   1.000  H
  C846     1.0000 0.54512  0.93644  0.75908  Biso   1.000  C
  C847     1.0000 0.54512  0.93644  0.75904  Biso   1.000  C
  C848     1.0000 0.53448  0.85522  0.76908  Biso   1.000  C
  H946     1.0000 0.32501  0.99641  0.74990  Biso   1.000  H
  C849     1.0000 0.38702  0.95476  0.75212  Biso   1.000  C
  C850     1.0000 0.38702  0.95476  0.75207  Biso   1.000  C
  H947     1.0000 0.32501  0.99637  0.74990  Biso   1.000  H
  N627     1.0000 0.43110  0.97992  0.74678  Biso   1.000  N
  N628     1.0000 0.43110  0.97992  0.74673  Biso   1.000  N
  O298     1.0000 0.45784  0.05662  0.75673  Biso   1.000  O
  C851     1.0000 0.35792  0.92897  0.84529  Biso   1.000  C
  C852     1.0000 0.35792  0.92893  0.84529  Biso   1.000  C
  C853     1.0000 0.47373  0.83725  0.83750  Biso   1.000  C
  N629     1.0000 0.49900  0.92770  0.74460  Biso   1.000  N
  N630     1.0000 0.49900  0.92770  0.74456  Biso   1.000  N
  O299     1.0000 0.56471  0.97527  0.75650  Biso   1.000  O
  O300     1.0000 0.56471  0.97527  0.75646  Biso   1.000  O
  C854     1.0000 0.48754  0.87826  0.74741  Biso   1.000  C
  C855     1.0000 0.48754  0.87826  0.74736  Biso   1.000  C
  H948     1.0000 0.54677  0.83189  0.73899  Biso   1.000  H
  N631     1.0000 0.38705  0.91801  0.79764  Biso   1.000  N
  H949     1.0000 0.37631  0.94250  0.71202  Biso   1.000  H
  H950     1.0000 0.37631  0.94250  0.71198  Biso   1.000  H
  N632     1.0000 0.38705  0.91797  0.79764  Biso   1.000  N
  C856     1.0000 0.47077  0.96195  0.71171  Biso   1.000  C
  O301     1.0000 0.35002  0.90356  0.88891  Biso   1.000  O
  O302     1.0000 0.35002  0.90356  0.88886  Biso   1.000  O
  O303     1.0000 0.35002  0.90353  0.88891  Biso   1.000  O
  O304     1.0000 0.35002  0.90353  0.88886  Biso   1.000  O
  N633     1.0000 0.45425  0.86544  0.79424  Biso   1.000  N
  O305     1.0000 0.45291  0.81843  0.87986  Biso   1.000  O
  O306     1.0000 0.45291  0.81843  0.87981  Biso   1.000  O
  H951     1.0000 0.47768  0.86590  0.70700  Biso   1.000  H
  C857     1.0000 0.40362  0.87051  0.78651  Biso   1.000  C
  H952     1.0000 0.49121  0.98869  0.69981  Biso   1.000  H
  H953     1.0000 0.45869  0.94711  0.67428  Biso   1.000  H
  H954     1.0000 0.45869  0.94708  0.67428  Biso   1.000  H
  H955     1.0000 0.38741  0.84870  0.81452  Biso   1.000  H
  H956     1.0000 0.39509  0.86132  0.74469  Biso   1.000  H
  H957     1.0000 0.38741  0.84870  0.81447  Biso   1.000  H
  H958     1.0000 0.39509  0.86128  0.74469  Biso   1.000  H
  C858     1.0000 0.59635  0.12949  0.21349  Biso   1.000  C
  N634     1.0000 0.54575  0.13456  0.20576  Biso   1.000  N
  N635     1.0000 0.54575  0.13453  0.20576  Biso   1.000  N
  H959     1.0000 0.61259  0.15130  0.18548  Biso   1.000  H
  N636     1.0000 0.61291  0.08199  0.20236  Biso   1.000  N
  H960     1.0000 0.60488  0.13868  0.25531  Biso   1.000  H
  N637     1.0000 0.61291  0.08199  0.20232  Biso   1.000  N
  H961     1.0000 0.60488  0.13868  0.25526  Biso   1.000  H
  C859     1.0000 0.52627  0.16275  0.16250  Biso   1.000  C
  C860     1.0000 0.51242  0.12174  0.25259  Biso   1.000  C
  C861     1.0000 0.51242  0.12170  0.25259  Biso   1.000  C
  C862     1.0000 0.59635  0.12945  0.21349  Biso   1.000  C
  C863     1.0000 0.61298  0.04524  0.24788  Biso   1.000  C
  C864     1.0000 0.64205  0.07103  0.15471  Biso   1.000  C
  C865     1.0000 0.64205  0.07103  0.15467  Biso   1.000  C
  C866     1.0000 0.61298  0.04521  0.24788  Biso   1.000  C
  N638     1.0000 0.47919  0.16737  0.17426  Biso   1.000  N
  N639     1.0000 0.47919  0.16740  0.17426  Biso   1.000  N
  O307     1.0000 0.54709  0.18157  0.12014  Biso   1.000  O
  O308     1.0000 0.54709  0.18153  0.12014  Biso   1.000  O
  C867     1.0000 0.46552  0.14478  0.23092  Biso   1.000  C
  C868     1.0000 0.46552  0.14478  0.23087  Biso   1.000  C
  C869     1.0000 0.46552  0.14474  0.23092  Biso   1.000  C
  C870     1.0000 0.46552  0.14474  0.23087  Biso   1.000  C
  N640     1.0000 0.50100  0.07230  0.25540  Biso   1.000  N
  H962     1.0000 0.52229  0.13410  0.29300  Biso   1.000  H
  H963     1.0000 0.52229  0.13410  0.29295  Biso   1.000  H
  N641     1.0000 0.50100  0.07227  0.25540  Biso   1.000  N
  H964     1.0000 0.52229  0.13407  0.29300  Biso   1.000  H
  H965     1.0000 0.52229  0.13407  0.29295  Biso   1.000  H
  N642     1.0000 0.56890  0.02008  0.25322  Biso   1.000  N
  H966     1.0000 0.62369  0.05750  0.28798  Biso   1.000  H
  C871     1.0000 0.64719  0.00810  0.22295  Biso   1.000  C
  C872     1.0000 0.64719  0.00807  0.22295  Biso   1.000  C
  O309     1.0000 0.64994  0.09644  0.11109  Biso   1.000  O
  N643     1.0000 0.66079  0.02710  0.16453  Biso   1.000  N
  N644     1.0000 0.66079  0.02710  0.16449  Biso   1.000  N
  C873     1.0000 0.44963  0.20070  0.14268  Biso   1.000  C
  N645     1.0000 0.43427  0.10493  0.22399  Biso   1.000  N
  H967     1.0000 0.45319  0.16811  0.26101  Biso   1.000  H
  N646     1.0000 0.43427  0.10493  0.22395  Biso   1.000  N
  H968     1.0000 0.45319  0.16811  0.26096  Biso   1.000  H
  N647     1.0000 0.43427  0.10489  0.22399  Biso   1.000  N
  N648     1.0000 0.43427  0.10489  0.22395  Biso   1.000  N
  C874     1.0000 0.45488  0.06356  0.24092  Biso   1.000  C
  C875     1.0000 0.45488  0.06353  0.24092  Biso   1.000  C
  C876     1.0000 0.52923  0.03805  0.28829  Biso   1.000  C
  C877     1.0000 0.52923  0.03802  0.28829  Biso   1.000  C
  C878     1.0000 0.57341  0.97357  0.23888  Biso   1.000  C
  C879     1.0000 0.57341  0.97357  0.23883  Biso   1.000  C
  C880     1.0000 0.57341  0.97354  0.23888  Biso   1.000  C
  C881     1.0000 0.57341  0.97354  0.23883  Biso   1.000  C
  N649     1.0000 0.61830  0.96610  0.21965  Biso   1.000  N
  N650     1.0000 0.61830  0.96610  0.21960  Biso   1.000  N
  H969     1.0000 0.67499  0.00359  0.25010  Biso   1.000  H
  H970     1.0000 0.67499  0.00359  0.25006  Biso   1.000  H
  C882     1.0000 0.70212  0.01085  0.13218  Biso   1.000  C
  H971     1.0000 0.43480  0.22198  0.17268  Biso   1.000  H
  N651     1.0000 0.41292  0.17861  0.10684  Biso   1.000  N
  H972     1.0000 0.46957  0.22018  0.11580  Biso   1.000  H
  N652     1.0000 0.41292  0.17864  0.10684  Biso   1.000  N
  H973     1.0000 0.46957  0.22022  0.11580  Biso   1.000  H
  C883     1.0000 0.38332  0.11018  0.22037  Biso   1.000  C
  C884     1.0000 0.38332  0.11018  0.22033  Biso   1.000  C
  O310     1.0000 0.43526  0.02473  0.24350  Biso   1.000  O
  O311     1.0000 0.43526  0.02470  0.24350  Biso   1.000  O
  H974     1.0000 0.50879  0.01131  0.30019  Biso   1.000  H
  H975     1.0000 0.54128  0.05289  0.32572  Biso   1.000  H
  H976     1.0000 0.54128  0.05289  0.32567  Biso   1.000  H
  H977     1.0000 0.50879  0.01128  0.30019  Biso   1.000  H
  O312     1.0000 0.54212  0.94338  0.24327  Biso   1.000  O
  O313     1.0000 0.54212  0.94338  0.24322  Biso   1.000  O
  O314     1.0000 0.54212  0.94334  0.24327  Biso   1.000  O
  O315     1.0000 0.54212  0.94334  0.24322  Biso   1.000  O
  C885     1.0000 0.63807  0.91864  0.21282  Biso   1.000  C
  C886     1.0000 0.63807  0.91864  0.21277  Biso   1.000  C
  C887     1.0000 0.63807  0.91861  0.21282  Biso   1.000  C
  C888     1.0000 0.63807  0.91861  0.21277  Biso   1.000  C
  H978     1.0000 0.72767  0.00469  0.16159  Biso   1.000  H
  N653     1.0000 0.69377  0.96843  0.09724  Biso   1.000  N
  N654     1.0000 0.69377  0.96843  0.09720  Biso   1.000  N
  N655     1.0000 0.69377  0.96839  0.09724  Biso   1.000  N
  N656     1.0000 0.69377  0.96839  0.09720  Biso   1.000  N
  H979     1.0000 0.71287  0.03612  0.10462  Biso   1.000  H
  H980     1.0000 0.71287  0.03612  0.10457  Biso   1.000  H
  H981     1.0000 0.71287  0.03608  0.10462  Biso   1.000  H
  H982     1.0000 0.71287  0.03608  0.10457  Biso   1.000  H
  C889     1.0000 0.40975  0.18519  0.04539  Biso   1.000  C
  C890     1.0000 0.36771  0.16560  0.13268  Biso   1.000  C
  C891     1.0000 0.36771  0.16557  0.13268  Biso   1.000  C
  N657     1.0000 0.36637  0.11948  0.15960  Biso   1.000  N
  N658     1.0000 0.36637  0.11945  0.15960  Biso   1.000  N
  H983     1.0000 0.37349  0.13639  0.24712  Biso   1.000  H
  H984     1.0000 0.36831  0.08100  0.23558  Biso   1.000  H
  H985     1.0000 0.37349  0.13639  0.24707  Biso   1.000  H
  H986     1.0000 0.37349  0.13643  0.24712  Biso   1.000  H
  H987     1.0000 0.36831  0.08097  0.23558  Biso   1.000  H
  H988     1.0000 0.37349  0.13643  0.24707  Biso   1.000  H
  N659     1.0000 0.65061  0.90723  0.15078  Biso   1.000  N
  H989     1.0000 0.66650  0.91589  0.23852  Biso   1.000  H
  H990     1.0000 0.61478  0.89532  0.22739  Biso   1.000  H
  H991     1.0000 0.66650  0.91589  0.23847  Biso   1.000  H
  N660     1.0000 0.65061  0.90726  0.15078  Biso   1.000  N
  H992     1.0000 0.61478  0.89528  0.22739  Biso   1.000  H
  C892     1.0000 0.69501  0.92153  0.12403  Biso   1.000  C
  C893     1.0000 0.69983  0.96702  0.03579  Biso   1.000  C
  O316     1.0000 0.44149  0.20066  0.01285  Biso   1.000  O
  N661     1.0000 0.36623  0.17188  0.02656  Biso   1.000  N
  N662     1.0000 0.36623  0.17188  0.02652  Biso   1.000  N
  H993     1.0000 0.35580  0.19030  0.16118  Biso   1.000  H
  C894     1.0000 0.33533  0.16049  0.07634  Biso   1.000  C
  C895     1.0000 0.33533  0.16049  0.07629  Biso   1.000  C
  H994     1.0000 0.35580  0.19027  0.16118  Biso   1.000  H
  C896     1.0000 0.33533  0.16053  0.07634  Biso   1.000  C
  C897     1.0000 0.33533  0.16053  0.07629  Biso   1.000  C
  C898     1.0000 0.33660  0.08946  0.13001  Biso   1.000  C
  C899     1.0000 0.33660  0.08946  0.12996  Biso   1.000  C
  C900     1.0000 0.63032  0.87086  0.12010  Biso   1.000  C
  C901     1.0000 0.63032  0.87083  0.12010  Biso   1.000  C
  C902     1.0000 0.70040  0.88859  0.06851  Biso   1.000  C
  H995     1.0000 0.72179  0.91801  0.15308  Biso   1.000  H
  H996     1.0000 0.72179  0.91797  0.15308  Biso   1.000  H
  O317     1.0000 0.70269  0.00162  0.00231  Biso   1.000  O
  N663     1.0000 0.70209  0.92083  0.01783  Biso   1.000  N
  N664     1.0000 0.70209  0.92083  0.01778  Biso   1.000  N
  N665     1.0000 0.70209  0.92079  0.01783  Biso   1.000  N
  N666     1.0000 0.70209  0.92079  0.01778  Biso   1.000  N
  C903     1.0000 0.34868  0.18171  0.96561  Biso   1.000  C
  C904     1.0000 0.34868  0.18171  0.96556  Biso   1.000  C
  N667     1.0000 0.32028  0.11169  0.07910  Biso   1.000  N
  H997     1.0000 0.30788  0.18259  0.07828  Biso   1.000  H
  N668     1.0000 0.32028  0.11169  0.07905  Biso   1.000  N
  H998     1.0000 0.30788  0.18262  0.07828  Biso   1.000  H
  O318     1.0000 0.32511  0.04972  0.14716  Biso   1.000  O
  O319     1.0000 0.32511  0.04972  0.14711  Biso   1.000  O
  O320     1.0000 0.59388  0.85029  0.13435  Biso   1.000  O
  N669     1.0000 0.65759  0.86043  0.07064  Biso   1.000  N
  N670     1.0000 0.65759  0.86040  0.07064  Biso   1.000  N
  H999     1.0000 0.72940  0.86871  0.07118  Biso   1.000  H
  H1000    1.0000 0.72940  0.86868  0.07118  Biso   1.000  H
  C905     1.0000 0.71724  0.90768  0.95792  Biso   1.000  C
  N671     1.0000 0.34238  0.13957  0.92936  Biso   1.000  N
  H1001    1.0000 0.37109  0.20288  0.94479  Biso   1.000  H
  H1002    1.0000 0.31810  0.19841  0.96869  Biso   1.000  H
  N672     1.0000 0.34238  0.13957  0.92932  Biso   1.000  N
  H1003    1.0000 0.37109  0.20292  0.94479  Biso   1.000  H
  C906     1.0000 0.28276  0.09232  0.04208  Biso   1.000  C
  C907     1.0000 0.28276  0.09228  0.04208  Biso   1.000  C
  C908     1.0000 0.65128  0.81829  0.03439  Biso   1.000  C
  C909     1.0000 0.65128  0.81826  0.03439  Biso   1.000  C
  N673     1.0000 0.67972  0.88831  0.92090  Biso   1.000  N
  H1004    1.0000 0.74279  0.88411  0.96131  Biso   1.000  H
  H1005    1.0000 0.73038  0.93580  0.93742  Biso   1.000  H
  H1006    1.0000 0.74279  0.88411  0.96127  Biso   1.000  H
  H1007    1.0000 0.73038  0.93580  0.93737  Biso   1.000  H
  N674     1.0000 0.67972  0.88827  0.92090  Biso   1.000  N
  H1008    1.0000 0.74279  0.88408  0.96131  Biso   1.000  H
  H1009    1.0000 0.73038  0.93577  0.93742  Biso   1.000  H
  H1010    1.0000 0.74279  0.88408  0.96127  Biso   1.000  H
  H1011    1.0000 0.73038  0.93577  0.93737  Biso   1.000  H
  C910     1.0000 0.36968  0.12914  0.87990  Biso   1.000  C
  C911     1.0000 0.29960  0.11141  0.93149  Biso   1.000  C
  C912     1.0000 0.29960  0.11141  0.93144  Biso   1.000  C
  C913     1.0000 0.36968  0.12917  0.87990  Biso   1.000  C
  H1012    1.0000 0.26958  0.06420  0.06258  Biso   1.000  H
  N675     1.0000 0.29791  0.07917  0.98217  Biso   1.000  N
  N676     1.0000 0.29791  0.07921  0.98217  Biso   1.000  N
  H1013    1.0000 0.25718  0.11589  0.03869  Biso   1.000  H
  H1014    1.0000 0.25718  0.11592  0.03869  Biso   1.000  H
  N677     1.0000 0.63377  0.82812  0.97344  Biso   1.000  N
  H1015    1.0000 0.62887  0.79712  0.05521  Biso   1.000  H
  H1016    1.0000 0.68190  0.80159  0.03131  Biso   1.000  H
  H1017    1.0000 0.62887  0.79712  0.05516  Biso   1.000  H
  H1018    1.0000 0.68190  0.80159  0.03127  Biso   1.000  H
  H1019    1.0000 0.62887  0.79708  0.05521  Biso   1.000  H
  H1020    1.0000 0.62887  0.79708  0.05516  Biso   1.000  H
  C914     1.0000 0.66467  0.83951  0.92366  Biso   1.000  C
  C915     1.0000 0.66337  0.91054  0.86999  Biso   1.000  C
  C916     1.0000 0.66467  0.83947  0.92366  Biso   1.000  C
  N678     1.0000 0.34939  0.09274  0.84922  Biso   1.000  N
  O321     1.0000 0.40608  0.14971  0.86565  Biso   1.000  O
  N679     1.0000 0.34939  0.09274  0.84918  Biso   1.000  N
  O322     1.0000 0.40608  0.14971  0.86560  Biso   1.000  O
  O323     1.0000 0.40608  0.14968  0.86565  Biso   1.000  O
  O324     1.0000 0.40608  0.14968  0.86560  Biso   1.000  O
  H1021    1.0000 0.27060  0.13129  0.92882  Biso   1.000  H
  C917     1.0000 0.30496  0.07847  0.87597  Biso   1.000  C
  H1022    1.0000 0.27060  0.13129  0.92878  Biso   1.000  H
  C918     1.0000 0.30496  0.07847  0.87592  Biso   1.000  C
  H1023    1.0000 0.27060  0.13132  0.92882  Biso   1.000  H
  C919     1.0000 0.30496  0.07843  0.87597  Biso   1.000  C
  H1024    1.0000 0.27060  0.13132  0.92878  Biso   1.000  H
  C920     1.0000 0.30496  0.07843  0.87592  Biso   1.000  C
  C921     1.0000 0.30013  0.03298  0.96421  Biso   1.000  C
  C922     1.0000 0.30013  0.03298  0.96416  Biso   1.000  C
  C923     1.0000 0.30013  0.03294  0.96421  Biso   1.000  C
  C924     1.0000 0.30013  0.03294  0.96416  Biso   1.000  C
  C925     1.0000 0.59025  0.81481  0.95461  Biso   1.000  C
  C926     1.0000 0.59025  0.81481  0.95457  Biso   1.000  C
  C927     1.0000 0.63229  0.83440  0.86732  Biso   1.000  C
  H1025    1.0000 0.69208  0.81741  0.92172  Biso   1.000  H
  C928     1.0000 0.63229  0.83440  0.86728  Biso   1.000  C
  H1026    1.0000 0.69208  0.81741  0.92167  Biso   1.000  H
  H1027    1.0000 0.69208  0.81738  0.92172  Biso   1.000  H
  H1028    1.0000 0.69208  0.81738  0.92167  Biso   1.000  H
  O325     1.0000 0.67485  0.95028  0.85284  Biso   1.000  O
  N680     1.0000 0.63363  0.88052  0.84040  Biso   1.000  N
  N681     1.0000 0.63363  0.88052  0.84035  Biso   1.000  N
  O326     1.0000 0.67485  0.95025  0.85284  Biso   1.000  O
  C929     1.0000 0.36190  0.08136  0.78718  Biso   1.000  C
  C930     1.0000 0.36190  0.08139  0.78718  Biso   1.000  C
  N682     1.0000 0.30619  0.03157  0.90276  Biso   1.000  N
  H1029    1.0000 0.27818  0.08199  0.84692  Biso   1.000  H
  H1030    1.0000 0.27818  0.08199  0.84687  Biso   1.000  H
  O327     1.0000 0.29731  0.99838  0.99769  Biso   1.000  O
  O328     1.0000 0.29731  0.99838  0.99765  Biso   1.000  O
  O329     1.0000 0.29731  0.99834  0.99769  Biso   1.000  O
  O330     1.0000 0.29731  0.99834  0.99765  Biso   1.000  O
  O331     1.0000 0.55847  0.79934  0.98715  Biso   1.000  O
  N683     1.0000 0.58708  0.82139  0.89316  Biso   1.000  N
  N684     1.0000 0.58708  0.82136  0.89316  Biso   1.000  N
  H1031    1.0000 0.64420  0.80970  0.83882  Biso   1.000  H
  H1032    1.0000 0.64420  0.80970  0.83877  Biso   1.000  H
  C931     1.0000 0.61664  0.88982  0.77963  Biso   1.000  C
  N685     1.0000 0.38170  0.03390  0.78035  Biso   1.000  N
  H1033    1.0000 0.33350  0.08411  0.76148  Biso   1.000  H
  H1034    1.0000 0.38519  0.10468  0.77261  Biso   1.000  H
  H1035    1.0000 0.38519  0.10468  0.77257  Biso   1.000  H
  N686     1.0000 0.38170  0.03386  0.78035  Biso   1.000  N
  H1036    1.0000 0.33350  0.08407  0.76148  Biso   1.000  H
  C932     1.0000 0.29788  0.98915  0.86782  Biso   1.000  C
  C933     1.0000 0.29788  0.98915  0.86778  Biso   1.000  C
  C934     1.0000 0.55037  0.79930  0.85732  Biso   1.000  C
  C935     1.0000 0.55037  0.79930  0.85728  Biso   1.000  C
  N687     1.0000 0.56570  0.89507  0.77601  Biso   1.000  N
  H1037    1.0000 0.62648  0.86361  0.75288  Biso   1.000  H
  H1038    1.0000 0.63169  0.91900  0.76442  Biso   1.000  H
  H1039    1.0000 0.63169  0.91900  0.76438  Biso   1.000  H
  H1040    1.0000 0.62648  0.86357  0.75288  Biso   1.000  H
  C936     1.0000 0.35277  0.99190  0.77705  Biso   1.000  C
  C937     1.0000 0.35277  0.99190  0.77700  Biso   1.000  C
  C938     1.0000 0.42655  0.02643  0.76112  Biso   1.000  C
  N688     1.0000 0.33917  0.97290  0.83547  Biso   1.000  N
  H1041    1.0000 0.27229  0.99531  0.83841  Biso   1.000  H
  H1042    1.0000 0.28709  0.96388  0.89538  Biso   1.000  H
  H1043    1.0000 0.27229  0.99531  0.83836  Biso   1.000  H
  N689     1.0000 0.33917  0.97287  0.83547  Biso   1.000  N
  H1044    1.0000 0.27229  0.99528  0.83841  Biso   1.000  H
  H1045    1.0000 0.27229  0.99528  0.83836  Biso   1.000  H
  N690     1.0000 0.52081  0.83263  0.82574  Biso   1.000  N
  N691     1.0000 0.52081  0.83260  0.82574  Biso   1.000  N
  H1046    1.0000 0.56520  0.77802  0.82732  Biso   1.000  H
  H1047    1.0000 0.53039  0.77982  0.88420  Biso   1.000  H
  H1048    1.0000 0.56520  0.77802  0.82728  Biso   1.000  H
  H1049    1.0000 0.56520  0.77799  0.82732  Biso   1.000  H
  H1050    1.0000 0.53039  0.77978  0.88420  Biso   1.000  H
  H1051    1.0000 0.56520  0.77799  0.82728  Biso   1.000  H
  C939     1.0000 0.54512  0.93644  0.75908  Biso   1.000  C
  C940     1.0000 0.54512  0.93644  0.75904  Biso   1.000  C
  C941     1.0000 0.53448  0.85522  0.76908  Biso   1.000  C
  H1052    1.0000 0.32501  0.99641  0.74990  Biso   1.000  H
  C942     1.0000 0.38702  0.95476  0.75212  Biso   1.000  C
  C943     1.0000 0.38702  0.95476  0.75207  Biso   1.000  C
  H1053    1.0000 0.32501  0.99637  0.74990  Biso   1.000  H
  N692     1.0000 0.43110  0.97992  0.74678  Biso   1.000  N
  N693     1.0000 0.43110  0.97992  0.74673  Biso   1.000  N
  O332     1.0000 0.45784  0.05662  0.75673  Biso   1.000  O
  C944     1.0000 0.35792  0.92897  0.84529  Biso   1.000  C
  C945     1.0000 0.35792  0.92893  0.84529  Biso   1.000  C
  C946     1.0000 0.47373  0.83725  0.83750  Biso   1.000  C
  N694     1.0000 0.49900  0.92770  0.74460  Biso   1.000  N
  N695     1.0000 0.49900  0.92770  0.74456  Biso   1.000  N
  O333     1.0000 0.56471  0.97527  0.75650  Biso   1.000  O
  O334     1.0000 0.56471  0.97527  0.75646  Biso   1.000  O
  C947     1.0000 0.48754  0.87826  0.74741  Biso   1.000  C
  C948     1.0000 0.48754  0.87826  0.74736  Biso   1.000  C
  H1054    1.0000 0.54677  0.83189  0.73899  Biso   1.000  H
  N696     1.0000 0.38705  0.91801  0.79764  Biso   1.000  N
  H1055    1.0000 0.37631  0.94250  0.71202  Biso   1.000  H
  H1056    1.0000 0.37631  0.94250  0.71198  Biso   1.000  H
  N697     1.0000 0.38705  0.91797  0.79764  Biso   1.000  N
  C949     1.0000 0.47077  0.96195  0.71171  Biso   1.000  C
  O335     1.0000 0.35002  0.90356  0.88891  Biso   1.000  O
  O336     1.0000 0.35002  0.90356  0.88886  Biso   1.000  O
  O337     1.0000 0.35002  0.90353  0.88891  Biso   1.000  O
  O338     1.0000 0.35002  0.90353  0.88886  Biso   1.000  O
  N698     1.0000 0.45425  0.86544  0.79424  Biso   1.000  N
  O339     1.0000 0.45291  0.81843  0.87986  Biso   1.000  O
  O340     1.0000 0.45291  0.81843  0.87981  Biso   1.000  O
  H1057    1.0000 0.47768  0.86590  0.70700  Biso   1.000  H
  C950     1.0000 0.40362  0.87051  0.78651  Biso   1.000  C
  H1058    1.0000 0.49121  0.98869  0.69981  Biso   1.000  H
  H1059    1.0000 0.45869  0.94711  0.67428  Biso   1.000  H
  H1060    1.0000 0.45869  0.94708  0.67428  Biso   1.000  H
  H1061    1.0000 0.38741  0.84870  0.81452  Biso   1.000  H
  H1062    1.0000 0.39509  0.86132  0.74469  Biso   1.000  H
  H1063    1.0000 0.38741  0.84870  0.81447  Biso   1.000  H
  H1064    1.0000 0.39509  0.86128  0.74469  Biso   1.000  H
  C951     1.0000 0.45069  0.30038  0.60727  Biso   1.000  C
  N699     1.0000 0.41736  0.27081  0.57573  Biso   1.000  N
  N700     1.0000 0.42860  0.33709  0.64315  Biso   1.000  N
  H1065    1.0000 0.47201  0.31521  0.57731  Biso   1.000  H
  H1066    1.0000 0.47021  0.28040  0.63419  Biso   1.000  H
  C952     1.0000 0.39477  0.28449  0.51907  Biso   1.000  C
  C953     1.0000 0.41274  0.22374  0.58749  Biso   1.000  C
  C954     1.0000 0.41559  0.38230  0.61727  Biso   1.000  C
  C955     1.0000 0.43519  0.34026  0.70460  Biso   1.000  C
  C956     1.0000 0.37173  0.23755  0.49740  Biso   1.000  C
  N701     1.0000 0.35492  0.31570  0.52600  Biso   1.000  N
  H1067    1.0000 0.41810  0.29678  0.48898  Biso   1.000  H
  N702     1.0000 0.38455  0.20422  0.54423  Biso   1.000  N
  O341     1.0000 0.43156  0.20288  0.62985  Biso   1.000  O
  N703     1.0000 0.36947  0.38364  0.59039  Biso   1.000  N
  H1068    1.0000 0.44029  0.39421  0.58880  Biso   1.000  H
  C957     1.0000 0.41049  0.41468  0.67365  Biso   1.000  C
  O342     1.0000 0.45065  0.30848  0.73714  Biso   1.000  O
  N704     1.0000 0.42187  0.38378  0.72343  Biso   1.000  N
  N705     1.0000 0.32229  0.24897  0.49459  Biso   1.000  N
  H1069    1.0000 0.38409  0.22769  0.45699  Biso   1.000  H
  C958     1.0000 0.31355  0.29513  0.50907  Biso   1.000  C
  C959     1.0000 0.36017  0.36665  0.52962  Biso   1.000  C
  C960     1.0000 0.37948  0.15362  0.53649  Biso   1.000  C
  C961     1.0000 0.33945  0.41338  0.61998  Biso   1.000  C
  N706     1.0000 0.36172  0.42972  0.67089  Biso   1.000  N
  H1070    1.0000 0.43258  0.44209  0.67170  Biso   1.000  H
  C962     1.0000 0.43170  0.40129  0.78438  Biso   1.000  C
  C963     1.0000 0.28804  0.22078  0.46170  Biso   1.000  C
  O343     1.0000 0.27473  0.31472  0.50645  Biso   1.000  O
  H1071    1.0000 0.38639  0.37648  0.50287  Biso   1.000  H
  H1072    1.0000 0.33100  0.38170  0.51441  Biso   1.000  H
  N707     1.0000 0.33198  0.13706  0.54763  Biso   1.000  N
  H1073    1.0000 0.40129  0.13738  0.56451  Biso   1.000  H
  H1074    1.0000 0.38871  0.14510  0.49468  Biso   1.000  H
  O344     1.0000 0.29971  0.42486  0.60283  Biso   1.000  O
  C964     1.0000 0.34231  0.46725  0.70791  Biso   1.000  C
  N708     1.0000 0.38956  0.40760  0.82063  Biso   1.000  N
  H1075    1.0000 0.45291  0.37888  0.80519  Biso   1.000  H
  H1076    1.0000 0.44840  0.43191  0.78130  Biso   1.000  H
  N709     1.0000 0.27008  0.18107  0.49676  Biso   1.000  N
  H1077    1.0000 0.26130  0.24118  0.44979  Biso   1.000  H
  H1078    1.0000 0.30288  0.20870  0.42427  Biso   1.000  H
  C965     1.0000 0.29523  0.13703  0.50210  Biso   1.000  C
  C966     1.0000 0.32102  0.10792  0.59528  Biso   1.000  C
  N710     1.0000 0.32916  0.45210  0.76782  Biso   1.000  N
  H1079    1.0000 0.36588  0.49279  0.71130  Biso   1.000  H
  H1080    1.0000 0.31419  0.48039  0.68741  Biso   1.000  H
  C967     1.0000 0.36140  0.45041  0.81850  Biso   1.000  C
  C968     1.0000 0.37913  0.38032  0.87008  Biso   1.000  C
  C969     1.0000 0.22357  0.17656  0.51111  Biso   1.000  C
  C970     1.0000 0.25810  0.10278  0.52704  Biso   1.000  C
  H1081    1.0000 0.30749  0.12628  0.46201  Biso   1.000  H
  N711     1.0000 0.27709  0.08918  0.58546  Biso   1.000  N
  O345     1.0000 0.34643  0.10003  0.63890  Biso   1.000  O
  C971     1.0000 0.28297  0.44984  0.78578  Biso   1.000  C
  H1082    1.0000 0.38128  0.47941  0.82117  Biso   1.000  H
  C972     1.0000 0.32846  0.44502  0.87402  Biso   1.000  C
  O346     1.0000 0.39970  0.34389  0.88434  Biso   1.000  O
  N712     1.0000 0.34273  0.40062  0.90076  Biso   1.000  N
  O347     1.0000 0.19337  0.20785  0.50672  Biso   1.000  O
  N713     1.0000 0.21613  0.13171  0.53034  Biso   1.000  N
  H1083    1.0000 0.25359  0.07501  0.49989  Biso   1.000  H
  C973     1.0000 0.26084  0.04788  0.61781  Biso   1.000  C
  O348     1.0000 0.24837  0.45270  0.75230  Biso   1.000  O
  N714     1.0000 0.28156  0.44378  0.84723  Biso   1.000  N
  H1084    1.0000 0.33198  0.47179  0.90307  Biso   1.000  H
  C974     1.0000 0.33135  0.38808  0.96280  Biso   1.000  C
  C975     1.0000 0.16863  0.11191  0.53717  Biso   1.000  C
  N715     1.0000 0.21842  0.05620  0.65274  Biso   1.000  N
  H1085    1.0000 0.25471  0.02230  0.58840  Biso   1.000  H
  H1086    1.0000 0.28611  0.03710  0.64537  Biso   1.000  H
  C976     1.0000 0.23914  0.45210  0.88217  Biso   1.000  C
  N716     1.0000 0.28389  0.36831  0.96964  Biso   1.000  N
  H1087    1.0000 0.33410  0.41648  0.98846  Biso   1.000  H
  H1088    1.0000 0.35471  0.36479  0.97737  Biso   1.000  H
  N717     1.0000 0.15725  0.09936  0.59921  Biso   1.000  N
  H1089    1.0000 0.16589  0.08351  0.51147  Biso   1.000  H
  H1090    1.0000 0.14531  0.13520  0.52260  Biso   1.000  H
  C977     1.0000 0.17152  0.05497  0.62596  Biso   1.000  C
  C978     1.0000 0.21701  0.05014  0.71420  Biso   1.000  C
  N718     1.0000 0.22290  0.41080  0.91452  Biso   1.000  N
  H1091    1.0000 0.24530  0.47768  0.91158  Biso   1.000  H
  H1092    1.0000 0.21391  0.46288  0.85456  Biso   1.000  H
  C979     1.0000 0.24189  0.39720  0.97294  Biso   1.000  C
  C980     1.0000 0.27645  0.32342  0.98887  Biso   1.000  C
  C981     1.0000 0.12086  0.11969  0.62989  Biso   1.000  C
  C982     1.0000 0.13858  0.04961  0.68148  Biso   1.000  C
  H1093    1.0000 0.16800  0.02819  0.59690  Biso   1.000  H
  N719     1.0000 0.17082  0.04792  0.73216  Biso   1.000  N
  O349     1.0000 0.25161  0.04732  0.74768  Biso   1.000  O
  C983     1.0000 0.17896  0.39206  0.90470  Biso   1.000  C
  C984     1.0000 0.20475  0.36299  0.99787  Biso   1.000  C
  H1094    1.0000 0.24640  0.42500  0.00009  Biso   1.000  H
  O350     1.0000 0.30665  0.29213  0.99326  Biso   1.000  O
  N720     1.0000 0.22994  0.31891  0.00321  Biso   1.000  N
  O351     1.0000 0.10028  0.15609  0.61564  Biso   1.000  O
  N721     1.0000 0.11043  0.09239  0.67935  Biso   1.000  N
  H1095    1.0000 0.11871  0.02061  0.67881  Biso   1.000  H
  C985     1.0000 0.15768  0.03277  0.79207  Biso   1.000  C
  O352     1.0000 0.15355  0.39995  0.86108  Biso   1.000  O
  N722     1.0000 0.16800  0.36292  0.95235  Biso   1.000  N
  H1096    1.0000 0.19249  0.37370  0.03797  Biso   1.000  H
  C986     1.0000 0.21197  0.27920  0.03828  Biso   1.000  C
  C987     1.0000 0.06829  0.09869  0.71560  Biso   1.000  C
  N723     1.0000 0.13830  0.07029  0.82909  Biso   1.000  N
  H1097    1.0000 0.13410  0.00719  0.78868  Biso   1.000  H
  H1098    1.0000 0.18579  0.01959  0.81257  Biso   1.000  H
  C988     1.0000 0.12050  0.34636  0.96348  Biso   1.000  C
  N724     1.0000 0.17769  0.25101  0.00538  Biso   1.000  N
  H1099    1.0000 0.23868  0.25880  0.05018  Biso   1.000  H
  H1100    1.0000 0.19710  0.29129  0.07566  Biso   1.000  H
  N725     1.0000 0.07812  0.11624  0.77655  Biso   1.000  N
  H1101    1.0000 0.04711  0.12110  0.69478  Biso   1.000  H
  H1102    1.0000 0.05158  0.06811  0.71868  Biso   1.000  H
  C989     1.0000 0.08950  0.08534  0.82633  Biso   1.000  C
  C990     1.0000 0.16053  0.08661  0.87999  Biso   1.000  C
  N726     1.0000 0.11543  0.29576  0.95574  Biso   1.000  N
  H1103    1.0000 0.09869  0.36260  0.93547  Biso   1.000  H
  H1104    1.0000 0.11131  0.35489  0.00529  Biso   1.000  H
  C991     1.0000 0.12825  0.26243  0.00258  Biso   1.000  C
  C992     1.0000 0.18646  0.20489  0.99090  Biso   1.000  C
  C993     1.0000 0.06483  0.15975  0.79538  Biso   1.000  C
  C994     1.0000 0.08439  0.11768  0.88266  Biso   1.000  C
  H1105    1.0000 0.06740  0.05789  0.82827  Biso   1.000  H
  N727     1.0000 0.13055  0.11638  0.90959  Biso   1.000  N
  O353     1.0000 0.20027  0.07512  0.89714  Biso   1.000  O
  C995     1.0000 0.08724  0.27624  0.91248  Biso   1.000  C
  C996     1.0000 0.10521  0.21553  0.98090  Biso   1.000  C
  H1106    1.0000 0.11589  0.27229  0.04299  Biso   1.000  H
  N728     1.0000 0.14506  0.18428  0.97398  Biso   1.000  N
  O354     1.0000 0.22526  0.18526  0.99348  Biso   1.000  O
  O355     1.0000 0.04933  0.19150  0.76284  Biso   1.000  O
  N729     1.0000 0.07139  0.16289  0.85683  Biso   1.000  N
  H1107    1.0000 0.05969  0.10581  0.91117  Biso   1.000  H
  C997     1.0000 0.13981  0.13333  0.97036  Biso   1.000  C
  N730     1.0000 0.08263  0.22920  0.92425  Biso   1.000  N
  O356     1.0000 0.06843  0.29710  0.87013  Biso   1.000  O
  H1108    1.0000 0.08189  0.20320  0.01100  Biso   1.000  H
  C998     1.0000 0.04929  0.19964  0.89266  Biso   1.000  C
  H1109    1.0000 0.11360  0.12350  0.99710  Biso   1.000  H
  H1110    1.0000 0.16899  0.11828  0.98556  Biso   1.000  H
  H1111    1.0000 0.02801  0.18481  0.92267  Biso   1.000  H
  H1112    1.0000 0.02981  0.21958  0.86579  Biso   1.000  H
  C999     1.0000 0.65769  0.53275  0.29209  Biso   1.000  C
  N731     1.0000 0.67080  0.54790  0.23218  Biso   1.000  N
  N732     1.0000 0.63828  0.57028  0.32906  Biso   1.000  N
  H1113    1.0000 0.63409  0.50721  0.28870  Biso   1.000  H
  H1114    1.0000 0.68578  0.51961  0.31259  Biso   1.000  H
  C1000    1.0000 0.63860  0.54959  0.18146  Biso   1.000  C
  C1001    1.0000 0.71703  0.55012  0.21422  Biso   1.000  C
  C1002    1.0000 0.58948  0.58532  0.32630  Biso   1.000  C
  C1003    1.0000 0.66055  0.58662  0.37997  Biso   1.000  C
  N733     1.0000 0.61041  0.59237  0.17933  Biso   1.000  N
  H1115    1.0000 0.61869  0.52059  0.17879  Biso   1.000  H
  C1004    1.0000 0.67154  0.55495  0.12598  Biso   1.000  C
  N734     1.0000 0.71840  0.55622  0.15277  Biso   1.000  N
  O357     1.0000 0.75163  0.54730  0.24766  Biso   1.000  O
  N735     1.0000 0.57813  0.61622  0.27653  Biso   1.000  N
  C1005    1.0000 0.58441  0.61770  0.38269  Biso   1.000  C
  H1116    1.0000 0.56739  0.55787  0.32830  Biso   1.000  H
  N736     1.0000 0.63053  0.61636  0.40961  Biso   1.000  N
  O358     1.0000 0.70026  0.57510  0.39712  Biso   1.000  O
  C1006    1.0000 0.56827  0.59868  0.21558  Biso   1.000  C
  C1007    1.0000 0.62084  0.61968  0.12992  Biso   1.000  C
  N737     1.0000 0.65727  0.59938  0.09919  Biso   1.000  N
  H1117    1.0000 0.66798  0.52821  0.09688  Biso   1.000  H
  C1008    1.0000 0.76083  0.54787  0.11779  Biso   1.000  C
  C1009    1.0000 0.56481  0.65974  0.29540  Biso   1.000  C
  N738     1.0000 0.57137  0.66291  0.35685  Biso   1.000  N
  H1118    1.0000 0.55971  0.60579  0.41120  Biso   1.000  H
  C1010    1.0000 0.63979  0.63335  0.47038  Biso   1.000  C
  H1119    1.0000 0.54709  0.62108  0.19481  Biso   1.000  H
  H1120    1.0000 0.55160  0.56809  0.21870  Biso   1.000  H
  O359     1.0000 0.60030  0.65607  0.11562  Biso   1.000  O
  C1011    1.0000 0.66862  0.61192  0.03720  Biso   1.000  C
  N739     1.0000 0.77707  0.58916  0.08548  Biso   1.000  N
  H1121    1.0000 0.75470  0.52229  0.08842  Biso   1.000  H
  H1122    1.0000 0.78609  0.53708  0.14539  Biso   1.000  H
  O360     1.0000 0.54935  0.69148  0.26286  Biso   1.000  O
  C1012    1.0000 0.54928  0.69962  0.39269  Biso   1.000  C
  N740     1.0000 0.64504  0.68426  0.47400  Biso   1.000  N
  H1123    1.0000 0.61358  0.62348  0.49708  Biso   1.000  H
  H1124    1.0000 0.66900  0.61830  0.48559  Biso   1.000  H
  N741     1.0000 0.71611  0.63169  0.03036  Biso   1.000  N
  H1125    1.0000 0.66590  0.58349  0.01149  Biso   1.000  H
  H1126    1.0000 0.64529  0.63518  0.02258  Biso   1.000  H
  C1013    1.0000 0.75808  0.60276  0.02706  Biso   1.000  C
  C1014    1.0000 0.82104  0.60791  0.09530  Biso   1.000  C
  N742     1.0000 0.58261  0.72919  0.42427  Biso   1.000  N
  H1127    1.0000 0.52799  0.68479  0.42269  Biso   1.000  H
  H1128    1.0000 0.52979  0.71960  0.36581  Biso   1.000  H
  C1015    1.0000 0.60519  0.71551  0.48088  Biso   1.000  C
  C1016    1.0000 0.68645  0.70487  0.49093  Biso   1.000  C
  C1017    1.0000 0.72355  0.67654  0.01113  Biso   1.000  C
  C1018    1.0000 0.79522  0.63701  0.00208  Biso   1.000  C
  H1129    1.0000 0.75360  0.57500  0.99991  Biso   1.000  H
  N743     1.0000 0.83200  0.63705  0.04765  Biso   1.000  N
  O361     1.0000 0.84641  0.60001  0.13888  Biso   1.000  O
  C1019    1.0000 0.58726  0.77626  0.41251  Biso   1.000  C
  C1020    1.0000 0.62827  0.76241  0.50260  Biso   1.000  C
  H1130    1.0000 0.58190  0.70318  0.51097  Biso   1.000  H
  N744     1.0000 0.67771  0.75100  0.50541  Biso   1.000  N
  O362     1.0000 0.72527  0.68528  0.49351  Biso   1.000  O
  O363     1.0000 0.69335  0.70783  0.00674  Biso   1.000  O
  N745     1.0000 0.77006  0.68109  0.99674  Biso   1.000  N
  H1131    1.0000 0.80748  0.62630  0.96199  Biso   1.000  H
  C1021    1.0000 0.87946  0.65361  0.03652  Biso   1.000  C
  O364     1.0000 0.56844  0.79708  0.37015  Biso   1.000  O
  N746     1.0000 0.61541  0.79574  0.45577  Biso   1.000  N
  H1132    1.0000 0.61591  0.77228  0.54301  Biso   1.000  H
  C1022    1.0000 0.71196  0.77922  0.53830  Biso   1.000  C
  C1023    1.0000 0.78803  0.72076  0.96172  Biso   1.000  C
  N747     1.0000 0.88454  0.70424  0.04426  Biso   1.000  N
  H1133    1.0000 0.90127  0.63740  0.06448  Biso   1.000  H
  H1134    1.0000 0.88869  0.64508  0.99471  Biso   1.000  H
  C1024    1.0000 0.62049  0.84634  0.46351  Biso   1.000  C
  N748     1.0000 0.72992  0.81889  0.50324  Biso   1.000  N
  H1135    1.0000 0.73870  0.75878  0.55021  Biso   1.000  H
  H1136    1.0000 0.69709  0.79127  0.57568  Biso   1.000  H
  N749     1.0000 0.82228  0.74899  0.99457  Biso   1.000  N
  H1137    1.0000 0.76128  0.74120  0.94982  Biso   1.000  H
  H1138    1.0000 0.80290  0.70868  0.92430  Biso   1.000  H
  C1025    1.0000 0.87171  0.73754  0.99738  Biso   1.000  C
  C1026    1.0000 0.91272  0.72372  0.08752  Biso   1.000  C
  N750     1.0000 0.66798  0.86290  0.45237  Biso   1.000  N
  H1139    1.0000 0.59868  0.86258  0.43549  Biso   1.000  H
  H1140    1.0000 0.61129  0.85487  0.50527  Biso   1.000  H
  C1027    1.0000 0.70477  0.86297  0.49790  Biso   1.000  C
  C1028    1.0000 0.77643  0.82340  0.48885  Biso   1.000  C
  C1029    1.0000 0.81354  0.79511  0.00905  Biso   1.000  C
  C1030    1.0000 0.89475  0.78447  0.01910  Biso   1.000  C
  H1141    1.0000 0.88408  0.72767  0.95701  Biso   1.000  H
  N751     1.0000 0.91734  0.77080  0.07575  Biso   1.000  N
  O365     1.0000 0.93154  0.70290  0.12982  Biso   1.000  O
  C1031    1.0000 0.67894  0.89204  0.40468  Biso   1.000  C
  C1032    1.0000 0.74187  0.89718  0.47296  Biso   1.000  C
  H1142    1.0000 0.69247  0.87368  0.53799  Biso   1.000  H
  N752     1.0000 0.78387  0.86829  0.46961  Biso   1.000  N
  O366     1.0000 0.80663  0.79215  0.49323  Biso   1.000  O
  N753     1.0000 0.85490  0.81569  0.02602  Biso   1.000  N
  O367     1.0000 0.77471  0.81470  0.00647  Biso   1.000  O
  H1143    1.0000 0.91808  0.79680  0.98900  Biso   1.000  H
  C1033    1.0000 0.95067  0.80036  0.10729  Biso   1.000  C
  O368     1.0000 0.65354  0.89997  0.36110  Biso   1.000  O
  N754     1.0000 0.72288  0.91082  0.41450  Biso   1.000  N
  H1144    1.0000 0.74638  0.92499  0.50011  Biso   1.000  H
  C1034    1.0000 0.83137  0.88806  0.46278  Biso   1.000  C
  C1035    1.0000 0.86015  0.86664  0.02964  Biso   1.000  C
  N755     1.0000 0.92858  0.83707  0.14317  Biso   1.000  N
  H1145    1.0000 0.97199  0.81519  0.07729  Biso   1.000  H
  H1146    1.0000 0.97019  0.78038  0.13421  Biso   1.000  H
  C1036    1.0000 0.73916  0.95212  0.38219  Biso   1.000  C
  N756     1.0000 0.84271  0.90060  0.40079  Biso   1.000  N
  H1147    1.0000 0.83408  0.91649  0.48848  Biso   1.000  H
  H1148    1.0000 0.85469  0.86477  0.47740  Biso   1.000  H
  N757     1.0000 0.86945  0.88362  0.09037  Biso   1.000  N
  H1149    1.0000 0.88637  0.87650  0.00290  Biso   1.000  H
  H1150    1.0000 0.83098  0.88168  0.01439  Biso   1.000  H
  C1037    1.0000 0.91558  0.88228  0.11729  Biso   1.000  C
  C1038    1.0000 0.93517  0.84025  0.20458  Biso   1.000  C
  N758     1.0000 0.78158  0.94377  0.34726  Biso   1.000  N
  H1151    1.0000 0.74529  0.97770  0.41160  Biso   1.000  H
  H1152    1.0000 0.71389  0.96290  0.35459  Biso   1.000  H
  C1039    1.0000 0.82844  0.94500  0.37404  Biso   1.000  C
  C1040    1.0000 0.87911  0.88031  0.37011  Biso   1.000  C
  C1041    1.0000 0.83943  0.91336  0.12001  Biso   1.000  C
  H1153    1.0000 0.94028  0.89419  0.08878  Biso   1.000  H
  C1042    1.0000 0.91047  0.91466  0.17367  Biso   1.000  C
  N759     1.0000 0.92185  0.88376  0.22345  Biso   1.000  N
  O369     1.0000 0.95064  0.80846  0.23716  Biso   1.000  O
  C1043    1.0000 0.78295  0.94986  0.28580  Biso   1.000  C
  C1044    1.0000 0.86139  0.95039  0.31852  Biso   1.000  C
  H1154    1.0000 0.83200  0.97178  0.40310  Biso   1.000  H
  O370     1.0000 0.89969  0.84387  0.38436  Biso   1.000  O
  N760     1.0000 0.88957  0.90758  0.32065  Biso   1.000  N
  O371     1.0000 0.79969  0.92488  0.10286  Biso   1.000  O
  N761     1.0000 0.86170  0.92971  0.17091  Biso   1.000  N
  H1155    1.0000 0.93260  0.94207  0.17168  Biso   1.000  H
  C1045    1.0000 0.93168  0.90127  0.28440  Biso   1.000  C
  O372     1.0000 0.74835  0.95268  0.25232  Biso   1.000  O
  N762     1.0000 0.82918  0.95208  0.26779  Biso   1.000  N
  H1156    1.0000 0.88129  0.97939  0.32119  Biso   1.000  H
  C1046    1.0000 0.84229  0.96723  0.20793  Biso   1.000  C
  H1157    1.0000 0.95289  0.87890  0.30517  Biso   1.000  H
  H1158    1.0000 0.94838  0.93189  0.28128  Biso   1.000  H
  H1159    1.0000 0.86590  0.99278  0.21128  Biso   1.000  H
  H1160    1.0000 0.81417  0.98037  0.18738  Biso   1.000  H
  C1047    1.0000 0.63807  0.41863  0.78718  Biso   1.000  C
  N763     1.0000 0.61830  0.46612  0.78035  Biso   1.000  N
  N764     1.0000 0.65061  0.40728  0.84922  Biso   1.000  N
  H1161    1.0000 0.66650  0.41588  0.76148  Biso   1.000  H
  H1162    1.0000 0.61478  0.39530  0.77261  Biso   1.000  H
  N765     1.0000 0.65061  0.40728  0.84918  Biso   1.000  N
  H1163    1.0000 0.61478  0.39530  0.77257  Biso   1.000  H
  C1048    1.0000 0.57341  0.47356  0.76112  Biso   1.000  C
  C1049    1.0000 0.64719  0.50809  0.77705  Biso   1.000  C
  C1050    1.0000 0.64719  0.50809  0.77700  Biso   1.000  C
  C1051    1.0000 0.63032  0.37085  0.87990  Biso   1.000  C
  C1052    1.0000 0.69501  0.42155  0.87597  Biso   1.000  C
  C1053    1.0000 0.69501  0.42155  0.87592  Biso   1.000  C
  N766     1.0000 0.56890  0.52007  0.74678  Biso   1.000  N
  N767     1.0000 0.56890  0.52007  0.74673  Biso   1.000  N
  O373     1.0000 0.54212  0.44336  0.75673  Biso   1.000  O
  C1054    1.0000 0.61298  0.54522  0.75212  Biso   1.000  C
  C1055    1.0000 0.61298  0.54522  0.75207  Biso   1.000  C
  N768     1.0000 0.66079  0.52708  0.83547  Biso   1.000  N
  H1164    1.0000 0.67499  0.50358  0.74990  Biso   1.000  H
  O374     1.0000 0.59388  0.35027  0.86565  Biso   1.000  O
  N769     1.0000 0.65759  0.36042  0.92936  Biso   1.000  N
  O375     1.0000 0.59388  0.35027  0.86560  Biso   1.000  O
  N770     1.0000 0.65759  0.36042  0.92932  Biso   1.000  N
  N771     1.0000 0.69377  0.46841  0.90276  Biso   1.000  N
  C1056    1.0000 0.70040  0.38857  0.93149  Biso   1.000  C
  H1165    1.0000 0.72179  0.41799  0.84692  Biso   1.000  H
  C1057    1.0000 0.70040  0.38857  0.93144  Biso   1.000  C
  H1166    1.0000 0.72179  0.41799  0.84687  Biso   1.000  H
  C1058    1.0000 0.52923  0.53804  0.71171  Biso   1.000  C
  N772     1.0000 0.61291  0.58197  0.79764  Biso   1.000  N
  H1167    1.0000 0.62369  0.55749  0.71202  Biso   1.000  H
  H1168    1.0000 0.62369  0.55749  0.71198  Biso   1.000  H
  C1059    1.0000 0.64205  0.57102  0.84529  Biso   1.000  C
  C1060    1.0000 0.70212  0.51083  0.86782  Biso   1.000  C
  C1061    1.0000 0.70212  0.51083  0.86778  Biso   1.000  C
  C1062    1.0000 0.65128  0.31828  0.96561  Biso   1.000  C
  C1063    1.0000 0.65128  0.31828  0.96556  Biso   1.000  C
  C1064    1.0000 0.69983  0.46704  0.96421  Biso   1.000  C
  C1065    1.0000 0.69983  0.46704  0.96416  Biso   1.000  C
  N773     1.0000 0.70209  0.42081  0.98217  Biso   1.000  N
  H1169    1.0000 0.72940  0.36870  0.92882  Biso   1.000  H
  H1170    1.0000 0.72940  0.36870  0.92878  Biso   1.000  H
  N774     1.0000 0.50100  0.57228  0.74460  Biso   1.000  N
  N775     1.0000 0.50100  0.57228  0.74456  Biso   1.000  N
  H1171    1.0000 0.50879  0.51129  0.69981  Biso   1.000  H
  H1172    1.0000 0.54128  0.55291  0.67428  Biso   1.000  H
  C1066    1.0000 0.59635  0.62947  0.78651  Biso   1.000  C
  O376     1.0000 0.64994  0.59642  0.88891  Biso   1.000  O
  O377     1.0000 0.64994  0.59642  0.88886  Biso   1.000  O
  H1173    1.0000 0.72767  0.50470  0.83841  Biso   1.000  H
  H1174    1.0000 0.71287  0.53610  0.89538  Biso   1.000  H
  H1175    1.0000 0.72767  0.50470  0.83836  Biso   1.000  H
  H1176    1.0000 0.62887  0.29710  0.94479  Biso   1.000  H
  H1177    1.0000 0.68190  0.30161  0.96869  Biso   1.000  H
  N776     1.0000 0.63377  0.32811  0.02656  Biso   1.000  N
  N777     1.0000 0.63377  0.32811  0.02652  Biso   1.000  N
  O378     1.0000 0.70269  0.50164  0.99769  Biso   1.000  O
  O379     1.0000 0.70269  0.50164  0.99765  Biso   1.000  O
  C1067    1.0000 0.71724  0.40767  0.04208  Biso   1.000  C
  C1068    1.0000 0.45488  0.56355  0.75908  Biso   1.000  C
  C1069    1.0000 0.45488  0.56355  0.75904  Biso   1.000  C
  C1070    1.0000 0.51242  0.62172  0.74741  Biso   1.000  C
  C1071    1.0000 0.51242  0.62172  0.74736  Biso   1.000  C
  N778     1.0000 0.54575  0.63454  0.79424  Biso   1.000  N
  H1178    1.0000 0.61259  0.65128  0.81452  Biso   1.000  H
  H1179    1.0000 0.60488  0.63870  0.74469  Biso   1.000  H
  H1180    1.0000 0.61259  0.65128  0.81447  Biso   1.000  H
  C1072    1.0000 0.59025  0.31482  0.04539  Biso   1.000  C
  C1073    1.0000 0.66467  0.33949  0.07634  Biso   1.000  C
  C1074    1.0000 0.66467  0.33949  0.07629  Biso   1.000  C
  N779     1.0000 0.67972  0.38829  0.07910  Biso   1.000  N
  H1181    1.0000 0.74279  0.38409  0.03869  Biso   1.000  H
  H1182    1.0000 0.73038  0.43578  0.06258  Biso   1.000  H
  N780     1.0000 0.67972  0.38829  0.07905  Biso   1.000  N
  O380     1.0000 0.43526  0.52472  0.75646  Biso   1.000  O
  N781     1.0000 0.43427  0.60491  0.77601  Biso   1.000  N
  O381     1.0000 0.43526  0.52472  0.75650  Biso   1.000  O
  C1075    1.0000 0.46552  0.64476  0.76908  Biso   1.000  C
  H1183    1.0000 0.52229  0.63409  0.70700  Biso   1.000  H
  C1076    1.0000 0.52627  0.66273  0.83750  Biso   1.000  C
  O382     1.0000 0.55847  0.29932  0.01285  Biso   1.000  O
  N782     1.0000 0.58708  0.32138  0.10684  Biso   1.000  N
  C1077    1.0000 0.63229  0.33438  0.13268  Biso   1.000  C
  H1184    1.0000 0.69208  0.31740  0.07828  Biso   1.000  H
  C1078    1.0000 0.66337  0.41056  0.13001  Biso   1.000  C
  C1079    1.0000 0.66337  0.41056  0.12996  Biso   1.000  C
  C1080    1.0000 0.38332  0.61016  0.77963  Biso   1.000  C
  N783     1.0000 0.47919  0.66735  0.82574  Biso   1.000  N
  H1185    1.0000 0.45319  0.66809  0.73899  Biso   1.000  H
  O383     1.0000 0.54709  0.68155  0.87986  Biso   1.000  O
  O384     1.0000 0.54709  0.68155  0.87981  Biso   1.000  O
  C1081    1.0000 0.55037  0.29928  0.14268  Biso   1.000  C
  N784     1.0000 0.63363  0.38054  0.15960  Biso   1.000  N
  H1186    1.0000 0.64420  0.30968  0.16118  Biso   1.000  H
  O385     1.0000 0.67485  0.45027  0.14716  Biso   1.000  O
  O386     1.0000 0.67485  0.45027  0.14711  Biso   1.000  O
  N785     1.0000 0.36637  0.61946  0.84040  Biso   1.000  N
  H1187    1.0000 0.37349  0.63638  0.75288  Biso   1.000  H
  H1188    1.0000 0.36831  0.58099  0.76442  Biso   1.000  H
  N786     1.0000 0.36637  0.61946  0.84035  Biso   1.000  N
  H1189    1.0000 0.36831  0.58099  0.76438  Biso   1.000  H
  C1082    1.0000 0.44963  0.70068  0.85732  Biso   1.000  C
  C1083    1.0000 0.44963  0.70068  0.85728  Biso   1.000  C
  N787     1.0000 0.52081  0.33262  0.17426  Biso   1.000  N
  H1190    1.0000 0.56520  0.27800  0.17268  Biso   1.000  H
  H1191    1.0000 0.53039  0.27980  0.11580  Biso   1.000  H
  C1084    1.0000 0.61664  0.38980  0.22037  Biso   1.000  C
  C1085    1.0000 0.61664  0.38980  0.22033  Biso   1.000  C
  C1086    1.0000 0.36771  0.66559  0.86732  Biso   1.000  C
  C1087    1.0000 0.33660  0.58944  0.86999  Biso   1.000  C
  C1088    1.0000 0.36771  0.66559  0.86728  Biso   1.000  C
  N788     1.0000 0.41292  0.67859  0.89316  Biso   1.000  N
  H1192    1.0000 0.43480  0.72200  0.82732  Biso   1.000  H
  H1193    1.0000 0.46957  0.72020  0.88420  Biso   1.000  H
  H1194    1.0000 0.43480  0.72200  0.82728  Biso   1.000  H
  C1089    1.0000 0.47373  0.33727  0.16250  Biso   1.000  C
  C1090    1.0000 0.53448  0.35520  0.23092  Biso   1.000  C
  C1091    1.0000 0.53448  0.35520  0.23087  Biso   1.000  C
  N789     1.0000 0.56570  0.39505  0.22399  Biso   1.000  N
  H1195    1.0000 0.62648  0.36359  0.24712  Biso   1.000  H
  H1196    1.0000 0.63169  0.41898  0.23558  Biso   1.000  H
  N790     1.0000 0.56570  0.39505  0.22395  Biso   1.000  N
  H1197    1.0000 0.62648  0.36359  0.24707  Biso   1.000  H
  H1198    1.0000 0.35580  0.69029  0.83882  Biso   1.000  H
  C1092    1.0000 0.33533  0.66048  0.92366  Biso   1.000  C
  H1199    1.0000 0.35580  0.69029  0.83877  Biso   1.000  H
  O387     1.0000 0.32511  0.54970  0.85284  Biso   1.000  O
  N791     1.0000 0.32028  0.61171  0.92090  Biso   1.000  N
  C1093    1.0000 0.40975  0.68518  0.95461  Biso   1.000  C
  C1094    1.0000 0.40975  0.68518  0.95457  Biso   1.000  C
  N792     1.0000 0.45425  0.36542  0.20576  Biso   1.000  N
  O388     1.0000 0.45291  0.31842  0.12014  Biso   1.000  O
  C1095    1.0000 0.48754  0.37825  0.25259  Biso   1.000  C
  H1200    1.0000 0.54677  0.33188  0.26101  Biso   1.000  H
  H1201    1.0000 0.54677  0.33188  0.26096  Biso   1.000  H
  C1096    1.0000 0.54512  0.43645  0.24092  Biso   1.000  C
  N793     1.0000 0.36623  0.67186  0.97344  Biso   1.000  N
  H1202    1.0000 0.30788  0.68260  0.92172  Biso   1.000  H
  H1203    1.0000 0.30788  0.68260  0.92167  Biso   1.000  H
  C1097    1.0000 0.28276  0.59230  0.95792  Biso   1.000  C
  O389     1.0000 0.44149  0.70064  0.98715  Biso   1.000  O
  C1098    1.0000 0.40362  0.37049  0.21349  Biso   1.000  C
  N794     1.0000 0.49900  0.42772  0.25540  Biso   1.000  N
  H1204    1.0000 0.47768  0.36588  0.29300  Biso   1.000  H
  H1205    1.0000 0.47768  0.36588  0.29295  Biso   1.000  H
  O390     1.0000 0.56471  0.47525  0.24350  Biso   1.000  O
  C1099    1.0000 0.34868  0.68169  0.03439  Biso   1.000  C
  H1206    1.0000 0.25718  0.61591  0.96131  Biso   1.000  H
  H1207    1.0000 0.26958  0.56418  0.93742  Biso   1.000  H
  H1208    1.0000 0.25718  0.61591  0.96127  Biso   1.000  H
  H1209    1.0000 0.26958  0.56418  0.93737  Biso   1.000  H
  N795     1.0000 0.29791  0.57916  0.01783  Biso   1.000  N
  N796     1.0000 0.29791  0.57916  0.01778  Biso   1.000  N
  N797     1.0000 0.38705  0.41799  0.20236  Biso   1.000  N
  N798     1.0000 0.38705  0.41799  0.20232  Biso   1.000  N
  H1210    1.0000 0.38741  0.34868  0.18548  Biso   1.000  H
  H1211    1.0000 0.39509  0.36130  0.25531  Biso   1.000  H
  H1212    1.0000 0.39509  0.36130  0.25526  Biso   1.000  H
  C1100    1.0000 0.47077  0.46196  0.28829  Biso   1.000  C
  N799     1.0000 0.34238  0.63958  0.07064  Biso   1.000  N
  H1213    1.0000 0.37109  0.70290  0.05521  Biso   1.000  H
  H1214    1.0000 0.31810  0.69839  0.03131  Biso   1.000  H
  H1215    1.0000 0.37109  0.70290  0.05516  Biso   1.000  H
  H1216    1.0000 0.31810  0.69839  0.03127  Biso   1.000  H
  C1101    1.0000 0.29960  0.61139  0.06851  Biso   1.000  C
  C1102    1.0000 0.30013  0.53296  0.03579  Biso   1.000  C
  C1103    1.0000 0.35792  0.42895  0.15471  Biso   1.000  C
  C1104    1.0000 0.35792  0.42895  0.15467  Biso   1.000  C
  C1105    1.0000 0.38702  0.45478  0.24788  Biso   1.000  C
  N800     1.0000 0.43110  0.47993  0.25322  Biso   1.000  N
  H1217    1.0000 0.49121  0.48871  0.30019  Biso   1.000  H
  H1218    1.0000 0.45869  0.44709  0.32572  Biso   1.000  H
  H1219    1.0000 0.45869  0.44709  0.32567  Biso   1.000  H
  C1106    1.0000 0.36968  0.62912  0.12010  Biso   1.000  C
  H1220    1.0000 0.27060  0.63130  0.07118  Biso   1.000  H
  C1107    1.0000 0.30496  0.57845  0.12403  Biso   1.000  C
  O391     1.0000 0.29731  0.49836  0.00231  Biso   1.000  O
  N801     1.0000 0.30619  0.53159  0.09724  Biso   1.000  N
  N802     1.0000 0.30619  0.53159  0.09720  Biso   1.000  N
  N803     1.0000 0.33917  0.47289  0.16453  Biso   1.000  N
  N804     1.0000 0.33917  0.47289  0.16449  Biso   1.000  N
  O392     1.0000 0.35002  0.40354  0.11109  Biso   1.000  O
  C1108    1.0000 0.35277  0.49188  0.22295  Biso   1.000  C
  H1221    1.0000 0.37631  0.44248  0.28798  Biso   1.000  H
  C1109    1.0000 0.42655  0.52644  0.23888  Biso   1.000  C
  C1110    1.0000 0.42655  0.52644  0.23883  Biso   1.000  C
  O393     1.0000 0.40608  0.64970  0.13435  Biso   1.000  O
  N805     1.0000 0.34939  0.59272  0.15078  Biso   1.000  N
  H1222    1.0000 0.27818  0.58197  0.15308  Biso   1.000  H
  C1111    1.0000 0.29788  0.48917  0.13218  Biso   1.000  C
  N806     1.0000 0.38170  0.53388  0.21965  Biso   1.000  N
  N807     1.0000 0.38170  0.53388  0.21960  Biso   1.000  N
  H1223    1.0000 0.32501  0.49639  0.25010  Biso   1.000  H
  H1224    1.0000 0.32501  0.49639  0.25006  Biso   1.000  H
  O394     1.0000 0.45784  0.55664  0.24327  Biso   1.000  O
  O395     1.0000 0.45784  0.55664  0.24322  Biso   1.000  O
  C1112    1.0000 0.36190  0.58137  0.21282  Biso   1.000  C
  C1113    1.0000 0.36190  0.58137  0.21277  Biso   1.000  C
  H1225    1.0000 0.27229  0.49530  0.16159  Biso   1.000  H
  H1226    1.0000 0.28709  0.46390  0.10462  Biso   1.000  H
  H1227    1.0000 0.28709  0.46390  0.10457  Biso   1.000  H
  H1228    1.0000 0.33350  0.58409  0.23852  Biso   1.000  H
  H1229    1.0000 0.38519  0.60470  0.22739  Biso   1.000  H
  H1230    1.0000 0.33350  0.58409  0.23847  Biso   1.000  H
  C1114    1.0000 0.63807  0.41863  0.78718  Biso   1.000  C
  N808     1.0000 0.61830  0.46612  0.78035  Biso   1.000  N
  H1231    1.0000 0.66650  0.41588  0.76148  Biso   1.000  H
  N809     1.0000 0.65061  0.40728  0.84922  Biso   1.000  N
  H1232    1.0000 0.61478  0.39530  0.77261  Biso   1.000  H
  N810     1.0000 0.65061  0.40728  0.84918  Biso   1.000  N
  H1233    1.0000 0.61478  0.39530  0.77257  Biso   1.000  H
  C1115    1.0000 0.57341  0.47356  0.76112  Biso   1.000  C
  C1116    1.0000 0.64719  0.50809  0.77705  Biso   1.000  C
  C1117    1.0000 0.64719  0.50809  0.77700  Biso   1.000  C
  C1118    1.0000 0.63032  0.37085  0.87990  Biso   1.000  C
  C1119    1.0000 0.69501  0.42155  0.87597  Biso   1.000  C
  C1120    1.0000 0.69501  0.42155  0.87592  Biso   1.000  C
  O396     1.0000 0.54212  0.44336  0.75673  Biso   1.000  O
  N811     1.0000 0.56890  0.52007  0.74678  Biso   1.000  N
  N812     1.0000 0.56890  0.52007  0.74673  Biso   1.000  N
  C1121    1.0000 0.61298  0.54522  0.75212  Biso   1.000  C
  C1122    1.0000 0.61298  0.54522  0.75207  Biso   1.000  C
  N813     1.0000 0.66079  0.52708  0.83547  Biso   1.000  N
  H1234    1.0000 0.67499  0.50358  0.74990  Biso   1.000  H
  O397     1.0000 0.59388  0.35027  0.86565  Biso   1.000  O
  N814     1.0000 0.65759  0.36042  0.92936  Biso   1.000  N
  O398     1.0000 0.59388  0.35027  0.86560  Biso   1.000  O
  N815     1.0000 0.65759  0.36042  0.92932  Biso   1.000  N
  N816     1.0000 0.69377  0.46841  0.90276  Biso   1.000  N
  C1123    1.0000 0.70040  0.38857  0.93149  Biso   1.000  C
  H1235    1.0000 0.72179  0.41799  0.84692  Biso   1.000  H
  C1124    1.0000 0.70040  0.38857  0.93144  Biso   1.000  C
  H1236    1.0000 0.72179  0.41799  0.84687  Biso   1.000  H
  C1125    1.0000 0.52923  0.53804  0.71171  Biso   1.000  C
  N817     1.0000 0.61291  0.58197  0.79764  Biso   1.000  N
  H1237    1.0000 0.62369  0.55749  0.71202  Biso   1.000  H
  H1238    1.0000 0.62369  0.55749  0.71198  Biso   1.000  H
  C1126    1.0000 0.64205  0.57102  0.84529  Biso   1.000  C
  C1127    1.0000 0.70212  0.51083  0.86782  Biso   1.000  C
  C1128    1.0000 0.70212  0.51083  0.86778  Biso   1.000  C
  C1129    1.0000 0.65128  0.31828  0.96561  Biso   1.000  C
  C1130    1.0000 0.65128  0.31828  0.96556  Biso   1.000  C
  C1131    1.0000 0.69983  0.46704  0.96421  Biso   1.000  C
  C1132    1.0000 0.69983  0.46704  0.96416  Biso   1.000  C
  N818     1.0000 0.70209  0.42081  0.98217  Biso   1.000  N
  H1239    1.0000 0.72940  0.36870  0.92882  Biso   1.000  H
  H1240    1.0000 0.72940  0.36870  0.92878  Biso   1.000  H
  H1241    1.0000 0.50879  0.51129  0.69981  Biso   1.000  H
  H1242    1.0000 0.54128  0.55291  0.67428  Biso   1.000  H
  N819     1.0000 0.50100  0.57228  0.74460  Biso   1.000  N
  N820     1.0000 0.50100  0.57228  0.74456  Biso   1.000  N
  C1133    1.0000 0.59635  0.62947  0.78651  Biso   1.000  C
  O399     1.0000 0.64994  0.59642  0.88891  Biso   1.000  O
  O400     1.0000 0.64994  0.59642  0.88886  Biso   1.000  O
  H1243    1.0000 0.71287  0.53610  0.89538  Biso   1.000  H
  H1244    1.0000 0.72767  0.50470  0.83841  Biso   1.000  H
  H1245    1.0000 0.72767  0.50470  0.83836  Biso   1.000  H
  H1246    1.0000 0.62887  0.29710  0.94479  Biso   1.000  H
  H1247    1.0000 0.68190  0.30161  0.96869  Biso   1.000  H
  N821     1.0000 0.63377  0.32811  0.02656  Biso   1.000  N
  N822     1.0000 0.63377  0.32811  0.02652  Biso   1.000  N
  O401     1.0000 0.70269  0.50164  0.99769  Biso   1.000  O
  O402     1.0000 0.70269  0.50164  0.99765  Biso   1.000  O
  C1134    1.0000 0.71724  0.40767  0.04208  Biso   1.000  C
  C1135    1.0000 0.51242  0.62172  0.74741  Biso   1.000  C
  C1136    1.0000 0.45488  0.56355  0.75908  Biso   1.000  C
  C1137    1.0000 0.51242  0.62172  0.74736  Biso   1.000  C
  C1138    1.0000 0.45488  0.56355  0.75904  Biso   1.000  C
  N823     1.0000 0.54575  0.63454  0.79424  Biso   1.000  N
  H1248    1.0000 0.60488  0.63870  0.74469  Biso   1.000  H
  H1249    1.0000 0.61259  0.65128  0.81452  Biso   1.000  H
  H1250    1.0000 0.61259  0.65128  0.81447  Biso   1.000  H
  C1139    1.0000 0.59025  0.31482  0.04539  Biso   1.000  C
  C1140    1.0000 0.66467  0.33949  0.07634  Biso   1.000  C
  C1141    1.0000 0.66467  0.33949  0.07629  Biso   1.000  C
  N824     1.0000 0.67972  0.38829  0.07910  Biso   1.000  N
  H1251    1.0000 0.74279  0.38409  0.03869  Biso   1.000  H
  H1252    1.0000 0.73038  0.43578  0.06258  Biso   1.000  H
  N825     1.0000 0.67972  0.38829  0.07905  Biso   1.000  N
  H1253    1.0000 0.52229  0.63409  0.70700  Biso   1.000  H
  C1142    1.0000 0.46552  0.64476  0.76908  Biso   1.000  C
  N826     1.0000 0.43427  0.60491  0.77601  Biso   1.000  N
  O403     1.0000 0.43526  0.52472  0.75650  Biso   1.000  O
  O404     1.0000 0.43526  0.52472  0.75646  Biso   1.000  O
  C1143    1.0000 0.52627  0.66273  0.83750  Biso   1.000  C
  O405     1.0000 0.55847  0.29932  0.01285  Biso   1.000  O
  N827     1.0000 0.58708  0.32138  0.10684  Biso   1.000  N
  C1144    1.0000 0.63229  0.33438  0.13268  Biso   1.000  C
  H1254    1.0000 0.69208  0.31740  0.07828  Biso   1.000  H
  C1145    1.0000 0.66337  0.41056  0.13001  Biso   1.000  C
  C1146    1.0000 0.66337  0.41056  0.12996  Biso   1.000  C
  N828     1.0000 0.47919  0.66735  0.82574  Biso   1.000  N
  H1255    1.0000 0.45319  0.66809  0.73899  Biso   1.000  H
  C1147    1.0000 0.38332  0.61016  0.77963  Biso   1.000  C
  O406     1.0000 0.54709  0.68155  0.87986  Biso   1.000  O
  O407     1.0000 0.54709  0.68155  0.87981  Biso   1.000  O
  C1148    1.0000 0.55037  0.29928  0.14268  Biso   1.000  C
  N829     1.0000 0.63363  0.38054  0.15960  Biso   1.000  N
  H1256    1.0000 0.64420  0.30968  0.16118  Biso   1.000  H
  O408     1.0000 0.67485  0.45027  0.14716  Biso   1.000  O
  O409     1.0000 0.67485  0.45027  0.14711  Biso   1.000  O
  C1149    1.0000 0.44963  0.70068  0.85732  Biso   1.000  C
  C1150    1.0000 0.44963  0.70068  0.85728  Biso   1.000  C
  H1257    1.0000 0.37349  0.63638  0.75288  Biso   1.000  H
  N830     1.0000 0.36637  0.61946  0.84040  Biso   1.000  N
  H1258    1.0000 0.36831  0.58099  0.76442  Biso   1.000  H
  N831     1.0000 0.36637  0.61946  0.84035  Biso   1.000  N
  H1259    1.0000 0.36831  0.58099  0.76438  Biso   1.000  H
  N832     1.0000 0.52081  0.33262  0.17426  Biso   1.000  N
  H1260    1.0000 0.56520  0.27800  0.17268  Biso   1.000  H
  H1261    1.0000 0.53039  0.27980  0.11580  Biso   1.000  H
  C1151    1.0000 0.61664  0.38980  0.22037  Biso   1.000  C
  C1152    1.0000 0.61664  0.38980  0.22033  Biso   1.000  C
  N833     1.0000 0.41292  0.67859  0.89316  Biso   1.000  N
  H1262    1.0000 0.46957  0.72020  0.88420  Biso   1.000  H
  H1263    1.0000 0.43480  0.72200  0.82732  Biso   1.000  H
  H1264    1.0000 0.43480  0.72200  0.82728  Biso   1.000  H
  C1153    1.0000 0.33660  0.58944  0.86999  Biso   1.000  C
  C1154    1.0000 0.36771  0.66559  0.86732  Biso   1.000  C
  C1155    1.0000 0.36771  0.66559  0.86728  Biso   1.000  C
  C1156    1.0000 0.47373  0.33727  0.16250  Biso   1.000  C
  C1157    1.0000 0.53448  0.35520  0.23092  Biso   1.000  C
  C1158    1.0000 0.53448  0.35520  0.23087  Biso   1.000  C
  N834     1.0000 0.56570  0.39505  0.22399  Biso   1.000  N
  H1265    1.0000 0.62648  0.36359  0.24712  Biso   1.000  H
  H1266    1.0000 0.63169  0.41898  0.23558  Biso   1.000  H
  N835     1.0000 0.56570  0.39505  0.22395  Biso   1.000  N
  H1267    1.0000 0.62648  0.36359  0.24707  Biso   1.000  H
  C1159    1.0000 0.40975  0.68518  0.95461  Biso   1.000  C
  C1160    1.0000 0.40975  0.68518  0.95457  Biso   1.000  C
  O410     1.0000 0.32511  0.54970  0.85284  Biso   1.000  O
  N836     1.0000 0.32028  0.61171  0.92090  Biso   1.000  N
  C1161    1.0000 0.33533  0.66048  0.92366  Biso   1.000  C
  H1268    1.0000 0.35580  0.69029  0.83882  Biso   1.000  H
  H1269    1.0000 0.35580  0.69029  0.83877  Biso   1.000  H
  O411     1.0000 0.45291  0.31842  0.12014  Biso   1.000  O
  N837     1.0000 0.45425  0.36542  0.20576  Biso   1.000  N
  C1162    1.0000 0.48754  0.37825  0.25259  Biso   1.000  C
  H1270    1.0000 0.54677  0.33188  0.26101  Biso   1.000  H
  H1271    1.0000 0.54677  0.33188  0.26096  Biso   1.000  H
  C1163    1.0000 0.54512  0.43645  0.24092  Biso   1.000  C
  O412     1.0000 0.44149  0.70064  0.98715  Biso   1.000  O
  N838     1.0000 0.36623  0.67186  0.97344  Biso   1.000  N
  C1164    1.0000 0.28276  0.59230  0.95792  Biso   1.000  C
  H1272    1.0000 0.30788  0.68260  0.92172  Biso   1.000  H
  H1273    1.0000 0.30788  0.68260  0.92167  Biso   1.000  H
  C1165    1.0000 0.40362  0.37049  0.21349  Biso   1.000  C
  N839     1.0000 0.49900  0.42772  0.25540  Biso   1.000  N
  H1274    1.0000 0.47768  0.36588  0.29300  Biso   1.000  H
  H1275    1.0000 0.47768  0.36588  0.29295  Biso   1.000  H
  O413     1.0000 0.56471  0.47525  0.24350  Biso   1.000  O
  C1166    1.0000 0.34868  0.68169  0.03439  Biso   1.000  C
  H1276    1.0000 0.25718  0.61591  0.96131  Biso   1.000  H
  H1277    1.0000 0.26958  0.56418  0.93742  Biso   1.000  H
  H1278    1.0000 0.25718  0.61591  0.96127  Biso   1.000  H
  H1279    1.0000 0.26958  0.56418  0.93737  Biso   1.000  H
  N840     1.0000 0.29791  0.57916  0.01783  Biso   1.000  N
  N841     1.0000 0.29791  0.57916  0.01778  Biso   1.000  N
  N842     1.0000 0.38705  0.41799  0.20236  Biso   1.000  N
  H1280    1.0000 0.38741  0.34868  0.18548  Biso   1.000  H
  H1281    1.0000 0.39509  0.36130  0.25531  Biso   1.000  H
  N843     1.0000 0.38705  0.41799  0.20232  Biso   1.000  N
  H1282    1.0000 0.39509  0.36130  0.25526  Biso   1.000  H
  C1167    1.0000 0.47077  0.46196  0.28829  Biso   1.000  C
  N844     1.0000 0.34238  0.63958  0.07064  Biso   1.000  N
  H1283    1.0000 0.37109  0.70290  0.05521  Biso   1.000  H
  H1284    1.0000 0.31810  0.69839  0.03131  Biso   1.000  H
  H1285    1.0000 0.37109  0.70290  0.05516  Biso   1.000  H
  H1286    1.0000 0.31810  0.69839  0.03127  Biso   1.000  H
  C1168    1.0000 0.29960  0.61139  0.06851  Biso   1.000  C
  C1169    1.0000 0.30013  0.53296  0.03579  Biso   1.000  C
  C1170    1.0000 0.38702  0.45478  0.24788  Biso   1.000  C
  C1171    1.0000 0.35792  0.42895  0.15471  Biso   1.000  C
  C1172    1.0000 0.35792  0.42895  0.15467  Biso   1.000  C
  N845     1.0000 0.43110  0.47993  0.25322  Biso   1.000  N
  H1287    1.0000 0.49121  0.48871  0.30019  Biso   1.000  H
  H1288    1.0000 0.45869  0.44709  0.32572  Biso   1.000  H
  H1289    1.0000 0.45869  0.44709  0.32567  Biso   1.000  H
  C1173    1.0000 0.36968  0.62912  0.12010  Biso   1.000  C
  H1290    1.0000 0.27060  0.63130  0.07118  Biso   1.000  H
  C1174    1.0000 0.30496  0.57845  0.12403  Biso   1.000  C
  O414     1.0000 0.29731  0.49836  0.00231  Biso   1.000  O
  N846     1.0000 0.30619  0.53159  0.09724  Biso   1.000  N
  N847     1.0000 0.30619  0.53159  0.09720  Biso   1.000  N
  C1175    1.0000 0.35277  0.49188  0.22295  Biso   1.000  C
  H1291    1.0000 0.37631  0.44248  0.28798  Biso   1.000  H
  N848     1.0000 0.33917  0.47289  0.16453  Biso   1.000  N
  N849     1.0000 0.33917  0.47289  0.16449  Biso   1.000  N
  O415     1.0000 0.35002  0.40354  0.11109  Biso   1.000  O
  C1176    1.0000 0.42655  0.52644  0.23888  Biso   1.000  C
  C1177    1.0000 0.42655  0.52644  0.23883  Biso   1.000  C
  O416     1.0000 0.40608  0.64970  0.13435  Biso   1.000  O
  N850     1.0000 0.34939  0.59272  0.15078  Biso   1.000  N
  H1292    1.0000 0.27818  0.58197  0.15308  Biso   1.000  H
  C1178    1.0000 0.29788  0.48917  0.13218  Biso   1.000  C
  N851     1.0000 0.38170  0.53388  0.21965  Biso   1.000  N
  N852     1.0000 0.38170  0.53388  0.21960  Biso   1.000  N
  H1293    1.0000 0.32501  0.49639  0.25010  Biso   1.000  H
  H1294    1.0000 0.32501  0.49639  0.25006  Biso   1.000  H
  O417     1.0000 0.45784  0.55664  0.24327  Biso   1.000  O
  O418     1.0000 0.45784  0.55664  0.24322  Biso   1.000  O
  C1179    1.0000 0.36190  0.58137  0.21282  Biso   1.000  C
  C1180    1.0000 0.36190  0.58137  0.21277  Biso   1.000  C
  H1295    1.0000 0.27229  0.49530  0.16159  Biso   1.000  H
  H1296    1.0000 0.28709  0.46390  0.10462  Biso   1.000  H
  H1297    1.0000 0.28709  0.46390  0.10457  Biso   1.000  H
  H1298    1.0000 0.33350  0.58409  0.23852  Biso   1.000  H
  H1299    1.0000 0.38519  0.60470  0.22739  Biso   1.000  H
  H1300    1.0000 0.33350  0.58409  0.23847  Biso   1.000  H
  O419     1.0000 0.34643  0.60001  0.36110  Biso   1.000  O
  C1181    1.0000 0.32102  0.60791  0.40468  Biso   1.000  C
  N853     1.0000 0.27709  0.58916  0.41450  Biso   1.000  N
  N854     1.0000 0.33198  0.63705  0.45237  Biso   1.000  N
  C1182    1.0000 0.26084  0.54787  0.38219  Biso   1.000  C
  C1183    1.0000 0.25810  0.60276  0.47296  Biso   1.000  C
  C1184    1.0000 0.29523  0.63701  0.49790  Biso   1.000  C
  C1185    1.0000 0.37948  0.65361  0.46351  Biso   1.000  C
  N855     1.0000 0.21842  0.55622  0.34726  Biso   1.000  N
  H1301    1.0000 0.25471  0.52229  0.41160  Biso   1.000  H
  H1302    1.0000 0.28611  0.53708  0.35459  Biso   1.000  H
  N856     1.0000 0.21613  0.63169  0.46961  Biso   1.000  N
  H1303    1.0000 0.25359  0.57500  0.50011  Biso   1.000  H
  N857     1.0000 0.27008  0.68109  0.50324  Biso   1.000  N
  H1304    1.0000 0.30749  0.62630  0.53799  Biso   1.000  H
  N858     1.0000 0.38455  0.70424  0.45577  Biso   1.000  N
  H1305    1.0000 0.40129  0.63740  0.43549  Biso   1.000  H
  H1306    1.0000 0.38871  0.64508  0.50527  Biso   1.000  H
  C1186    1.0000 0.21701  0.55012  0.28580  Biso   1.000  C
  C1187    1.0000 0.17152  0.55495  0.37404  Biso   1.000  C
  C1188    1.0000 0.16863  0.61192  0.46278  Biso   1.000  C
  C1189    1.0000 0.22357  0.67654  0.48885  Biso   1.000  C
  C1190    1.0000 0.28804  0.72076  0.53830  Biso   1.000  C
  C1191    1.0000 0.41274  0.72372  0.41251  Biso   1.000  C
  C1192    1.0000 0.37173  0.73754  0.50260  Biso   1.000  C
  O420     1.0000 0.25161  0.54730  0.25232  Biso   1.000  O
  N859     1.0000 0.17082  0.54790  0.26779  Biso   1.000  N
  C1193    1.0000 0.13858  0.54959  0.31852  Biso   1.000  C
  N860     1.0000 0.15725  0.59938  0.40079  Biso   1.000  N
  H1307    1.0000 0.16800  0.52821  0.40310  Biso   1.000  H
  H1308    1.0000 0.16589  0.58349  0.48848  Biso   1.000  H
  H1309    1.0000 0.14531  0.63518  0.47740  Biso   1.000  H
  O421     1.0000 0.19337  0.70783  0.49323  Biso   1.000  O
  N861     1.0000 0.32229  0.74899  0.50541  Biso   1.000  N
  H1310    1.0000 0.26130  0.74120  0.55021  Biso   1.000  H
  H1311    1.0000 0.30288  0.70868  0.57568  Biso   1.000  H
  N862     1.0000 0.41736  0.77080  0.42427  Biso   1.000  N
  O422     1.0000 0.43156  0.70290  0.37015  Biso   1.000  O
  C1194    1.0000 0.39477  0.78447  0.48088  Biso   1.000  C
  H1312    1.0000 0.38409  0.72767  0.54301  Biso   1.000  H
  C1195    1.0000 0.15768  0.53275  0.20793  Biso   1.000  C
  N863     1.0000 0.11043  0.59237  0.32065  Biso   1.000  N
  H1313    1.0000 0.11871  0.52059  0.32119  Biso   1.000  H
  C1196    1.0000 0.12086  0.61968  0.37011  Biso   1.000  C
  C1197    1.0000 0.31355  0.79511  0.49093  Biso   1.000  C
  C1198    1.0000 0.45069  0.80036  0.39269  Biso   1.000  C
  N864     1.0000 0.35492  0.81569  0.47400  Biso   1.000  N
  H1314    1.0000 0.41810  0.79680  0.51097  Biso   1.000  H
  N865     1.0000 0.13830  0.57028  0.17091  Biso   1.000  N
  H1315    1.0000 0.13410  0.50721  0.21128  Biso   1.000  H
  H1316    1.0000 0.18579  0.51961  0.18738  Biso   1.000  H
  C1199    1.0000 0.06829  0.59868  0.28440  Biso   1.000  C
  O423     1.0000 0.10028  0.65607  0.38436  Biso   1.000  O
  O424     1.0000 0.27473  0.81470  0.49351  Biso   1.000  O
  N866     1.0000 0.42860  0.83707  0.35685  Biso   1.000  N
  H1317    1.0000 0.47201  0.81519  0.42269  Biso   1.000  H
  H1318    1.0000 0.47021  0.78038  0.36581  Biso   1.000  H
  C1200    1.0000 0.36017  0.86664  0.47038  Biso   1.000  C
  C1201    1.0000 0.08950  0.58532  0.17367  Biso   1.000  C
  C1202    1.0000 0.16053  0.58662  0.12001  Biso   1.000  C
  N867     1.0000 0.07812  0.61622  0.22345  Biso   1.000  N
  H1319    1.0000 0.04711  0.62108  0.30517  Biso   1.000  H
  H1320    1.0000 0.05158  0.56809  0.28128  Biso   1.000  H
  C1203    1.0000 0.43519  0.84025  0.29540  Biso   1.000  C
  C1204    1.0000 0.41559  0.88228  0.38269  Biso   1.000  C
  N868     1.0000 0.36947  0.88362  0.40961  Biso   1.000  N
  H1321    1.0000 0.38639  0.87650  0.49708  Biso   1.000  H
  H1322    1.0000 0.33100  0.88168  0.48559  Biso   1.000  H
  C1205    1.0000 0.08439  0.61770  0.11729  Biso   1.000  C
  H1323    1.0000 0.06740  0.55787  0.17168  Biso   1.000  H
  O425     1.0000 0.20027  0.57510  0.10286  Biso   1.000  O
  N869     1.0000 0.13055  0.61636  0.09037  Biso   1.000  N
  C1206    1.0000 0.06483  0.65974  0.20458  Biso   1.000  C
  N870     1.0000 0.42187  0.88376  0.27653  Biso   1.000  N
  O426     1.0000 0.45065  0.80846  0.26286  Biso   1.000  O
  H1324    1.0000 0.44029  0.89419  0.41120  Biso   1.000  H
  C1207    1.0000 0.41049  0.91466  0.32630  Biso   1.000  C
  C1208    1.0000 0.33945  0.91336  0.37997  Biso   1.000  C
  N871     1.0000 0.07139  0.66291  0.14317  Biso   1.000  N
  H1325    1.0000 0.05969  0.60579  0.08878  Biso   1.000  H
  C1209    1.0000 0.13981  0.63335  0.02964  Biso   1.000  C
  O427     1.0000 0.04933  0.69148  0.23716  Biso   1.000  O
  C1210    1.0000 0.43170  0.90127  0.21558  Biso   1.000  C
  N872     1.0000 0.36172  0.92971  0.32906  Biso   1.000  N
  H1326    1.0000 0.43258  0.94207  0.32830  Biso   1.000  H
  O428     1.0000 0.29971  0.92488  0.39712  Biso   1.000  O
  C1211    1.0000 0.04929  0.69962  0.10729  Biso   1.000  C
  N873     1.0000 0.14506  0.68426  0.02602  Biso   1.000  N
  H1327    1.0000 0.11360  0.62348  0.00290  Biso   1.000  H
  H1328    1.0000 0.16899  0.61830  0.01439  Biso   1.000  H
  N874     1.0000 0.38956  0.90758  0.17933  Biso   1.000  N
  H1329    1.0000 0.45291  0.87890  0.19481  Biso   1.000  H
  H1330    1.0000 0.44840  0.93189  0.21870  Biso   1.000  H
  C1212    1.0000 0.34231  0.96723  0.29209  Biso   1.000  C
  N875     1.0000 0.08263  0.72919  0.07575  Biso   1.000  N
  H1331    1.0000 0.02801  0.68479  0.07729  Biso   1.000  H
  H1332    1.0000 0.02981  0.71960  0.13421  Biso   1.000  H
  C1213    1.0000 0.10521  0.71551  0.01910  Biso   1.000  C
  C1214    1.0000 0.18646  0.70487  0.00905  Biso   1.000  C
  C1215    1.0000 0.37913  0.88031  0.12992  Biso   1.000  C
  C1216    1.0000 0.36140  0.95039  0.18146  Biso   1.000  C
  N876     1.0000 0.32916  0.95208  0.23218  Biso   1.000  N
  H1333    1.0000 0.36588  0.99278  0.28870  Biso   1.000  H
  H1334    1.0000 0.31419  0.98037  0.31259  Biso   1.000  H
  C1217    1.0000 0.08724  0.77626  0.08752  Biso   1.000  C
  C1218    1.0000 0.12825  0.76241  0.99738  Biso   1.000  C
  H1335    1.0000 0.08189  0.70318  0.98900  Biso   1.000  H
  O429     1.0000 0.22526  0.68528  0.00647  Biso   1.000  O
  N877     1.0000 0.17769  0.75100  0.99457  Biso   1.000  N
  N878     1.0000 0.34273  0.90060  0.09919  Biso   1.000  N
  O430     1.0000 0.39970  0.84387  0.11562  Biso   1.000  O
  C1219    1.0000 0.32846  0.94500  0.12598  Biso   1.000  C
  H1336    1.0000 0.38128  0.97939  0.17879  Biso   1.000  H
  C1220    1.0000 0.28297  0.94986  0.21422  Biso   1.000  C
  O431     1.0000 0.06843  0.79708  0.12982  Biso   1.000  O
  N879     1.0000 0.11543  0.79574  0.04426  Biso   1.000  N
  H1337    1.0000 0.11589  0.77228  0.95701  Biso   1.000  H
  C1221    1.0000 0.21197  0.77922  0.96172  Biso   1.000  C
  C1222    1.0000 0.33135  0.88806  0.03720  Biso   1.000  C
  N880     1.0000 0.28156  0.94377  0.15277  Biso   1.000  N
  H1338    1.0000 0.33198  0.97178  0.09688  Biso   1.000  H
  O432     1.0000 0.24837  0.95268  0.24766  Biso   1.000  O
  C1223    1.0000 0.12050  0.84634  0.03652  Biso   1.000  C
  N881     1.0000 0.22994  0.81889  0.99674  Biso   1.000  N
  H1339    1.0000 0.23868  0.75878  0.94982  Biso   1.000  H
  H1340    1.0000 0.19710  0.79127  0.92430  Biso   1.000  H
  N882     1.0000 0.28389  0.86829  0.03036  Biso   1.000  N
  H1341    1.0000 0.33410  0.91649  0.01149  Biso   1.000  H
  H1342    1.0000 0.35471  0.86477  0.02258  Biso   1.000  H
  C1224    1.0000 0.23914  0.95212  0.11779  Biso   1.000  C
  H1343    1.0000 0.09869  0.86258  0.06448  Biso   1.000  H
  N883     1.0000 0.16800  0.86290  0.04765  Biso   1.000  N
  H1344    1.0000 0.11131  0.85487  0.99471  Biso   1.000  H
  C1225    1.0000 0.27645  0.82340  0.01113  Biso   1.000  C
  C1226    1.0000 0.20475  0.86297  0.00208  Biso   1.000  C
  C1227    1.0000 0.24189  0.89718  0.02706  Biso   1.000  C
  N884     1.0000 0.22290  0.91082  0.08548  Biso   1.000  N
  H1345    1.0000 0.24530  0.97770  0.08842  Biso   1.000  H
  H1346    1.0000 0.21391  0.96290  0.14539  Biso   1.000  H
  C1228    1.0000 0.17896  0.89204  0.09530  Biso   1.000  C
  O433     1.0000 0.30665  0.79215  0.00674  Biso   1.000  O
  H1347    1.0000 0.19249  0.87368  0.96199  Biso   1.000  H
  H1348    1.0000 0.24640  0.92499  0.99991  Biso   1.000  H
  O434     1.0000 0.15355  0.89997  0.13888  Biso   1.000  O
