data_image0
_cell_length_a       13.833
_cell_length_b       18.593
_cell_length_c       22.44
_cell_angle_alpha    90
_cell_angle_beta     98.96
_cell_angle_gamma    90

_symmetry_space_group_name_H-M    "P 1"
_symmetry_int_tables_number       1

loop_
  _symmetry_equiv_pos_as_xyz
  'x, y, z'

loop_
  _atom_site_label
  _atom_site_occupancy
  _atom_site_fract_x
  _atom_site_fract_y
  _atom_site_fract_z
  _atom_site_thermal_displace_type
  _atom_site_B_iso_or_equiv
  _atom_site_type_symbol
  O1       1.0000 0.48285  0.28903  0.60809  Biso   1.000  O
  C1       1.0000 0.55827  0.29861  0.58670  Biso   1.000  C
  C2       1.0000 0.55827  0.29855  0.58670  Biso   1.000  C
  N1       1.0000 0.56235  0.32168  0.52905  Biso   1.000  N
  N2       1.0000 0.56235  0.32173  0.52905  Biso   1.000  N
  N3       1.0000 0.65048  0.28801  0.61576  Biso   1.000  N
  O2       1.0000 0.48285  0.28898  0.60809  Biso   1.000  O
  N4       1.0000 0.65048  0.28796  0.61576  Biso   1.000  N
  C3       1.0000 0.47797  0.35201  0.48980  Biso   1.000  C
  C4       1.0000 0.66228  0.33712  0.51998  Biso   1.000  C
  C5       1.0000 0.66228  0.33706  0.51998  Biso   1.000  C
  C6       1.0000 0.72452  0.31119  0.58007  Biso   1.000  C
  C7       1.0000 0.67251  0.27559  0.68009  Biso   1.000  C
  C8       1.0000 0.67251  0.27564  0.68009  Biso   1.000  C
  N5       1.0000 0.45044  0.31082  0.43548  Biso   1.000  N
  N6       1.0000 0.45044  0.31076  0.43548  Biso   1.000  N
  H1       1.0000 0.42240  0.35411  0.51191  Biso   1.000  H
  H2       1.0000 0.49336  0.40128  0.47888  Biso   1.000  H
  H3       1.0000 0.42240  0.35406  0.51191  Biso   1.000  H
  N7       1.0000 0.69799  0.29441  0.47505  Biso   1.000  N
  N8       1.0000 0.69799  0.29436  0.47505  Biso   1.000  N
  H4       1.0000 0.67177  0.38907  0.51321  Biso   1.000  H
  N9       1.0000 0.78212  0.25407  0.56054  Biso   1.000  N
  N10      1.0000 0.78212  0.25413  0.56054  Biso   1.000  N
  H5       1.0000 0.76592  0.35019  0.60028  Biso   1.000  H
  H6       1.0000 0.76592  0.35024  0.60028  Biso   1.000  H
  N11      1.0000 0.70926  0.20459  0.69565  Biso   1.000  N
  H7       1.0000 0.61304  0.28328  0.69791  Biso   1.000  H
  H8       1.0000 0.72126  0.31087  0.69791  Biso   1.000  H
  C9       1.0000 0.35803  0.28140  0.42109  Biso   1.000  C
  C10      1.0000 0.49494  0.32292  0.38157  Biso   1.000  C
  C11      1.0000 0.67935  0.31227  0.41130  Biso   1.000  C
  C12      1.0000 0.67935  0.31232  0.41130  Biso   1.000  C
  C13      1.0000 0.77216  0.25009  0.49909  Biso   1.000  C
  C14      1.0000 0.86565  0.22309  0.59961  Biso   1.000  C
  C15      1.0000 0.86565  0.22304  0.59961  Biso   1.000  C
  C16      1.0000 0.66095  0.15630  0.72647  Biso   1.000  C
  C17      1.0000 0.81204  0.18620  0.69787  Biso   1.000  C
  C18      1.0000 0.81204  0.18615  0.69787  Biso   1.000  C
  N12      1.0000 0.34239  0.26289  0.36177  Biso   1.000  N
  O3       1.0000 0.29913  0.27327  0.45664  Biso   1.000  O
  O4       1.0000 0.29913  0.27333  0.45664  Biso   1.000  O
  C19      1.0000 0.42325  0.28360  0.33159  Biso   1.000  C
  C20      1.0000 0.42325  0.28355  0.33159  Biso   1.000  C
  N13      1.0000 0.58597  0.28591  0.38017  Biso   1.000  N
  H9       1.0000 0.50029  0.37476  0.37269  Biso   1.000  H
  N14      1.0000 0.58597  0.28586  0.38017  Biso   1.000  N
  H10      1.0000 0.73197  0.29221  0.39181  Biso   1.000  H
  H11      1.0000 0.68109  0.36471  0.40702  Biso   1.000  H
  H12      1.0000 0.73197  0.29215  0.39181  Biso   1.000  H
  O5       1.0000 0.82158  0.21218  0.47036  Biso   1.000  O
  O6       1.0000 0.82158  0.21223  0.47036  Biso   1.000  O
  N15      1.0000 0.83823  0.16807  0.63958  Biso   1.000  N
  H13      1.0000 0.91041  0.20217  0.57448  Biso   1.000  H
  H14      1.0000 0.90075  0.26160  0.62379  Biso   1.000  H
  N16      1.0000 0.83823  0.16813  0.63958  Biso   1.000  N
  H15      1.0000 0.90075  0.26155  0.62379  Biso   1.000  H
  O7       1.0000 0.57572  0.16151  0.73504  Biso   1.000  O
  N17      1.0000 0.72430  0.10160  0.74659  Biso   1.000  N
  O8       1.0000 0.57572  0.16146  0.73504  Biso   1.000  O
  H16      1.0000 0.85584  0.22342  0.71898  Biso   1.000  H
  C21      1.0000 0.82153  0.11381  0.73197  Biso   1.000  C
  H17      1.0000 0.85584  0.22336  0.71898  Biso   1.000  H
  C22      1.0000 0.82153  0.11375  0.73197  Biso   1.000  C
  C23      1.0000 0.24696  0.24391  0.32911  Biso   1.000  C
  C24      1.0000 0.24696  0.24386  0.32911  Biso   1.000  C
  N18      1.0000 0.48116  0.22417  0.31498  Biso   1.000  N
  H18      1.0000 0.40160  0.31560  0.29680  Biso   1.000  H
  C25      1.0000 0.57815  0.23019  0.34038  Biso   1.000  C
  C26      1.0000 0.57815  0.23014  0.34038  Biso   1.000  C
  C27      1.0000 0.86664  0.09751  0.63669  Biso   1.000  C
  C28      1.0000 0.70104  0.04599  0.78728  Biso   1.000  C
  C29      1.0000 0.70104  0.04604  0.78728  Biso   1.000  C
  N19      1.0000 0.85014  0.06341  0.68812  Biso   1.000  N
  H19      1.0000 0.87124  0.11628  0.76878  Biso   1.000  H
  N20      1.0000 0.24060  0.17028  0.30880  Biso   1.000  N
  H20      1.0000 0.19770  0.25208  0.35532  Biso   1.000  H
  H21      1.0000 0.23175  0.27570  0.29410  Biso   1.000  H
  H22      1.0000 0.19770  0.25214  0.35532  Biso   1.000  H
  H23      1.0000 0.23175  0.27564  0.29410  Biso   1.000  H
  C30      1.0000 0.45277  0.18588  0.25841  Biso   1.000  C
  O9       1.0000 0.64499  0.19228  0.32793  Biso   1.000  O
  O10      1.0000 0.89911  0.07008  0.59442  Biso   1.000  O
  O11      1.0000 0.89911  0.07013  0.59442  Biso   1.000  O
  H24      1.0000 0.75220  0.04491  0.82270  Biso   1.000  H
  H25      1.0000 0.63923  0.05819  0.80100  Biso   1.000  H
  H26      1.0000 0.63923  0.05825  0.80100  Biso   1.000  H
  N21      1.0000 0.69221  0.97488  0.76035  Biso   1.000  N
  C31      1.0000 0.89644  0.99500  0.70657  Biso   1.000  C
  C32      1.0000 0.27500  0.14678  0.25381  Biso   1.000  C
  C33      1.0000 0.17676  0.12198  0.32622  Biso   1.000  C
  N22      1.0000 0.37890  0.13091  0.26189  Biso   1.000  N
  H27      1.0000 0.51087  0.16318  0.24659  Biso   1.000  H
  H28      1.0000 0.42738  0.22051  0.22688  Biso   1.000  H
  H29      1.0000 0.42738  0.22046  0.22688  Biso   1.000  H
  C34      1.0000 0.60456  0.93879  0.75218  Biso   1.000  C
  C35      1.0000 0.77342  0.92680  0.75958  Biso   1.000  C
  H30      1.0000 0.93636  0.00059  0.74641  Biso   1.000  H
  N23      1.0000 0.82606  0.93783  0.70928  Biso   1.000  N
  H31      1.0000 0.94014  0.98139  0.67811  Biso   1.000  H
  N24      1.0000 0.82606  0.93777  0.70928  Biso   1.000  N
  C36      1.0000 0.22650  0.07320  0.24041  Biso   1.000  C
  H32      1.0000 0.25590  0.18098  0.22029  Biso   1.000  H
  N25      1.0000 0.17386  0.06217  0.29071  Biso   1.000  N
  O12      1.0000 0.13010  0.12989  0.36817  Biso   1.000  O
  C37      1.0000 0.39536  0.06121  0.24781  Biso   1.000  C
  C38      1.0000 0.39536  0.06115  0.24781  Biso   1.000  C
  O13      1.0000 0.52525  0.96558  0.75647  Biso   1.000  O
  N26      1.0000 0.62102  0.86909  0.73811  Biso   1.000  N
  H33      1.0000 0.81805  0.92691  0.79860  Biso   1.000  H
  C39      1.0000 0.72492  0.85322  0.74618  Biso   1.000  C
  H34      1.0000 0.81805  0.92685  0.79860  Biso   1.000  H
  C40      1.0000 0.72492  0.85317  0.74618  Biso   1.000  C
  C41      1.0000 0.82316  0.87802  0.67377  Biso   1.000  C
  C42      1.0000 0.82316  0.87796  0.67377  Biso   1.000  C
  N27      1.0000 0.30771  0.02512  0.23964  Biso   1.000  N
  H35      1.0000 0.18187  0.07309  0.20139  Biso   1.000  H
  N28      1.0000 0.30771  0.02506  0.23964  Biso   1.000  N
  H36      1.0000 0.18187  0.07315  0.20139  Biso   1.000  H
  C43      1.0000 0.10347  0.00500  0.29337  Biso   1.000  C
  C44      1.0000 0.10347  0.00495  0.29337  Biso   1.000  C
  O14      1.0000 0.47466  0.03442  0.24348  Biso   1.000  O
  O15      1.0000 0.47466  0.03437  0.24348  Biso   1.000  O
  C45      1.0000 0.54715  0.81412  0.74158  Biso   1.000  C
  C46      1.0000 0.54715  0.81407  0.74158  Biso   1.000  C
  N29      1.0000 0.75932  0.82972  0.69119  Biso   1.000  N
  N30      1.0000 0.75932  0.82967  0.69119  Biso   1.000  N
  H37      1.0000 0.74402  0.81902  0.77970  Biso   1.000  H
  H38      1.0000 0.74402  0.81896  0.77970  Biso   1.000  H
  O16      1.0000 0.86988  0.87011  0.63177  Biso   1.000  O
  O17      1.0000 0.86988  0.87006  0.63177  Biso   1.000  O
  C47      1.0000 0.29888  0.95401  0.21271  Biso   1.000  C
  C48      1.0000 0.29888  0.95396  0.21271  Biso   1.000  C
  H39      1.0000 0.05978  0.01861  0.32189  Biso   1.000  H
  H40      1.0000 0.05978  0.01856  0.32189  Biso   1.000  H
  N31      1.0000 0.14977  0.93659  0.31183  Biso   1.000  N
  H41      1.0000 0.06356  0.99941  0.25358  Biso   1.000  H
  H42      1.0000 0.06356  0.99935  0.25358  Biso   1.000  H
  N32      1.0000 0.51876  0.77583  0.68501  Biso   1.000  N
  N33      1.0000 0.51876  0.77578  0.68501  Biso   1.000  N
  H43      1.0000 0.48905  0.83682  0.75340  Biso   1.000  H
  H44      1.0000 0.57253  0.77949  0.77307  Biso   1.000  H
  H45      1.0000 0.48905  0.83677  0.75340  Biso   1.000  H
  C49      1.0000 0.75296  0.75609  0.67089  Biso   1.000  C
  N34      1.0000 0.27561  0.89840  0.25336  Biso   1.000  N
  H46      1.0000 0.24771  0.95509  0.17730  Biso   1.000  H
  H47      1.0000 0.36069  0.94181  0.19900  Biso   1.000  H
  H48      1.0000 0.36069  0.94175  0.19900  Biso   1.000  H
  C50      1.0000 0.13328  0.90249  0.36330  Biso   1.000  C
  C51      1.0000 0.17838  0.88619  0.26798  Biso   1.000  C
  C52      1.0000 0.42177  0.76981  0.65961  Biso   1.000  C
  C53      1.0000 0.57667  0.71640  0.66841  Biso   1.000  C
  N35      1.0000 0.65752  0.73711  0.63822  Biso   1.000  N
  H49      1.0000 0.80222  0.74792  0.64468  Biso   1.000  H
  H50      1.0000 0.76817  0.72430  0.70590  Biso   1.000  H
  H51      1.0000 0.80222  0.74786  0.64468  Biso   1.000  H
  C54      1.0000 0.33897  0.84370  0.27352  Biso   1.000  C
  C55      1.0000 0.33897  0.84365  0.27352  Biso   1.000  C
  O18      1.0000 0.10081  0.92992  0.40557  Biso   1.000  O
  N36      1.0000 0.16169  0.83193  0.36041  Biso   1.000  N
  O19      1.0000 0.10081  0.92987  0.40557  Biso   1.000  O
  N37      1.0000 0.16169  0.83187  0.36041  Biso   1.000  N
  C56      1.0000 0.18788  0.81380  0.30213  Biso   1.000  C
  H52      1.0000 0.12868  0.88372  0.23121  Biso   1.000  H
  H53      1.0000 0.12868  0.88367  0.23121  Biso   1.000  H
  N38      1.0000 0.41395  0.71409  0.61982  Biso   1.000  N
  O20      1.0000 0.35493  0.80772  0.67206  Biso   1.000  O
  O21      1.0000 0.35493  0.80767  0.67206  Biso   1.000  O
  C57      1.0000 0.50498  0.67708  0.61842  Biso   1.000  C
  H54      1.0000 0.59832  0.68440  0.70319  Biso   1.000  H
  C58      1.0000 0.64189  0.71860  0.57890  Biso   1.000  C
  O22      1.0000 0.42420  0.83849  0.26495  Biso   1.000  O
  N39      1.0000 0.29066  0.79541  0.30434  Biso   1.000  N
  N40      1.0000 0.29066  0.79535  0.30434  Biso   1.000  N
  C59      1.0000 0.13427  0.77691  0.40038  Biso   1.000  C
  H55      1.0000 0.14408  0.77658  0.28101  Biso   1.000  H
  C60      1.0000 0.32057  0.68773  0.58869  Biso   1.000  C
  C61      1.0000 0.32057  0.68768  0.58869  Biso   1.000  C
  N41      1.0000 0.54948  0.68918  0.56451  Biso   1.000  N
  H56      1.0000 0.49963  0.62524  0.62731  Biso   1.000  H
  H57      1.0000 0.49963  0.62518  0.62731  Biso   1.000  H
  O23      1.0000 0.70079  0.72673  0.54335  Biso   1.000  O
  O24      1.0000 0.70079  0.72667  0.54335  Biso   1.000  O
  C62      1.0000 0.32741  0.72441  0.31990  Biso   1.000  C
  C63      1.0000 0.32741  0.72436  0.31990  Biso   1.000  C
  N42      1.0000 0.21780  0.74593  0.43945  Biso   1.000  N
  H58      1.0000 0.08951  0.79783  0.42551  Biso   1.000  H
  H59      1.0000 0.09917  0.73840  0.37620  Biso   1.000  H
  N43      1.0000 0.21780  0.74587  0.43945  Biso   1.000  N
  H60      1.0000 0.08951  0.79777  0.42551  Biso   1.000  H
  N44      1.0000 0.30193  0.70559  0.52494  Biso   1.000  N
  H61      1.0000 0.26795  0.70779  0.60818  Biso   1.000  H
  H62      1.0000 0.31883  0.63529  0.59298  Biso   1.000  H
  C64      1.0000 0.52195  0.64799  0.51019  Biso   1.000  C
  N45      1.0000 0.34944  0.71199  0.38423  Biso   1.000  N
  H63      1.0000 0.38688  0.71672  0.30208  Biso   1.000  H
  H64      1.0000 0.27866  0.68913  0.30208  Biso   1.000  H
  H65      1.0000 0.38688  0.71667  0.30208  Biso   1.000  H
  H66      1.0000 0.27866  0.68908  0.30208  Biso   1.000  H
  C65      1.0000 0.22776  0.74991  0.50090  Biso   1.000  C
  C66      1.0000 0.27539  0.68881  0.41987  Biso   1.000  C
  C67      1.0000 0.33764  0.66288  0.48001  Biso   1.000  C
  N46      1.0000 0.43757  0.67832  0.47094  Biso   1.000  N
  N47      1.0000 0.43757  0.67827  0.47094  Biso   1.000  N
  H67      1.0000 0.57759  0.64589  0.48809  Biso   1.000  H
  H68      1.0000 0.50656  0.59872  0.52111  Biso   1.000  H
  H69      1.0000 0.50656  0.59867  0.52111  Biso   1.000  H
  C68      1.0000 0.44165  0.70139  0.41329  Biso   1.000  C
  O25      1.0000 0.17833  0.78782  0.52959  Biso   1.000  O
  O26      1.0000 0.17833  0.78777  0.52959  Biso   1.000  O
  H70      1.0000 0.23400  0.64981  0.39971  Biso   1.000  H
  H71      1.0000 0.23400  0.64976  0.39971  Biso   1.000  H
  H72      1.0000 0.32815  0.61093  0.48678  Biso   1.000  H
  H73      1.0000 0.32815  0.61088  0.48678  Biso   1.000  H
  O27      1.0000 0.51707  0.71102  0.39190  Biso   1.000  O
  O28      1.0000 0.51707  0.71097  0.39190  Biso   1.000  O
  O29      1.0000 0.48285  0.28903  0.60809  Biso   1.000  O
  C69      1.0000 0.55827  0.29861  0.58670  Biso   1.000  C
  C70      1.0000 0.55827  0.29855  0.58670  Biso   1.000  C
  N48      1.0000 0.56235  0.32168  0.52905  Biso   1.000  N
  N49      1.0000 0.56235  0.32173  0.52905  Biso   1.000  N
  N50      1.0000 0.65048  0.28801  0.61576  Biso   1.000  N
  O30      1.0000 0.48285  0.28898  0.60809  Biso   1.000  O
  N51      1.0000 0.65048  0.28796  0.61576  Biso   1.000  N
  C71      1.0000 0.47797  0.35201  0.48980  Biso   1.000  C
  C72      1.0000 0.66228  0.33712  0.51998  Biso   1.000  C
  C73      1.0000 0.66228  0.33706  0.51998  Biso   1.000  C
  C74      1.0000 0.72452  0.31119  0.58007  Biso   1.000  C
  C75      1.0000 0.67251  0.27559  0.68009  Biso   1.000  C
  C76      1.0000 0.67251  0.27564  0.68009  Biso   1.000  C
  N52      1.0000 0.45044  0.31082  0.43548  Biso   1.000  N
  N53      1.0000 0.45044  0.31076  0.43548  Biso   1.000  N
  H74      1.0000 0.49336  0.40128  0.47888  Biso   1.000  H
  H75      1.0000 0.42240  0.35411  0.51191  Biso   1.000  H
  H76      1.0000 0.42240  0.35406  0.51191  Biso   1.000  H
  N54      1.0000 0.69799  0.29441  0.47505  Biso   1.000  N
  N55      1.0000 0.69799  0.29436  0.47505  Biso   1.000  N
  H77      1.0000 0.67177  0.38907  0.51321  Biso   1.000  H
  N56      1.0000 0.78212  0.25407  0.56054  Biso   1.000  N
  N57      1.0000 0.78212  0.25413  0.56054  Biso   1.000  N
  H78      1.0000 0.76592  0.35019  0.60028  Biso   1.000  H
  H79      1.0000 0.76592  0.35024  0.60028  Biso   1.000  H
  N58      1.0000 0.70926  0.20459  0.69565  Biso   1.000  N
  H80      1.0000 0.61304  0.28328  0.69791  Biso   1.000  H
  H81      1.0000 0.72126  0.31087  0.69791  Biso   1.000  H
  C77      1.0000 0.35803  0.28140  0.42109  Biso   1.000  C
  C78      1.0000 0.49494  0.32292  0.38157  Biso   1.000  C
  C79      1.0000 0.67935  0.31227  0.41130  Biso   1.000  C
  C80      1.0000 0.67935  0.31232  0.41130  Biso   1.000  C
  C81      1.0000 0.77216  0.25009  0.49909  Biso   1.000  C
  C82      1.0000 0.86565  0.22309  0.59961  Biso   1.000  C
  C83      1.0000 0.86565  0.22304  0.59961  Biso   1.000  C
  C84      1.0000 0.81204  0.18620  0.69787  Biso   1.000  C
  C85      1.0000 0.81204  0.18615  0.69787  Biso   1.000  C
  C86      1.0000 0.66095  0.15630  0.72647  Biso   1.000  C
  N59      1.0000 0.34239  0.26289  0.36177  Biso   1.000  N
  O31      1.0000 0.29913  0.27327  0.45664  Biso   1.000  O
  O32      1.0000 0.29913  0.27333  0.45664  Biso   1.000  O
  C87      1.0000 0.42325  0.28360  0.33159  Biso   1.000  C
  C88      1.0000 0.42325  0.28355  0.33159  Biso   1.000  C
  N60      1.0000 0.58597  0.28591  0.38017  Biso   1.000  N
  N61      1.0000 0.58597  0.28586  0.38017  Biso   1.000  N
  H82      1.0000 0.50029  0.37476  0.37269  Biso   1.000  H
  H83      1.0000 0.68109  0.36471  0.40702  Biso   1.000  H
  H84      1.0000 0.73197  0.29221  0.39181  Biso   1.000  H
  H85      1.0000 0.73197  0.29215  0.39181  Biso   1.000  H
  O33      1.0000 0.82158  0.21218  0.47036  Biso   1.000  O
  O34      1.0000 0.82158  0.21223  0.47036  Biso   1.000  O
  H86      1.0000 0.91041  0.20217  0.57448  Biso   1.000  H
  N62      1.0000 0.83823  0.16807  0.63958  Biso   1.000  N
  H87      1.0000 0.90075  0.26160  0.62379  Biso   1.000  H
  N63      1.0000 0.83823  0.16813  0.63958  Biso   1.000  N
  H88      1.0000 0.90075  0.26155  0.62379  Biso   1.000  H
  H89      1.0000 0.85584  0.22342  0.71898  Biso   1.000  H
  C89      1.0000 0.82153  0.11381  0.73197  Biso   1.000  C
  H90      1.0000 0.85584  0.22336  0.71898  Biso   1.000  H
  C90      1.0000 0.82153  0.11375  0.73197  Biso   1.000  C
  N64      1.0000 0.72430  0.10160  0.74659  Biso   1.000  N
  O35      1.0000 0.57572  0.16151  0.73504  Biso   1.000  O
  O36      1.0000 0.57572  0.16146  0.73504  Biso   1.000  O
  C91      1.0000 0.24696  0.24391  0.32911  Biso   1.000  C
  C92      1.0000 0.24696  0.24386  0.32911  Biso   1.000  C
  N65      1.0000 0.48116  0.22417  0.31498  Biso   1.000  N
  H91      1.0000 0.40160  0.31560  0.29680  Biso   1.000  H
  C93      1.0000 0.57815  0.23019  0.34038  Biso   1.000  C
  C94      1.0000 0.57815  0.23014  0.34038  Biso   1.000  C
  C95      1.0000 0.86664  0.09751  0.63669  Biso   1.000  C
  N66      1.0000 0.85014  0.06341  0.68812  Biso   1.000  N
  H92      1.0000 0.87124  0.11628  0.76878  Biso   1.000  H
  C96      1.0000 0.70104  0.04599  0.78728  Biso   1.000  C
  C97      1.0000 0.70104  0.04604  0.78728  Biso   1.000  C
  N67      1.0000 0.24060  0.17028  0.30880  Biso   1.000  N
  H93      1.0000 0.19770  0.25208  0.35532  Biso   1.000  H
  H94      1.0000 0.23175  0.27570  0.29410  Biso   1.000  H
  H95      1.0000 0.19770  0.25214  0.35532  Biso   1.000  H
  H96      1.0000 0.23175  0.27564  0.29410  Biso   1.000  H
  C98      1.0000 0.45277  0.18588  0.25841  Biso   1.000  C
  O37      1.0000 0.64499  0.19228  0.32793  Biso   1.000  O
  O38      1.0000 0.89911  0.07008  0.59442  Biso   1.000  O
  O39      1.0000 0.89911  0.07013  0.59442  Biso   1.000  O
  C99      1.0000 0.89644  0.99500  0.70657  Biso   1.000  C
  H97      1.0000 0.75220  0.04491  0.82270  Biso   1.000  H
  N68      1.0000 0.69221  0.97488  0.76035  Biso   1.000  N
  H98      1.0000 0.63923  0.05819  0.80100  Biso   1.000  H
  H99      1.0000 0.63923  0.05825  0.80100  Biso   1.000  H
  C100     1.0000 0.27500  0.14678  0.25381  Biso   1.000  C
  C101     1.0000 0.17676  0.12198  0.32622  Biso   1.000  C
  N69      1.0000 0.37890  0.13091  0.26189  Biso   1.000  N
  H100     1.0000 0.51087  0.16318  0.24659  Biso   1.000  H
  H101     1.0000 0.42738  0.22051  0.22688  Biso   1.000  H
  H102     1.0000 0.42738  0.22046  0.22688  Biso   1.000  H
  H103     1.0000 0.93636  0.00059  0.74641  Biso   1.000  H
  N70      1.0000 0.82606  0.93783  0.70928  Biso   1.000  N
  H104     1.0000 0.94014  0.98139  0.67811  Biso   1.000  H
  N71      1.0000 0.82606  0.93777  0.70928  Biso   1.000  N
  C102     1.0000 0.77342  0.92680  0.75958  Biso   1.000  C
  C103     1.0000 0.60456  0.93879  0.75218  Biso   1.000  C
  C104     1.0000 0.22650  0.07320  0.24041  Biso   1.000  C
  H105     1.0000 0.25590  0.18098  0.22029  Biso   1.000  H
  N72      1.0000 0.17386  0.06217  0.29071  Biso   1.000  N
  O40      1.0000 0.13010  0.12989  0.36817  Biso   1.000  O
  C105     1.0000 0.39536  0.06121  0.24781  Biso   1.000  C
  C106     1.0000 0.39536  0.06115  0.24781  Biso   1.000  C
  C107     1.0000 0.82316  0.87802  0.67377  Biso   1.000  C
  C108     1.0000 0.82316  0.87796  0.67377  Biso   1.000  C
  H106     1.0000 0.81805  0.92691  0.79860  Biso   1.000  H
  C109     1.0000 0.72492  0.85322  0.74618  Biso   1.000  C
  H107     1.0000 0.81805  0.92685  0.79860  Biso   1.000  H
  C110     1.0000 0.72492  0.85317  0.74618  Biso   1.000  C
  N73      1.0000 0.62102  0.86909  0.73811  Biso   1.000  N
  O41      1.0000 0.52525  0.96558  0.75647  Biso   1.000  O
  N74      1.0000 0.30771  0.02512  0.23964  Biso   1.000  N
  H108     1.0000 0.18187  0.07309  0.20139  Biso   1.000  H
  N75      1.0000 0.30771  0.02506  0.23964  Biso   1.000  N
  H109     1.0000 0.18187  0.07315  0.20139  Biso   1.000  H
  C111     1.0000 0.10347  0.00500  0.29337  Biso   1.000  C
  C112     1.0000 0.10347  0.00495  0.29337  Biso   1.000  C
  O42      1.0000 0.47466  0.03442  0.24348  Biso   1.000  O
  O43      1.0000 0.47466  0.03437  0.24348  Biso   1.000  O
  N76      1.0000 0.75932  0.82972  0.69119  Biso   1.000  N
  N77      1.0000 0.75932  0.82967  0.69119  Biso   1.000  N
  O44      1.0000 0.86988  0.87011  0.63177  Biso   1.000  O
  O45      1.0000 0.86988  0.87006  0.63177  Biso   1.000  O
  H110     1.0000 0.74402  0.81902  0.77970  Biso   1.000  H
  H111     1.0000 0.74402  0.81896  0.77970  Biso   1.000  H
  C113     1.0000 0.54715  0.81412  0.74158  Biso   1.000  C
  C114     1.0000 0.54715  0.81407  0.74158  Biso   1.000  C
  C115     1.0000 0.29888  0.95401  0.21271  Biso   1.000  C
  C116     1.0000 0.29888  0.95396  0.21271  Biso   1.000  C
  N78      1.0000 0.14977  0.93659  0.31183  Biso   1.000  N
  H112     1.0000 0.06356  0.99941  0.25358  Biso   1.000  H
  H113     1.0000 0.06356  0.99935  0.25358  Biso   1.000  H
  H114     1.0000 0.05978  0.01861  0.32189  Biso   1.000  H
  H115     1.0000 0.05978  0.01856  0.32189  Biso   1.000  H
  C117     1.0000 0.75296  0.75609  0.67089  Biso   1.000  C
  N79      1.0000 0.51876  0.77583  0.68501  Biso   1.000  N
  N80      1.0000 0.51876  0.77578  0.68501  Biso   1.000  N
  H116     1.0000 0.48905  0.83682  0.75340  Biso   1.000  H
  H117     1.0000 0.57253  0.77949  0.77307  Biso   1.000  H
  H118     1.0000 0.48905  0.83677  0.75340  Biso   1.000  H
  N81      1.0000 0.27561  0.89840  0.25336  Biso   1.000  N
  H119     1.0000 0.24771  0.95509  0.17730  Biso   1.000  H
  H120     1.0000 0.36069  0.94181  0.19900  Biso   1.000  H
  H121     1.0000 0.36069  0.94175  0.19900  Biso   1.000  H
  C118     1.0000 0.13328  0.90249  0.36330  Biso   1.000  C
  C119     1.0000 0.17838  0.88619  0.26798  Biso   1.000  C
  N82      1.0000 0.65752  0.73711  0.63822  Biso   1.000  N
  H122     1.0000 0.80222  0.74792  0.64468  Biso   1.000  H
  H123     1.0000 0.76817  0.72430  0.70590  Biso   1.000  H
  H124     1.0000 0.80222  0.74786  0.64468  Biso   1.000  H
  C120     1.0000 0.42177  0.76981  0.65961  Biso   1.000  C
  C121     1.0000 0.57667  0.71640  0.66841  Biso   1.000  C
  C122     1.0000 0.33897  0.84370  0.27352  Biso   1.000  C
  C123     1.0000 0.33897  0.84365  0.27352  Biso   1.000  C
  O46      1.0000 0.10081  0.92992  0.40557  Biso   1.000  O
  N83      1.0000 0.16169  0.83193  0.36041  Biso   1.000  N
  O47      1.0000 0.10081  0.92987  0.40557  Biso   1.000  O
  N84      1.0000 0.16169  0.83187  0.36041  Biso   1.000  N
  C124     1.0000 0.18788  0.81380  0.30213  Biso   1.000  C
  H125     1.0000 0.12868  0.88372  0.23121  Biso   1.000  H
  H126     1.0000 0.12868  0.88367  0.23121  Biso   1.000  H
  C125     1.0000 0.64189  0.71860  0.57890  Biso   1.000  C
  N85      1.0000 0.41395  0.71409  0.61982  Biso   1.000  N
  O48      1.0000 0.35493  0.80772  0.67206  Biso   1.000  O
  O49      1.0000 0.35493  0.80767  0.67206  Biso   1.000  O
  C126     1.0000 0.50498  0.67708  0.61842  Biso   1.000  C
  H127     1.0000 0.59832  0.68440  0.70319  Biso   1.000  H
  O50      1.0000 0.42420  0.83849  0.26495  Biso   1.000  O
  N86      1.0000 0.29066  0.79541  0.30434  Biso   1.000  N
  N87      1.0000 0.29066  0.79535  0.30434  Biso   1.000  N
  C127     1.0000 0.13427  0.77691  0.40038  Biso   1.000  C
  H128     1.0000 0.14408  0.77658  0.28101  Biso   1.000  H
  N88      1.0000 0.54948  0.68918  0.56451  Biso   1.000  N
  O51      1.0000 0.70079  0.72673  0.54335  Biso   1.000  O
  O52      1.0000 0.70079  0.72667  0.54335  Biso   1.000  O
  C128     1.0000 0.32057  0.68773  0.58869  Biso   1.000  C
  C129     1.0000 0.32057  0.68768  0.58869  Biso   1.000  C
  H129     1.0000 0.49963  0.62524  0.62731  Biso   1.000  H
  H130     1.0000 0.49963  0.62518  0.62731  Biso   1.000  H
  C130     1.0000 0.32741  0.72441  0.31990  Biso   1.000  C
  C131     1.0000 0.32741  0.72436  0.31990  Biso   1.000  C
  N89      1.0000 0.21780  0.74593  0.43945  Biso   1.000  N
  H131     1.0000 0.08951  0.79783  0.42551  Biso   1.000  H
  H132     1.0000 0.09917  0.73840  0.37620  Biso   1.000  H
  N90      1.0000 0.21780  0.74587  0.43945  Biso   1.000  N
  H133     1.0000 0.08951  0.79777  0.42551  Biso   1.000  H
  C132     1.0000 0.52195  0.64799  0.51019  Biso   1.000  C
  N91      1.0000 0.30193  0.70559  0.52494  Biso   1.000  N
  H134     1.0000 0.26795  0.70779  0.60818  Biso   1.000  H
  H135     1.0000 0.31883  0.63529  0.59298  Biso   1.000  H
  N92      1.0000 0.34944  0.71199  0.38423  Biso   1.000  N
  H136     1.0000 0.38688  0.71672  0.30208  Biso   1.000  H
  H137     1.0000 0.27866  0.68913  0.30208  Biso   1.000  H
  H138     1.0000 0.38688  0.71667  0.30208  Biso   1.000  H
  H139     1.0000 0.27866  0.68908  0.30208  Biso   1.000  H
  C133     1.0000 0.22776  0.74991  0.50090  Biso   1.000  C
  C134     1.0000 0.27539  0.68881  0.41987  Biso   1.000  C
  N93      1.0000 0.43757  0.67832  0.47094  Biso   1.000  N
  N94      1.0000 0.43757  0.67827  0.47094  Biso   1.000  N
  H140     1.0000 0.57759  0.64589  0.48809  Biso   1.000  H
  H141     1.0000 0.50656  0.59872  0.52111  Biso   1.000  H
  H142     1.0000 0.50656  0.59867  0.52111  Biso   1.000  H
  C135     1.0000 0.33764  0.66288  0.48001  Biso   1.000  C
  C136     1.0000 0.44165  0.70139  0.41329  Biso   1.000  C
  O53      1.0000 0.17833  0.78782  0.52959  Biso   1.000  O
  O54      1.0000 0.17833  0.78777  0.52959  Biso   1.000  O
  H143     1.0000 0.23400  0.64981  0.39971  Biso   1.000  H
  H144     1.0000 0.23400  0.64976  0.39971  Biso   1.000  H
  H145     1.0000 0.32815  0.61093  0.48678  Biso   1.000  H
  H146     1.0000 0.32815  0.61088  0.48678  Biso   1.000  H
  O55      1.0000 0.51707  0.71102  0.39190  Biso   1.000  O
  O56      1.0000 0.51707  0.71097  0.39190  Biso   1.000  O
  C137     1.0000 0.45273  0.31410  0.75841  Biso   1.000  C
  N95      1.0000 0.48112  0.27580  0.81498  Biso   1.000  N
  N96      1.0000 0.37886  0.36906  0.76188  Biso   1.000  N
  H147     1.0000 0.51083  0.33679  0.74659  Biso   1.000  H
  H148     1.0000 0.42735  0.27951  0.72692  Biso   1.000  H
  H149     1.0000 0.42734  0.27951  0.72687  Biso   1.000  H
  C138     1.0000 0.57811  0.26978  0.84038  Biso   1.000  C
  C139     1.0000 0.42321  0.21637  0.83158  Biso   1.000  C
  C140     1.0000 0.39532  0.43877  0.74781  Biso   1.000  C
  C141     1.0000 0.27496  0.35320  0.75381  Biso   1.000  C
  N97      1.0000 0.58593  0.21411  0.88017  Biso   1.000  N
  O57      1.0000 0.64495  0.30770  0.82793  Biso   1.000  O
  N98      1.0000 0.58591  0.21411  0.88012  Biso   1.000  N
  N99      1.0000 0.34235  0.23708  0.86176  Biso   1.000  N
  H150     1.0000 0.40156  0.18437  0.79680  Biso   1.000  H
  C142     1.0000 0.49490  0.17711  0.88157  Biso   1.000  C
  C143     1.0000 0.49498  0.17711  0.88157  Biso   1.000  C
  O58      1.0000 0.47462  0.46561  0.74348  Biso   1.000  O
  N100     1.0000 0.30760  0.47491  0.73964  Biso   1.000  N
  N101     1.0000 0.30767  0.47491  0.73964  Biso   1.000  N
  C144     1.0000 0.22646  0.42677  0.74041  Biso   1.000  C
  N102     1.0000 0.24056  0.32969  0.80880  Biso   1.000  N
  H151     1.0000 0.25586  0.31899  0.72029  Biso   1.000  H
  C145     1.0000 0.67931  0.18771  0.91130  Biso   1.000  C
  C146     1.0000 0.24692  0.25612  0.82910  Biso   1.000  C
  C147     1.0000 0.35799  0.21858  0.92109  Biso   1.000  C
  C148     1.0000 0.35807  0.21858  0.92109  Biso   1.000  C
  N103     1.0000 0.45040  0.18921  0.93548  Biso   1.000  N
  H152     1.0000 0.50018  0.12521  0.87268  Biso   1.000  H
  H153     1.0000 0.50025  0.12521  0.87268  Biso   1.000  H
  C149     1.0000 0.29884  0.54601  0.71271  Biso   1.000  C
  N104     1.0000 0.17382  0.43780  0.79071  Biso   1.000  N
  H154     1.0000 0.18183  0.42688  0.70138  Biso   1.000  H
  C150     1.0000 0.17672  0.37799  0.82621  Biso   1.000  C
  C151     1.0000 0.17678  0.37799  0.82617  Biso   1.000  C
  N105     1.0000 0.69787  0.20562  0.97504  Biso   1.000  N
  H155     1.0000 0.73193  0.20782  0.89181  Biso   1.000  H
  H156     1.0000 0.68105  0.13532  0.90701  Biso   1.000  H
  N106     1.0000 0.69795  0.20562  0.97504  Biso   1.000  N
  H157     1.0000 0.68104  0.13532  0.90697  Biso   1.000  H
  H158     1.0000 0.19766  0.24789  0.85531  Biso   1.000  H
  H159     1.0000 0.23171  0.22428  0.79409  Biso   1.000  H
  H160     1.0000 0.19765  0.24789  0.85527  Biso   1.000  H
  H161     1.0000 0.23179  0.22428  0.79409  Biso   1.000  H
  O59      1.0000 0.29909  0.22670  0.95664  Biso   1.000  O
  O60      1.0000 0.29917  0.22670  0.95664  Biso   1.000  O
  C152     1.0000 0.47793  0.14801  0.98980  Biso   1.000  C
  N107     1.0000 0.27549  0.60157  0.75336  Biso   1.000  N
  H162     1.0000 0.24760  0.54488  0.67729  Biso   1.000  H
  H163     1.0000 0.36065  0.55817  0.69899  Biso   1.000  H
  N108     1.0000 0.27557  0.60157  0.75336  Biso   1.000  N
  H164     1.0000 0.24767  0.54488  0.67729  Biso   1.000  H
  C153     1.0000 0.10344  0.49497  0.79342  Biso   1.000  C
  C154     1.0000 0.10343  0.49497  0.79337  Biso   1.000  C
  O61      1.0000 0.13000  0.37009  0.86821  Biso   1.000  O
  O62      1.0000 0.13006  0.37009  0.86817  Biso   1.000  O
  C155     1.0000 0.77212  0.24988  0.99909  Biso   1.000  C
  C156     1.0000 0.66224  0.16291  0.01998  Biso   1.000  C
  C157     1.0000 0.66231  0.16291  0.01998  Biso   1.000  C
  H165     1.0000 0.49332  0.09869  0.97888  Biso   1.000  H
  N109     1.0000 0.56238  0.17829  0.02905  Biso   1.000  N
  H166     1.0000 0.42236  0.14592  0.01190  Biso   1.000  H
  H167     1.0000 0.42243  0.14592  0.01190  Biso   1.000  H
  C158     1.0000 0.33893  0.65627  0.77352  Biso   1.000  C
  C159     1.0000 0.17835  0.61378  0.76802  Biso   1.000  C
  C160     1.0000 0.17834  0.61378  0.76797  Biso   1.000  C
  N110     1.0000 0.14973  0.56338  0.81182  Biso   1.000  N
  H168     1.0000 0.06352  0.50056  0.75358  Biso   1.000  H
  H169     1.0000 0.05974  0.48136  0.82188  Biso   1.000  H
  O63      1.0000 0.82146  0.28780  0.97035  Biso   1.000  O
  O64      1.0000 0.82154  0.28780  0.97035  Biso   1.000  O
  N111     1.0000 0.78215  0.24590  0.06053  Biso   1.000  N
  N112     1.0000 0.78222  0.24590  0.06053  Biso   1.000  N
  H170     1.0000 0.67181  0.11090  0.01321  Biso   1.000  H
  C161     1.0000 0.72455  0.18878  0.08007  Biso   1.000  C
  H171     1.0000 0.67179  0.11090  0.01317  Biso   1.000  H
  C162     1.0000 0.72463  0.18878  0.08007  Biso   1.000  C
  C163     1.0000 0.55830  0.20142  0.08670  Biso   1.000  C
  O65      1.0000 0.42409  0.66149  0.76495  Biso   1.000  O
  N113     1.0000 0.29062  0.70457  0.80433  Biso   1.000  N
  O66      1.0000 0.42416  0.66149  0.76495  Biso   1.000  O
  C164     1.0000 0.18784  0.68617  0.80212  Biso   1.000  C
  H172     1.0000 0.12864  0.61631  0.73120  Biso   1.000  H
  C165     1.0000 0.18783  0.68617  0.80208  Biso   1.000  C
  C166     1.0000 0.13324  0.59748  0.86330  Biso   1.000  C
  C167     1.0000 0.86569  0.27688  0.09960  Biso   1.000  C
  N114     1.0000 0.65051  0.21202  0.11575  Biso   1.000  N
  H173     1.0000 0.76595  0.14979  0.10028  Biso   1.000  H
  H174     1.0000 0.76602  0.14979  0.10028  Biso   1.000  H
  O67      1.0000 0.48288  0.21099  0.10808  Biso   1.000  O
  C168     1.0000 0.32730  0.77556  0.81990  Biso   1.000  C
  C169     1.0000 0.32737  0.77556  0.81990  Biso   1.000  C
  N115     1.0000 0.16165  0.66810  0.86041  Biso   1.000  N
  H175     1.0000 0.14404  0.72339  0.78101  Biso   1.000  H
  O68      1.0000 0.10069  0.57011  0.90557  Biso   1.000  O
  O69      1.0000 0.10077  0.57011  0.90557  Biso   1.000  O
  N116     1.0000 0.83826  0.33190  0.13957  Biso   1.000  N
  H176     1.0000 0.91045  0.29780  0.07448  Biso   1.000  H
  H177     1.0000 0.90078  0.23837  0.12378  Biso   1.000  H
  H178     1.0000 0.91052  0.29780  0.07448  Biso   1.000  H
  C170     1.0000 0.67254  0.22439  0.18009  Biso   1.000  C
  C171     1.0000 0.67262  0.22439  0.18009  Biso   1.000  C
  N117     1.0000 0.34940  0.78798  0.88423  Biso   1.000  N
  H179     1.0000 0.38684  0.78331  0.80208  Biso   1.000  H
  H180     1.0000 0.27862  0.81090  0.80208  Biso   1.000  H
  C172     1.0000 0.13423  0.72307  0.90038  Biso   1.000  C
  C173     1.0000 0.81207  0.31377  0.19786  Biso   1.000  C
  C174     1.0000 0.86667  0.40246  0.13669  Biso   1.000  C
  N118     1.0000 0.70930  0.29538  0.19565  Biso   1.000  N
  H181     1.0000 0.61307  0.21669  0.19791  Biso   1.000  H
  H182     1.0000 0.72129  0.18910  0.19791  Biso   1.000  H
  H183     1.0000 0.61306  0.21669  0.19786  Biso   1.000  H
  H184     1.0000 0.72128  0.18910  0.19786  Biso   1.000  H
  C175     1.0000 0.27536  0.81117  0.91992  Biso   1.000  C
  C176     1.0000 0.44161  0.79858  0.91328  Biso   1.000  C
  C177     1.0000 0.27535  0.81117  0.91987  Biso   1.000  C
  N119     1.0000 0.21769  0.75410  0.93945  Biso   1.000  N
  H185     1.0000 0.08939  0.70220  0.92551  Biso   1.000  H
  H186     1.0000 0.09913  0.76158  0.87620  Biso   1.000  H
  N120     1.0000 0.21775  0.75410  0.93940  Biso   1.000  N
  H187     1.0000 0.08945  0.70220  0.92546  Biso   1.000  H
  H188     1.0000 0.85587  0.27661  0.21897  Biso   1.000  H
  C178     1.0000 0.82156  0.38617  0.23197  Biso   1.000  C
  N121     1.0000 0.85018  0.43656  0.18816  Biso   1.000  N
  O70      1.0000 0.89915  0.42989  0.09442  Biso   1.000  O
  N122     1.0000 0.85017  0.43656  0.18812  Biso   1.000  N
  O71      1.0000 0.89922  0.42989  0.09442  Biso   1.000  O
  C179     1.0000 0.66098  0.34368  0.22646  Biso   1.000  C
  C180     1.0000 0.33760  0.83709  0.98001  Biso   1.000  C
  H189     1.0000 0.23389  0.85016  0.89970  Biso   1.000  H
  C181     1.0000 0.33767  0.83709  0.98001  Biso   1.000  C
  H190     1.0000 0.23396  0.85016  0.89970  Biso   1.000  H
  O72      1.0000 0.51703  0.78895  0.89190  Biso   1.000  O
  N123     1.0000 0.43753  0.82165  0.97094  Biso   1.000  N
  C182     1.0000 0.22779  0.75007  0.00089  Biso   1.000  C
  N124     1.0000 0.72434  0.39838  0.24663  Biso   1.000  N
  H191     1.0000 0.87127  0.38369  0.26878  Biso   1.000  H
  N125     1.0000 0.72441  0.39838  0.24658  Biso   1.000  N
  C183     1.0000 0.89647  0.50497  0.20657  Biso   1.000  C
  O73      1.0000 0.57575  0.33851  0.23504  Biso   1.000  O
  O74      1.0000 0.57582  0.33851  0.23504  Biso   1.000  O
  H192     1.0000 0.32811  0.88910  0.98677  Biso   1.000  H
  N126     1.0000 0.30196  0.79438  0.02494  Biso   1.000  N
  N127     1.0000 0.30204  0.79438  0.02494  Biso   1.000  N
  C184     1.0000 0.52198  0.85199  0.01019  Biso   1.000  C
  O75      1.0000 0.17838  0.71220  0.02963  Biso   1.000  O
  O76      1.0000 0.17844  0.71220  0.02959  Biso   1.000  O
  C185     1.0000 0.70107  0.45399  0.28728  Biso   1.000  C
  N128     1.0000 0.82609  0.56220  0.20928  Biso   1.000  N
  H193     1.0000 0.93639  0.49938  0.24640  Biso   1.000  H
  H194     1.0000 0.94017  0.51858  0.17810  Biso   1.000  H
  C186     1.0000 0.32060  0.81229  0.08869  Biso   1.000  C
  H195     1.0000 0.57748  0.85408  0.98808  Biso   1.000  H
  H196     1.0000 0.57755  0.85408  0.98808  Biso   1.000  H
  N129     1.0000 0.54951  0.81079  0.06450  Biso   1.000  N
  H197     1.0000 0.50659  0.90125  0.02111  Biso   1.000  H
  N130     1.0000 0.69224  0.52509  0.26034  Biso   1.000  N
  H198     1.0000 0.75224  0.45506  0.32269  Biso   1.000  H
  H199     1.0000 0.63926  0.44178  0.30099  Biso   1.000  H
  N131     1.0000 0.69232  0.52509  0.26034  Biso   1.000  N
  H200     1.0000 0.75231  0.45506  0.32269  Biso   1.000  H
  C187     1.0000 0.77345  0.57317  0.25958  Biso   1.000  C
  C188     1.0000 0.82319  0.62201  0.17377  Biso   1.000  C
  N132     1.0000 0.41399  0.78589  0.11981  Biso   1.000  N
  H201     1.0000 0.26798  0.79218  0.10818  Biso   1.000  H
  H202     1.0000 0.31886  0.86468  0.09297  Biso   1.000  H
  C189     1.0000 0.50494  0.82289  0.11842  Biso   1.000  C
  C190     1.0000 0.64185  0.78137  0.07890  Biso   1.000  C
  C191     1.0000 0.50501  0.82289  0.11842  Biso   1.000  C
  C192     1.0000 0.64192  0.78137  0.07890  Biso   1.000  C
  C193     1.0000 0.60459  0.56118  0.25218  Biso   1.000  C
  H203     1.0000 0.81808  0.57307  0.29860  Biso   1.000  H
  C194     1.0000 0.72495  0.64680  0.24618  Biso   1.000  C
  O77      1.0000 0.86984  0.62986  0.13177  Biso   1.000  O
  N133     1.0000 0.75935  0.67031  0.19118  Biso   1.000  N
  O78      1.0000 0.86991  0.62986  0.13177  Biso   1.000  O
  N134     1.0000 0.75942  0.67031  0.19118  Biso   1.000  N
  C195     1.0000 0.42180  0.73017  0.15960  Biso   1.000  C
  C196     1.0000 0.57670  0.78357  0.16840  Biso   1.000  C
  H204     1.0000 0.49966  0.87479  0.12730  Biso   1.000  H
  H205     1.0000 0.49973  0.87479  0.12730  Biso   1.000  H
  O79      1.0000 0.70075  0.77330  0.04335  Biso   1.000  O
  N135     1.0000 0.65756  0.76287  0.13822  Biso   1.000  N
  O80      1.0000 0.70082  0.77330  0.04335  Biso   1.000  O
  O81      1.0000 0.52529  0.53439  0.25651  Biso   1.000  O
  N136     1.0000 0.62106  0.63088  0.23810  Biso   1.000  N
  O82      1.0000 0.52528  0.53439  0.25646  Biso   1.000  O
  H206     1.0000 0.74405  0.68096  0.27970  Biso   1.000  H
  H207     1.0000 0.74412  0.68096  0.27970  Biso   1.000  H
  C197     1.0000 0.75299  0.74388  0.17088  Biso   1.000  C
  O83      1.0000 0.35497  0.69230  0.17206  Biso   1.000  O
  N137     1.0000 0.51879  0.72420  0.18500  Biso   1.000  N
  H208     1.0000 0.59835  0.81558  0.20318  Biso   1.000  H
  H209     1.0000 0.59843  0.81558  0.20318  Biso   1.000  H
  C198     1.0000 0.54718  0.68590  0.24158  Biso   1.000  C
  H210     1.0000 0.80225  0.75206  0.14467  Biso   1.000  H
  H211     1.0000 0.76820  0.77567  0.20589  Biso   1.000  H
  H212     1.0000 0.48909  0.66321  0.25340  Biso   1.000  H
  H213     1.0000 0.57256  0.72049  0.27307  Biso   1.000  H
  C199     1.0000 0.45273  0.31410  0.75841  Biso   1.000  C
  N138     1.0000 0.48112  0.27580  0.81498  Biso   1.000  N
  N139     1.0000 0.37886  0.36906  0.76188  Biso   1.000  N
  H214     1.0000 0.51083  0.33679  0.74659  Biso   1.000  H
  H215     1.0000 0.42735  0.27951  0.72692  Biso   1.000  H
  H216     1.0000 0.42734  0.27951  0.72687  Biso   1.000  H
  C200     1.0000 0.57811  0.26978  0.84038  Biso   1.000  C
  C201     1.0000 0.42321  0.21637  0.83158  Biso   1.000  C
  C202     1.0000 0.39532  0.43877  0.74781  Biso   1.000  C
  C203     1.0000 0.27496  0.35320  0.75381  Biso   1.000  C
  O84      1.0000 0.64495  0.30770  0.82793  Biso   1.000  O
  N140     1.0000 0.58593  0.21411  0.88017  Biso   1.000  N
  N141     1.0000 0.58591  0.21411  0.88012  Biso   1.000  N
  N142     1.0000 0.34235  0.23708  0.86176  Biso   1.000  N
  H217     1.0000 0.40156  0.18437  0.79680  Biso   1.000  H
  C204     1.0000 0.49490  0.17711  0.88157  Biso   1.000  C
  C205     1.0000 0.49498  0.17711  0.88157  Biso   1.000  C
  O85      1.0000 0.47462  0.46561  0.74348  Biso   1.000  O
  N143     1.0000 0.30760  0.47491  0.73964  Biso   1.000  N
  N144     1.0000 0.30767  0.47491  0.73964  Biso   1.000  N
  C206     1.0000 0.22646  0.42677  0.74041  Biso   1.000  C
  N145     1.0000 0.24056  0.32969  0.80880  Biso   1.000  N
  H218     1.0000 0.25586  0.31899  0.72029  Biso   1.000  H
  C207     1.0000 0.67931  0.18771  0.91130  Biso   1.000  C
  C208     1.0000 0.24692  0.25612  0.82910  Biso   1.000  C
  C209     1.0000 0.35799  0.21858  0.92109  Biso   1.000  C
  C210     1.0000 0.35807  0.21858  0.92109  Biso   1.000  C
  N146     1.0000 0.45040  0.18921  0.93548  Biso   1.000  N
  H219     1.0000 0.50018  0.12521  0.87268  Biso   1.000  H
  H220     1.0000 0.50025  0.12521  0.87268  Biso   1.000  H
  C211     1.0000 0.29884  0.54601  0.71271  Biso   1.000  C
  N147     1.0000 0.17382  0.43780  0.79071  Biso   1.000  N
  H221     1.0000 0.18183  0.42688  0.70138  Biso   1.000  H
  C212     1.0000 0.17672  0.37799  0.82621  Biso   1.000  C
  C213     1.0000 0.17678  0.37799  0.82617  Biso   1.000  C
  H222     1.0000 0.73193  0.20782  0.89181  Biso   1.000  H
  N148     1.0000 0.69787  0.20562  0.97504  Biso   1.000  N
  H223     1.0000 0.68105  0.13532  0.90701  Biso   1.000  H
  N149     1.0000 0.69795  0.20562  0.97504  Biso   1.000  N
  H224     1.0000 0.68104  0.13532  0.90697  Biso   1.000  H
  H225     1.0000 0.19766  0.24789  0.85531  Biso   1.000  H
  H226     1.0000 0.23171  0.22428  0.79409  Biso   1.000  H
  H227     1.0000 0.19765  0.24789  0.85527  Biso   1.000  H
  H228     1.0000 0.23179  0.22428  0.79409  Biso   1.000  H
  O86      1.0000 0.29909  0.22670  0.95664  Biso   1.000  O
  O87      1.0000 0.29917  0.22670  0.95664  Biso   1.000  O
  C214     1.0000 0.47793  0.14801  0.98980  Biso   1.000  C
  H229     1.0000 0.36065  0.55817  0.69899  Biso   1.000  H
  N150     1.0000 0.27549  0.60157  0.75336  Biso   1.000  N
  H230     1.0000 0.24760  0.54488  0.67729  Biso   1.000  H
  N151     1.0000 0.27557  0.60157  0.75336  Biso   1.000  N
  H231     1.0000 0.24767  0.54488  0.67729  Biso   1.000  H
  C215     1.0000 0.10344  0.49497  0.79342  Biso   1.000  C
  C216     1.0000 0.10343  0.49497  0.79337  Biso   1.000  C
  O88      1.0000 0.13000  0.37009  0.86821  Biso   1.000  O
  O89      1.0000 0.13006  0.37009  0.86817  Biso   1.000  O
  C217     1.0000 0.77212  0.24988  0.99909  Biso   1.000  C
  C218     1.0000 0.66224  0.16291  0.01998  Biso   1.000  C
  C219     1.0000 0.66231  0.16291  0.01998  Biso   1.000  C
  H232     1.0000 0.49332  0.09869  0.97888  Biso   1.000  H
  N152     1.0000 0.56238  0.17829  0.02905  Biso   1.000  N
  H233     1.0000 0.42236  0.14592  0.01190  Biso   1.000  H
  H234     1.0000 0.42243  0.14592  0.01190  Biso   1.000  H
  C220     1.0000 0.33893  0.65627  0.77352  Biso   1.000  C
  C221     1.0000 0.17835  0.61378  0.76802  Biso   1.000  C
  C222     1.0000 0.17834  0.61378  0.76797  Biso   1.000  C
  N153     1.0000 0.14973  0.56338  0.81182  Biso   1.000  N
  H235     1.0000 0.06352  0.50056  0.75358  Biso   1.000  H
  H236     1.0000 0.05974  0.48136  0.82188  Biso   1.000  H
  O90      1.0000 0.82146  0.28780  0.97035  Biso   1.000  O
  O91      1.0000 0.82154  0.28780  0.97035  Biso   1.000  O
  N154     1.0000 0.78215  0.24590  0.06053  Biso   1.000  N
  N155     1.0000 0.78222  0.24590  0.06053  Biso   1.000  N
  H237     1.0000 0.67181  0.11090  0.01321  Biso   1.000  H
  C223     1.0000 0.72455  0.18878  0.08007  Biso   1.000  C
  H238     1.0000 0.67179  0.11090  0.01317  Biso   1.000  H
  C224     1.0000 0.72463  0.18878  0.08007  Biso   1.000  C
  C225     1.0000 0.55830  0.20142  0.08670  Biso   1.000  C
  N156     1.0000 0.29062  0.70457  0.80433  Biso   1.000  N
  O92      1.0000 0.42409  0.66149  0.76495  Biso   1.000  O
  O93      1.0000 0.42416  0.66149  0.76495  Biso   1.000  O
  H239     1.0000 0.12864  0.61631  0.73120  Biso   1.000  H
  C226     1.0000 0.18784  0.68617  0.80212  Biso   1.000  C
  C227     1.0000 0.18783  0.68617  0.80208  Biso   1.000  C
  C228     1.0000 0.13324  0.59748  0.86330  Biso   1.000  C
  C229     1.0000 0.86569  0.27688  0.09960  Biso   1.000  C
  N157     1.0000 0.65051  0.21202  0.11575  Biso   1.000  N
  H240     1.0000 0.76595  0.14979  0.10028  Biso   1.000  H
  H241     1.0000 0.76602  0.14979  0.10028  Biso   1.000  H
  O94      1.0000 0.48288  0.21099  0.10808  Biso   1.000  O
  C230     1.0000 0.32730  0.77556  0.81990  Biso   1.000  C
  C231     1.0000 0.32737  0.77556  0.81990  Biso   1.000  C
  N158     1.0000 0.16165  0.66810  0.86041  Biso   1.000  N
  H242     1.0000 0.14404  0.72339  0.78101  Biso   1.000  H
  O95      1.0000 0.10069  0.57011  0.90557  Biso   1.000  O
  O96      1.0000 0.10077  0.57011  0.90557  Biso   1.000  O
  N159     1.0000 0.83826  0.33190  0.13957  Biso   1.000  N
  H243     1.0000 0.91045  0.29780  0.07448  Biso   1.000  H
  H244     1.0000 0.90078  0.23837  0.12378  Biso   1.000  H
  H245     1.0000 0.91052  0.29780  0.07448  Biso   1.000  H
  C232     1.0000 0.67254  0.22439  0.18009  Biso   1.000  C
  C233     1.0000 0.67262  0.22439  0.18009  Biso   1.000  C
  N160     1.0000 0.34940  0.78798  0.88423  Biso   1.000  N
  H246     1.0000 0.38684  0.78331  0.80208  Biso   1.000  H
  H247     1.0000 0.27862  0.81090  0.80208  Biso   1.000  H
  C234     1.0000 0.13423  0.72307  0.90038  Biso   1.000  C
  C235     1.0000 0.81207  0.31377  0.19786  Biso   1.000  C
  C236     1.0000 0.86667  0.40246  0.13669  Biso   1.000  C
  N161     1.0000 0.70930  0.29538  0.19565  Biso   1.000  N
  H248     1.0000 0.61307  0.21669  0.19791  Biso   1.000  H
  H249     1.0000 0.72129  0.18910  0.19791  Biso   1.000  H
  H250     1.0000 0.61306  0.21669  0.19786  Biso   1.000  H
  H251     1.0000 0.72128  0.18910  0.19786  Biso   1.000  H
  C237     1.0000 0.44161  0.79858  0.91328  Biso   1.000  C
  C238     1.0000 0.27536  0.81117  0.91992  Biso   1.000  C
  C239     1.0000 0.27535  0.81117  0.91987  Biso   1.000  C
  H252     1.0000 0.09913  0.76158  0.87620  Biso   1.000  H
  N162     1.0000 0.21769  0.75410  0.93945  Biso   1.000  N
  H253     1.0000 0.08939  0.70220  0.92551  Biso   1.000  H
  N163     1.0000 0.21775  0.75410  0.93940  Biso   1.000  N
  H254     1.0000 0.08945  0.70220  0.92546  Biso   1.000  H
  H255     1.0000 0.85587  0.27661  0.21897  Biso   1.000  H
  C240     1.0000 0.82156  0.38617  0.23197  Biso   1.000  C
  N164     1.0000 0.85018  0.43656  0.18816  Biso   1.000  N
  O97      1.0000 0.89915  0.42989  0.09442  Biso   1.000  O
  N165     1.0000 0.85017  0.43656  0.18812  Biso   1.000  N
  O98      1.0000 0.89922  0.42989  0.09442  Biso   1.000  O
  C241     1.0000 0.66098  0.34368  0.22646  Biso   1.000  C
  O99      1.0000 0.51703  0.78895  0.89190  Biso   1.000  O
  N166     1.0000 0.43753  0.82165  0.97094  Biso   1.000  N
  C242     1.0000 0.33760  0.83709  0.98001  Biso   1.000  C
  H256     1.0000 0.23389  0.85016  0.89970  Biso   1.000  H
  C243     1.0000 0.33767  0.83709  0.98001  Biso   1.000  C
  H257     1.0000 0.23396  0.85016  0.89970  Biso   1.000  H
  C244     1.0000 0.22779  0.75007  0.00089  Biso   1.000  C
  N167     1.0000 0.72434  0.39838  0.24663  Biso   1.000  N
  H258     1.0000 0.87127  0.38369  0.26878  Biso   1.000  H
  N168     1.0000 0.72441  0.39838  0.24658  Biso   1.000  N
  C245     1.0000 0.89647  0.50497  0.20657  Biso   1.000  C
  O100     1.0000 0.57575  0.33851  0.23504  Biso   1.000  O
  O101     1.0000 0.57582  0.33851  0.23504  Biso   1.000  O
  C246     1.0000 0.52198  0.85199  0.01019  Biso   1.000  C
  H259     1.0000 0.32811  0.88910  0.98677  Biso   1.000  H
  N169     1.0000 0.30196  0.79438  0.02494  Biso   1.000  N
  N170     1.0000 0.30204  0.79438  0.02494  Biso   1.000  N
  O102     1.0000 0.17838  0.71220  0.02963  Biso   1.000  O
  O103     1.0000 0.17844  0.71220  0.02959  Biso   1.000  O
  C247     1.0000 0.70107  0.45399  0.28728  Biso   1.000  C
  N171     1.0000 0.82609  0.56220  0.20928  Biso   1.000  N
  H260     1.0000 0.93639  0.49938  0.24640  Biso   1.000  H
  H261     1.0000 0.94017  0.51858  0.17810  Biso   1.000  H
  H262     1.0000 0.57748  0.85408  0.98808  Biso   1.000  H
  H263     1.0000 0.57755  0.85408  0.98808  Biso   1.000  H
  N172     1.0000 0.54951  0.81079  0.06450  Biso   1.000  N
  H264     1.0000 0.50659  0.90125  0.02111  Biso   1.000  H
  C248     1.0000 0.32060  0.81229  0.08869  Biso   1.000  C
  N173     1.0000 0.69224  0.52509  0.26034  Biso   1.000  N
  H265     1.0000 0.75224  0.45506  0.32269  Biso   1.000  H
  H266     1.0000 0.63926  0.44178  0.30099  Biso   1.000  H
  N174     1.0000 0.69232  0.52509  0.26034  Biso   1.000  N
  H267     1.0000 0.75231  0.45506  0.32269  Biso   1.000  H
  C249     1.0000 0.77345  0.57317  0.25958  Biso   1.000  C
  C250     1.0000 0.82319  0.62201  0.17377  Biso   1.000  C
  C251     1.0000 0.50494  0.82289  0.11842  Biso   1.000  C
  C252     1.0000 0.64185  0.78137  0.07890  Biso   1.000  C
  C253     1.0000 0.50501  0.82289  0.11842  Biso   1.000  C
  C254     1.0000 0.64192  0.78137  0.07890  Biso   1.000  C
  N175     1.0000 0.41399  0.78589  0.11981  Biso   1.000  N
  H268     1.0000 0.26798  0.79218  0.10818  Biso   1.000  H
  H269     1.0000 0.31886  0.86468  0.09297  Biso   1.000  H
  C255     1.0000 0.60459  0.56118  0.25218  Biso   1.000  C
  H270     1.0000 0.81808  0.57307  0.29860  Biso   1.000  H
  C256     1.0000 0.72495  0.64680  0.24618  Biso   1.000  C
  O104     1.0000 0.86984  0.62986  0.13177  Biso   1.000  O
  N176     1.0000 0.75935  0.67031  0.19118  Biso   1.000  N
  O105     1.0000 0.86991  0.62986  0.13177  Biso   1.000  O
  N177     1.0000 0.75942  0.67031  0.19118  Biso   1.000  N
  C257     1.0000 0.57670  0.78357  0.16840  Biso   1.000  C
  H271     1.0000 0.49966  0.87479  0.12730  Biso   1.000  H
  H272     1.0000 0.49973  0.87479  0.12730  Biso   1.000  H
  O106     1.0000 0.70075  0.77330  0.04335  Biso   1.000  O
  N178     1.0000 0.65756  0.76287  0.13822  Biso   1.000  N
  O107     1.0000 0.70082  0.77330  0.04335  Biso   1.000  O
  C258     1.0000 0.42180  0.73017  0.15960  Biso   1.000  C
  O108     1.0000 0.52529  0.53439  0.25651  Biso   1.000  O
  N179     1.0000 0.62106  0.63088  0.23810  Biso   1.000  N
  O109     1.0000 0.52528  0.53439  0.25646  Biso   1.000  O
  H273     1.0000 0.74405  0.68096  0.27970  Biso   1.000  H
  H274     1.0000 0.74412  0.68096  0.27970  Biso   1.000  H
  C259     1.0000 0.75299  0.74388  0.17088  Biso   1.000  C
  N180     1.0000 0.51879  0.72420  0.18500  Biso   1.000  N
  H275     1.0000 0.59835  0.81558  0.20318  Biso   1.000  H
  H276     1.0000 0.59843  0.81558  0.20318  Biso   1.000  H
  O110     1.0000 0.35497  0.69230  0.17206  Biso   1.000  O
  C260     1.0000 0.54718  0.68590  0.24158  Biso   1.000  C
  H277     1.0000 0.80225  0.75206  0.14467  Biso   1.000  H
  H278     1.0000 0.76820  0.77567  0.20589  Biso   1.000  H
  H279     1.0000 0.48909  0.66321  0.25340  Biso   1.000  H
  H280     1.0000 0.57256  0.72049  0.27307  Biso   1.000  H
