data_image0
_cell_length_a       28.381
_cell_length_b       28.381
_cell_length_c       22.099
_cell_angle_alpha    90
_cell_angle_beta     90
_cell_angle_gamma    90

_symmetry_space_group_name_H-M    "P 1"
_symmetry_int_tables_number       1

loop_
  _symmetry_equiv_pos_as_xyz
  'x, y, z'

loop_
  _atom_site_label
  _atom_site_occupancy
  _atom_site_fract_x
  _atom_site_fract_y
  _atom_site_fract_z
  _atom_site_thermal_displace_type
  _atom_site_B_iso_or_equiv
  _atom_site_type_symbol
  C1       1.0000 0.71196  0.27920  0.46170  Biso   1.000  C
  N1       1.0000 0.67771  0.25101  0.49459  Biso   1.000  N
  N2       1.0000 0.72992  0.31891  0.49676  Biso   1.000  N
  H1       1.0000 0.73870  0.25880  0.44979  Biso   1.000  H
  H2       1.0000 0.69709  0.29129  0.42427  Biso   1.000  H
  C2       1.0000 0.62827  0.26243  0.49740  Biso   1.000  C
  C3       1.0000 0.68645  0.20489  0.50907  Biso   1.000  C
  C4       1.0000 0.70477  0.36299  0.50210  Biso   1.000  C
  C5       1.0000 0.77643  0.32342  0.51111  Biso   1.000  C
  C6       1.0000 0.60519  0.21553  0.51907  Biso   1.000  C
  N3       1.0000 0.61541  0.29576  0.54423  Biso   1.000  N
  H3       1.0000 0.61591  0.27229  0.45699  Biso   1.000  H
  N4       1.0000 0.64504  0.18428  0.52600  Biso   1.000  N
  O1       1.0000 0.72527  0.18526  0.50645  Biso   1.000  O
  N5       1.0000 0.66798  0.36292  0.54763  Biso   1.000  N
  C7       1.0000 0.74187  0.39720  0.52704  Biso   1.000  C
  H4       1.0000 0.69247  0.37370  0.46201  Biso   1.000  H
  N6       1.0000 0.78387  0.36831  0.53034  Biso   1.000  N
  O2       1.0000 0.80663  0.29213  0.50672  Biso   1.000  O
  N7       1.0000 0.58261  0.22920  0.57573  Biso   1.000  N
  H5       1.0000 0.58190  0.20320  0.48898  Biso   1.000  H
  C8       1.0000 0.58726  0.27624  0.58749  Biso   1.000  C
  C9       1.0000 0.62049  0.34636  0.53649  Biso   1.000  C
  C10      1.0000 0.63979  0.13333  0.52962  Biso   1.000  C
  C11      1.0000 0.67894  0.39206  0.59528  Biso   1.000  C
  N8       1.0000 0.72288  0.41080  0.58546  Biso   1.000  N
  H6       1.0000 0.74638  0.42500  0.49989  Biso   1.000  H
  C12      1.0000 0.83137  0.38808  0.53717  Biso   1.000  C
  C13      1.0000 0.54928  0.19964  0.60727  Biso   1.000  C
  O3       1.0000 0.56844  0.29710  0.62985  Biso   1.000  O
  H7       1.0000 0.59868  0.36260  0.56451  Biso   1.000  H
  H8       1.0000 0.61129  0.35489  0.49468  Biso   1.000  H
  N9       1.0000 0.63053  0.11638  0.59039  Biso   1.000  N
  H9       1.0000 0.61358  0.12350  0.50287  Biso   1.000  H
  H10      1.0000 0.66900  0.11828  0.51441  Biso   1.000  H
  O4       1.0000 0.65354  0.39995  0.63890  Biso   1.000  O
  C14      1.0000 0.73916  0.45210  0.61781  Biso   1.000  C
  N10      1.0000 0.84271  0.40062  0.59921  Biso   1.000  N
  H11      1.0000 0.83408  0.41648  0.51147  Biso   1.000  H
  H12      1.0000 0.85469  0.36479  0.52260  Biso   1.000  H
  N11      1.0000 0.57137  0.16289  0.64315  Biso   1.000  N
  H13      1.0000 0.52799  0.18481  0.57731  Biso   1.000  H
  H14      1.0000 0.52979  0.21958  0.63419  Biso   1.000  H
  C15      1.0000 0.58441  0.11768  0.61727  Biso   1.000  C
  C16      1.0000 0.66055  0.08661  0.61998  Biso   1.000  C
  N12      1.0000 0.78158  0.44378  0.65274  Biso   1.000  N
  H15      1.0000 0.74529  0.47768  0.58840  Biso   1.000  H
  H16      1.0000 0.71389  0.46288  0.64537  Biso   1.000  H
  C17      1.0000 0.82844  0.44502  0.62596  Biso   1.000  C
  C18      1.0000 0.87911  0.38032  0.62989  Biso   1.000  C
  C19      1.0000 0.56481  0.15975  0.70460  Biso   1.000  C
  H17      1.0000 0.55971  0.10581  0.58880  Biso   1.000  H
  C20      1.0000 0.58948  0.08534  0.67365  Biso   1.000  C
  N13      1.0000 0.63828  0.07029  0.67089  Biso   1.000  N
  O5       1.0000 0.70026  0.07512  0.60283  Biso   1.000  O
  C21      1.0000 0.78295  0.44984  0.71420  Biso   1.000  C
  C22      1.0000 0.86139  0.45041  0.68148  Biso   1.000  C
  H18      1.0000 0.83200  0.47179  0.59690  Biso   1.000  H
  O6       1.0000 0.89969  0.34389  0.61564  Biso   1.000  O
  N14      1.0000 0.88957  0.40760  0.67935  Biso   1.000  N
  O7       1.0000 0.54935  0.19150  0.73714  Biso   1.000  O
  N15      1.0000 0.57813  0.11624  0.72343  Biso   1.000  N
  H19      1.0000 0.56739  0.05789  0.67170  Biso   1.000  H
  C23      1.0000 0.65769  0.03277  0.70791  Biso   1.000  C
  N16      1.0000 0.82918  0.45210  0.73216  Biso   1.000  N
  O8       1.0000 0.74835  0.45270  0.74768  Biso   1.000  O
  H20      1.0000 0.88129  0.47941  0.67881  Biso   1.000  H
  C24      1.0000 0.93168  0.40129  0.71560  Biso   1.000  C
  C25      1.0000 0.56827  0.09869  0.78438  Biso   1.000  C
  N17      1.0000 0.67080  0.04792  0.76782  Biso   1.000  N
  H21      1.0000 0.63409  0.00719  0.71130  Biso   1.000  H
  H22      1.0000 0.68578  0.01959  0.68741  Biso   1.000  H
  C26      1.0000 0.84229  0.46725  0.79207  Biso   1.000  C
  N18      1.0000 0.92185  0.38378  0.77655  Biso   1.000  N
  H23      1.0000 0.95289  0.37888  0.69478  Biso   1.000  H
  H24      1.0000 0.94838  0.43191  0.71868  Biso   1.000  H
  N19      1.0000 0.61041  0.09239  0.82063  Biso   1.000  N
  H25      1.0000 0.54709  0.12110  0.80519  Biso   1.000  H
  H26      1.0000 0.55160  0.06811  0.78130  Biso   1.000  H
  C27      1.0000 0.63860  0.04961  0.81850  Biso   1.000  C
  C28      1.0000 0.71703  0.05014  0.78578  Biso   1.000  C
  N20      1.0000 0.86170  0.42972  0.82909  Biso   1.000  N
  H27      1.0000 0.86590  0.49279  0.78868  Biso   1.000  H
  H28      1.0000 0.81417  0.48039  0.81257  Biso   1.000  H
  C29      1.0000 0.91047  0.41468  0.82633  Biso   1.000  C
  C30      1.0000 0.93517  0.34026  0.79538  Biso   1.000  C
  C31      1.0000 0.62084  0.11969  0.87008  Biso   1.000  C
  H29      1.0000 0.61869  0.02061  0.82117  Biso   1.000  H
  C32      1.0000 0.67154  0.05497  0.87402  Biso   1.000  C
  N21      1.0000 0.71840  0.05620  0.84723  Biso   1.000  N
  O9       1.0000 0.75163  0.04732  0.75230  Biso   1.000  O
  C33      1.0000 0.83943  0.41338  0.87999  Biso   1.000  C
  C34      1.0000 0.91558  0.38230  0.88266  Biso   1.000  C
  H30      1.0000 0.93260  0.44209  0.82827  Biso   1.000  H
  O10      1.0000 0.95064  0.30848  0.76284  Biso   1.000  O
  N22      1.0000 0.92858  0.33709  0.85683  Biso   1.000  N
  O11      1.0000 0.60030  0.15609  0.88434  Biso   1.000  O
  N23      1.0000 0.65727  0.09936  0.90076  Biso   1.000  N
  H31      1.0000 0.66798  0.02819  0.90307  Biso   1.000  H
  C35      1.0000 0.76083  0.04788  0.88217  Biso   1.000  C
  N24      1.0000 0.86945  0.38364  0.90959  Biso   1.000  N
  O12      1.0000 0.79969  0.42486  0.89714  Biso   1.000  O
  H32      1.0000 0.94028  0.39421  0.91117  Biso   1.000  H
  C36      1.0000 0.95067  0.30038  0.89266  Biso   1.000  C
  C37      1.0000 0.66862  0.11191  0.96280  Biso   1.000  C
  N25      1.0000 0.77707  0.08918  0.91452  Biso   1.000  N
  H33      1.0000 0.75470  0.02230  0.91158  Biso   1.000  H
  H34      1.0000 0.78609  0.03710  0.85456  Biso   1.000  H
  C38      1.0000 0.86015  0.36665  0.97036  Biso   1.000  C
  N26      1.0000 0.91734  0.27081  0.92425  Biso   1.000  N
  H35      1.0000 0.97199  0.31521  0.92267  Biso   1.000  H
  H36      1.0000 0.97019  0.28040  0.86579  Biso   1.000  H
  N27      1.0000 0.71611  0.13171  0.96964  Biso   1.000  N
  H37      1.0000 0.66590  0.08351  0.98846  Biso   1.000  H
  H38      1.0000 0.64529  0.13520  0.97737  Biso   1.000  H
  C39      1.0000 0.75808  0.10278  0.97294  Biso   1.000  C
  C40      1.0000 0.82104  0.10792  0.90470  Biso   1.000  C
  N28      1.0000 0.85490  0.31570  0.97398  Biso   1.000  N
  H39      1.0000 0.88637  0.37648  0.99710  Biso   1.000  H
  H40      1.0000 0.83098  0.38170  0.98556  Biso   1.000  H
  C41      1.0000 0.89475  0.28449  0.98090  Biso   1.000  C
  C42      1.0000 0.91272  0.22374  0.91248  Biso   1.000  C
  C43      1.0000 0.72355  0.17656  0.98887  Biso   1.000  C
  C44      1.0000 0.79522  0.13703  0.99787  Biso   1.000  C
  H41      1.0000 0.75360  0.07501  0.00009  Biso   1.000  H
  N29      1.0000 0.83200  0.13706  0.95235  Biso   1.000  N
  O13      1.0000 0.84641  0.10003  0.86108  Biso   1.000  O
  C45      1.0000 0.81354  0.29513  0.99090  Biso   1.000  C
  C46      1.0000 0.87171  0.23755  0.00258  Biso   1.000  C
  H42      1.0000 0.91808  0.29678  0.01100  Biso   1.000  H
  N30      1.0000 0.88454  0.20422  0.95574  Biso   1.000  N
  O14      1.0000 0.93154  0.20288  0.87013  Biso   1.000  O
  O15      1.0000 0.69335  0.20785  0.99326  Biso   1.000  O
  N31      1.0000 0.77006  0.18107  0.00321  Biso   1.000  N
  H43      1.0000 0.80748  0.12628  0.03797  Biso   1.000  H
  C47      1.0000 0.87946  0.15362  0.96348  Biso   1.000  C
  N32      1.0000 0.82228  0.24897  0.00538  Biso   1.000  N
  O16      1.0000 0.77471  0.31472  0.99348  Biso   1.000  O
  H44      1.0000 0.88408  0.22769  0.04299  Biso   1.000  H
  C48      1.0000 0.78803  0.22078  0.03828  Biso   1.000  C
  H45      1.0000 0.90127  0.13738  0.93547  Biso   1.000  H
  H46      1.0000 0.88869  0.14510  0.00529  Biso   1.000  H
  H47      1.0000 0.76128  0.24118  0.05018  Biso   1.000  H
  H48      1.0000 0.80290  0.20870  0.07566  Biso   1.000  H
  N33      1.0000 0.82027  0.11169  0.42092  Biso   1.000  N
  N34      1.0000 0.86625  0.17188  0.47346  Biso   1.000  N
  C49      1.0000 0.86769  0.16560  0.36730  Biso   1.000  C
  C50      1.0000 0.86769  0.16557  0.36730  Biso   1.000  C
  H49      1.0000 0.80790  0.18262  0.42169  Biso   1.000  H
  N35      1.0000 0.86621  0.17188  0.47346  Biso   1.000  N
  C51      1.0000 0.83662  0.08946  0.36997  Biso   1.000  C
  C52      1.0000 0.83535  0.16053  0.42368  Biso   1.000  C
  C53      1.0000 0.78278  0.09228  0.45789  Biso   1.000  C
  C54      1.0000 0.83531  0.16049  0.42368  Biso   1.000  C
  C55      1.0000 0.78274  0.09228  0.45789  Biso   1.000  C
  C56      1.0000 0.90973  0.18519  0.45459  Biso   1.000  C
  C57      1.0000 0.84870  0.18171  0.53437  Biso   1.000  C
  N36      1.0000 0.86635  0.11945  0.34038  Biso   1.000  N
  N37      1.0000 0.91290  0.17861  0.39314  Biso   1.000  N
  N38      1.0000 0.91290  0.17864  0.39314  Biso   1.000  N
  H50      1.0000 0.85582  0.19027  0.33879  Biso   1.000  H
  H51      1.0000 0.85578  0.19027  0.33879  Biso   1.000  H
  O17      1.0000 0.82509  0.04972  0.35287  Biso   1.000  O
  H52      1.0000 0.76960  0.06420  0.43740  Biso   1.000  H
  N39      1.0000 0.79793  0.07917  0.51781  Biso   1.000  N
  N40      1.0000 0.79793  0.07921  0.51781  Biso   1.000  N
  H53      1.0000 0.75720  0.11592  0.46129  Biso   1.000  H
  N41      1.0000 0.79789  0.07917  0.51781  Biso   1.000  N
  N42      1.0000 0.79789  0.07921  0.51781  Biso   1.000  N
  O18      1.0000 0.94151  0.20066  0.48713  Biso   1.000  O
  N43      1.0000 0.84239  0.13957  0.57066  Biso   1.000  N
  H54      1.0000 0.81812  0.19841  0.53129  Biso   1.000  H
  N44      1.0000 0.84236  0.13957  0.57066  Biso   1.000  N
  H55      1.0000 0.87108  0.20288  0.55518  Biso   1.000  H
  H56      1.0000 0.81808  0.19841  0.53129  Biso   1.000  H
  H57      1.0000 0.87108  0.20292  0.55518  Biso   1.000  H
  C58      1.0000 0.88334  0.11018  0.27961  Biso   1.000  C
  C59      1.0000 0.94961  0.20070  0.35730  Biso   1.000  C
  C60      1.0000 0.80015  0.03298  0.53577  Biso   1.000  C
  C61      1.0000 0.80015  0.03294  0.53577  Biso   1.000  C
  C62      1.0000 0.79958  0.11141  0.56849  Biso   1.000  C
  C63      1.0000 0.80011  0.03298  0.53577  Biso   1.000  C
  C64      1.0000 0.80011  0.03294  0.53577  Biso   1.000  C
  C65      1.0000 0.86967  0.12917  0.62007  Biso   1.000  C
  N45      1.0000 0.93429  0.10493  0.27599  Biso   1.000  N
  N46      1.0000 0.93429  0.10489  0.27599  Biso   1.000  N
  H58      1.0000 0.87351  0.13643  0.25291  Biso   1.000  H
  H59      1.0000 0.86829  0.08097  0.26440  Biso   1.000  H
  H60      1.0000 0.87347  0.13643  0.25291  Biso   1.000  H
  N47      1.0000 0.97918  0.16737  0.32572  Biso   1.000  N
  H61      1.0000 0.96959  0.22018  0.38418  Biso   1.000  H
  N48      1.0000 0.97918  0.16740  0.32572  Biso   1.000  N
  H62      1.0000 0.96959  0.22022  0.38418  Biso   1.000  H
  H63      1.0000 0.93478  0.22198  0.32730  Biso   1.000  H
  C66      1.0000 0.80498  0.07843  0.62401  Biso   1.000  C
  H64      1.0000 0.77059  0.13132  0.57120  Biso   1.000  H
  C67      1.0000 0.80494  0.07843  0.62401  Biso   1.000  C
  N49      1.0000 0.80621  0.03157  0.59722  Biso   1.000  N
  O19      1.0000 0.79733  0.99838  0.50233  Biso   1.000  O
  O20      1.0000 0.79733  0.99834  0.50233  Biso   1.000  O
  O21      1.0000 0.79729  0.99838  0.50233  Biso   1.000  O
  O22      1.0000 0.79729  0.99834  0.50233  Biso   1.000  O
  N50      1.0000 0.84937  0.09274  0.65080  Biso   1.000  N
  O23      1.0000 0.90610  0.14968  0.63437  Biso   1.000  O
  C68      1.0000 0.96551  0.14478  0.26911  Biso   1.000  C
  C69      1.0000 0.95486  0.06356  0.25906  Biso   1.000  C
  C70      1.0000 0.96551  0.14474  0.26911  Biso   1.000  C
  C71      1.0000 0.95486  0.06353  0.25906  Biso   1.000  C
  C72      1.0000 0.02629  0.16275  0.33748  Biso   1.000  C
  H65      1.0000 0.77820  0.08199  0.65311  Biso   1.000  H
  C73      1.0000 0.79789  0.98915  0.63220  Biso   1.000  C
  C74      1.0000 0.79786  0.98915  0.63220  Biso   1.000  C
  C75      1.0000 0.86191  0.08139  0.71279  Biso   1.000  C
  H66      1.0000 0.95321  0.16811  0.23902  Biso   1.000  H
  H67      1.0000 0.95317  0.16811  0.23902  Biso   1.000  H
  C76      1.0000 0.01247  0.12170  0.24739  Biso   1.000  C
  O24      1.0000 0.93527  0.02473  0.25648  Biso   1.000  O
  O25      1.0000 0.93527  0.02470  0.25648  Biso   1.000  O
  N51      1.0000 0.00102  0.07227  0.24458  Biso   1.000  N
  N52      1.0000 0.00099  0.07227  0.24458  Biso   1.000  N
  N53      1.0000 0.04577  0.13453  0.29422  Biso   1.000  N
  N54      1.0000 0.04573  0.13453  0.29422  Biso   1.000  N
  O26      1.0000 0.04711  0.18153  0.37984  Biso   1.000  O
  O27      1.0000 0.04707  0.18153  0.37984  Biso   1.000  O
  N55      1.0000 0.83919  0.97290  0.66451  Biso   1.000  N
  H68      1.0000 0.77231  0.99531  0.66157  Biso   1.000  H
  N56      1.0000 0.83919  0.97287  0.66451  Biso   1.000  N
  H69      1.0000 0.77231  0.99528  0.66157  Biso   1.000  H
  N57      1.0000 0.83915  0.97290  0.66451  Biso   1.000  N
  H70      1.0000 0.77228  0.99531  0.66157  Biso   1.000  H
  H71      1.0000 0.78708  0.96388  0.60460  Biso   1.000  H
  N58      1.0000 0.83915  0.97287  0.66451  Biso   1.000  N
  H72      1.0000 0.77228  0.99528  0.66157  Biso   1.000  H
  N59      1.0000 0.88172  0.03390  0.71963  Biso   1.000  N
  H73      1.0000 0.88520  0.10468  0.72741  Biso   1.000  H
  N60      1.0000 0.88172  0.03386  0.71963  Biso   1.000  N
  N61      1.0000 0.88168  0.03390  0.71963  Biso   1.000  N
  H74      1.0000 0.88517  0.10468  0.72741  Biso   1.000  H
  N62      1.0000 0.88168  0.03386  0.71963  Biso   1.000  N
  H75      1.0000 0.83348  0.08407  0.73849  Biso   1.000  H
  H76      1.0000 0.02230  0.13407  0.20698  Biso   1.000  H
  C77      1.0000 0.02921  0.03805  0.21168  Biso   1.000  C
  C78      1.0000 0.02921  0.03802  0.21168  Biso   1.000  C
  C79      1.0000 0.09637  0.12945  0.28648  Biso   1.000  C
  C80      1.0000 0.85279  0.99190  0.72293  Biso   1.000  C
  C81      1.0000 0.85793  0.92893  0.65469  Biso   1.000  C
  C82      1.0000 0.85790  0.92893  0.65469  Biso   1.000  C
  C83      1.0000 0.92657  0.02643  0.73886  Biso   1.000  C
  N63      1.0000 0.06892  0.02008  0.24675  Biso   1.000  N
  H77      1.0000 0.00881  0.01131  0.19978  Biso   1.000  H
  H78      1.0000 0.04130  0.05289  0.17431  Biso   1.000  H
  H79      1.0000 0.00881  0.01128  0.19978  Biso   1.000  H
  N64      1.0000 0.06888  0.02008  0.24675  Biso   1.000  N
  H80      1.0000 0.11261  0.15130  0.31449  Biso   1.000  H
  H81      1.0000 0.10489  0.13868  0.24472  Biso   1.000  H
  N65      1.0000 0.11293  0.08199  0.29762  Biso   1.000  N
  H82      1.0000 0.11258  0.15130  0.31449  Biso   1.000  H
  H83      1.0000 0.82499  0.99641  0.75008  Biso   1.000  H
  C84      1.0000 0.88704  0.95476  0.74791  Biso   1.000  C
  H84      1.0000 0.82499  0.99637  0.75008  Biso   1.000  H
  C85      1.0000 0.88700  0.95476  0.74791  Biso   1.000  C
  O28      1.0000 0.85004  0.90353  0.61111  Biso   1.000  O
  O29      1.0000 0.85001  0.90353  0.61111  Biso   1.000  O
  N66      1.0000 0.88704  0.91797  0.70234  Biso   1.000  N
  N67      1.0000 0.93108  0.97992  0.75325  Biso   1.000  N
  O30      1.0000 0.95782  0.05662  0.74325  Biso   1.000  O
  C86      1.0000 0.07343  0.97357  0.26114  Biso   1.000  C
  C87      1.0000 0.07343  0.97354  0.26114  Biso   1.000  C
  C88      1.0000 0.07339  0.97357  0.26114  Biso   1.000  C
  C89      1.0000 0.07339  0.97354  0.26114  Biso   1.000  C
  C90      1.0000 0.11296  0.04524  0.25209  Biso   1.000  C
  C91      1.0000 0.11296  0.04521  0.25209  Biso   1.000  C
  C92      1.0000 0.14207  0.07103  0.34531  Biso   1.000  C
  H85      1.0000 0.87629  0.94250  0.78800  Biso   1.000  H
  C93      1.0000 0.90363  0.87051  0.71347  Biso   1.000  C
  C94      1.0000 0.90360  0.87051  0.71347  Biso   1.000  C
  C95      1.0000 0.97079  0.96195  0.78827  Biso   1.000  C
  C96      1.0000 0.97076  0.96195  0.78827  Biso   1.000  C
  N68      1.0000 0.11828  0.96610  0.28037  Biso   1.000  N
  O31      1.0000 0.04218  0.94338  0.25675  Biso   1.000  O
  O32      1.0000 0.04218  0.94334  0.25675  Biso   1.000  O
  C97      1.0000 0.14721  0.00810  0.27703  Biso   1.000  C
  H86      1.0000 0.12371  0.05750  0.21200  Biso   1.000  H
  C98      1.0000 0.14721  0.00807  0.27703  Biso   1.000  C
  H87      1.0000 0.12367  0.05750  0.21200  Biso   1.000  H
  O33      1.0000 0.14996  0.09644  0.38889  Biso   1.000  O
  N69      1.0000 0.16085  0.02710  0.33549  Biso   1.000  N
  N70      1.0000 0.95423  0.86544  0.70573  Biso   1.000  N
  H88      1.0000 0.88739  0.84870  0.68551  Biso   1.000  H
  H89      1.0000 0.89511  0.86128  0.75528  Biso   1.000  H
  H90      1.0000 0.89507  0.86128  0.75528  Biso   1.000  H
  N71      1.0000 0.99898  0.92770  0.75542  Biso   1.000  N
  H91      1.0000 0.99119  0.98869  0.80017  Biso   1.000  H
  H92      1.0000 0.95870  0.94711  0.82569  Biso   1.000  H
  H93      1.0000 0.95870  0.94708  0.82569  Biso   1.000  H
  H94      1.0000 0.95867  0.94711  0.82569  Biso   1.000  H
  H95      1.0000 0.95867  0.94708  0.82569  Biso   1.000  H
  C99      1.0000 0.13809  0.91861  0.28721  Biso   1.000  C
  H96      1.0000 0.17498  0.00359  0.24988  Biso   1.000  H
  C100     1.0000 0.20211  0.01085  0.36780  Biso   1.000  C
  C101     1.0000 0.97371  0.83725  0.66247  Biso   1.000  C
  C102     1.0000 0.98753  0.87826  0.75261  Biso   1.000  C
  C103     1.0000 0.04510  0.93644  0.74094  Biso   1.000  C
  H97      1.0000 0.16648  0.91589  0.26151  Biso   1.000  H
  H98      1.0000 0.11480  0.89528  0.27259  Biso   1.000  H
  N72      1.0000 0.15059  0.90726  0.34920  Biso   1.000  N
  N73      1.0000 0.19376  0.96843  0.40273  Biso   1.000  N
  N74      1.0000 0.19376  0.96839  0.40273  Biso   1.000  N
  H99      1.0000 0.22772  0.00469  0.33839  Biso   1.000  H
  H100     1.0000 0.21292  0.03608  0.39540  Biso   1.000  H
  O34      1.0000 0.95289  0.81843  0.62016  Biso   1.000  O
  N75      1.0000 0.02082  0.83263  0.67424  Biso   1.000  N
  N76      1.0000 0.02082  0.83260  0.67424  Biso   1.000  N
  N77      1.0000 0.02079  0.83263  0.67424  Biso   1.000  N
  N78      1.0000 0.02079  0.83260  0.67424  Biso   1.000  N
  H101     1.0000 0.97770  0.86590  0.79298  Biso   1.000  H
  C104     1.0000 0.03449  0.85522  0.73089  Biso   1.000  C
  O35      1.0000 0.06473  0.97527  0.74352  Biso   1.000  O
  N79      1.0000 0.06571  0.89507  0.72397  Biso   1.000  N
  O36      1.0000 0.06469  0.97527  0.74352  Biso   1.000  O
  C105     1.0000 0.19502  0.92153  0.37594  Biso   1.000  C
  C106     1.0000 0.13030  0.87083  0.37988  Biso   1.000  C
  C107     1.0000 0.19985  0.96702  0.46418  Biso   1.000  C
  C108     1.0000 0.05039  0.79930  0.64270  Biso   1.000  C
  C109     1.0000 0.05035  0.79930  0.64270  Biso   1.000  C
  H102     1.0000 0.04679  0.83189  0.76098  Biso   1.000  H
  H103     1.0000 0.04683  0.83189  0.76098  Biso   1.000  H
  C110     1.0000 0.11666  0.88982  0.72035  Biso   1.000  C
  O37      1.0000 0.09390  0.85029  0.36563  Biso   1.000  O
  N80      1.0000 0.15761  0.86043  0.42934  Biso   1.000  N
  N81      1.0000 0.15761  0.86040  0.42934  Biso   1.000  N
  C111     1.0000 0.20038  0.88859  0.43147  Biso   1.000  C
  H104     1.0000 0.22180  0.91797  0.34689  Biso   1.000  H
  H105     1.0000 0.22177  0.91797  0.34689  Biso   1.000  H
  N82      1.0000 0.20207  0.92083  0.48219  Biso   1.000  N
  N83      1.0000 0.20207  0.92079  0.48219  Biso   1.000  N
  O38      1.0000 0.20267  0.00162  0.49767  Biso   1.000  O
  N84      1.0000 0.08710  0.82139  0.60681  Biso   1.000  N
  H106     1.0000 0.06518  0.77802  0.67270  Biso   1.000  H
  H107     1.0000 0.03041  0.77982  0.61577  Biso   1.000  H
  N85      1.0000 0.08710  0.82136  0.60681  Biso   1.000  N
  H108     1.0000 0.06518  0.77799  0.67270  Biso   1.000  H
  H109     1.0000 0.03041  0.77978  0.61577  Biso   1.000  H
  H110     1.0000 0.03037  0.77982  0.61577  Biso   1.000  H
  H111     1.0000 0.03037  0.77978  0.61577  Biso   1.000  H
  H112     1.0000 0.13171  0.91900  0.73560  Biso   1.000  H
  H113     1.0000 0.12649  0.86357  0.74709  Biso   1.000  H
  N86      1.0000 0.13365  0.88052  0.65962  Biso   1.000  N
  C112     1.0000 0.15130  0.81829  0.46559  Biso   1.000  C
  C113     1.0000 0.15130  0.81826  0.46559  Biso   1.000  C
  H114     1.0000 0.22938  0.86868  0.42880  Biso   1.000  H
  C114     1.0000 0.21722  0.90768  0.54206  Biso   1.000  C
  C115     1.0000 0.09027  0.81481  0.54541  Biso   1.000  C
  C116     1.0000 0.13231  0.83440  0.63270  Biso   1.000  C
  C117     1.0000 0.09024  0.81481  0.54541  Biso   1.000  C
  C118     1.0000 0.13227  0.83440  0.63270  Biso   1.000  C
  C119     1.0000 0.16338  0.91054  0.62998  Biso   1.000  C
  H115     1.0000 0.18188  0.80159  0.46871  Biso   1.000  H
  N87      1.0000 0.13379  0.82812  0.52654  Biso   1.000  N
  H116     1.0000 0.12892  0.79712  0.44477  Biso   1.000  H
  H117     1.0000 0.12892  0.79708  0.44477  Biso   1.000  H
  H118     1.0000 0.23040  0.93577  0.56260  Biso   1.000  H
  N88      1.0000 0.17970  0.88827  0.57908  Biso   1.000  N
  H119     1.0000 0.24277  0.88408  0.53871  Biso   1.000  H
  H120     1.0000 0.23037  0.93577  0.56260  Biso   1.000  H
  O39      1.0000 0.05849  0.79934  0.51283  Biso   1.000  O
  O40      1.0000 0.05845  0.79934  0.51283  Biso   1.000  O
  H121     1.0000 0.14418  0.80970  0.66121  Biso   1.000  H
  C120     1.0000 0.16469  0.83951  0.57632  Biso   1.000  C
  C121     1.0000 0.16469  0.83947  0.57632  Biso   1.000  C
  O41      1.0000 0.17487  0.95025  0.64713  Biso   1.000  O
  H122     1.0000 0.19210  0.81738  0.57831  Biso   1.000  H
  O42      1.0000 0.85001  0.40354  0.38889  Biso   1.000  O
  C122     1.0000 0.85793  0.42895  0.34531  Biso   1.000  C
  C123     1.0000 0.85790  0.42895  0.34531  Biso   1.000  C
  N89      1.0000 0.83919  0.47289  0.33549  Biso   1.000  N
  N90      1.0000 0.83915  0.47289  0.33549  Biso   1.000  N
  O43      1.0000 0.85004  0.40354  0.38889  Biso   1.000  O
  N91      1.0000 0.88704  0.41799  0.29762  Biso   1.000  N
  C124     1.0000 0.79789  0.48917  0.36780  Biso   1.000  C
  C125     1.0000 0.79786  0.48917  0.36780  Biso   1.000  C
  C126     1.0000 0.85279  0.49188  0.27703  Biso   1.000  C
  C127     1.0000 0.88704  0.45478  0.25209  Biso   1.000  C
  C128     1.0000 0.88700  0.45478  0.25209  Biso   1.000  C
  C129     1.0000 0.90363  0.37049  0.28648  Biso   1.000  C
  C130     1.0000 0.90360  0.37049  0.28648  Biso   1.000  C
  N92      1.0000 0.80621  0.53159  0.40273  Biso   1.000  N
  H123     1.0000 0.77231  0.49530  0.33839  Biso   1.000  H
  H124     1.0000 0.77228  0.49530  0.33839  Biso   1.000  H
  H125     1.0000 0.78708  0.46390  0.39540  Biso   1.000  H
  N93      1.0000 0.88172  0.53388  0.28037  Biso   1.000  N
  N94      1.0000 0.88168  0.53388  0.28037  Biso   1.000  N
  H126     1.0000 0.82499  0.49639  0.24988  Biso   1.000  H
  N95      1.0000 0.93108  0.47993  0.24675  Biso   1.000  N
  H127     1.0000 0.87629  0.44248  0.21200  Biso   1.000  H
  N96      1.0000 0.95423  0.36542  0.29422  Biso   1.000  N
  H128     1.0000 0.88739  0.34868  0.31449  Biso   1.000  H
  H129     1.0000 0.89511  0.36130  0.24472  Biso   1.000  H
  H130     1.0000 0.89507  0.36130  0.24472  Biso   1.000  H
  C131     1.0000 0.80498  0.57845  0.37594  Biso   1.000  C
  C132     1.0000 0.80015  0.53296  0.46418  Biso   1.000  C
  C133     1.0000 0.80494  0.57845  0.37594  Biso   1.000  C
  C134     1.0000 0.80011  0.53296  0.46418  Biso   1.000  C
  C135     1.0000 0.86191  0.58137  0.28721  Biso   1.000  C
  C136     1.0000 0.92657  0.52644  0.26114  Biso   1.000  C
  C137     1.0000 0.97079  0.46196  0.21168  Biso   1.000  C
  C138     1.0000 0.97076  0.46196  0.21168  Biso   1.000  C
  C139     1.0000 0.97371  0.33727  0.33748  Biso   1.000  C
  C140     1.0000 0.98753  0.37825  0.24739  Biso   1.000  C
  N97      1.0000 0.84937  0.59272  0.34920  Biso   1.000  N
  H131     1.0000 0.77820  0.58197  0.34689  Biso   1.000  H
  C141     1.0000 0.79958  0.61139  0.43147  Biso   1.000  C
  N98      1.0000 0.79793  0.57916  0.48219  Biso   1.000  N
  O44      1.0000 0.79733  0.49836  0.49767  Biso   1.000  O
  N99      1.0000 0.79789  0.57916  0.48219  Biso   1.000  N
  O45      1.0000 0.79729  0.49836  0.49767  Biso   1.000  O
  H132     1.0000 0.88520  0.60470  0.27259  Biso   1.000  H
  H133     1.0000 0.83348  0.58409  0.26151  Biso   1.000  H
  H134     1.0000 0.88517  0.60470  0.27259  Biso   1.000  H
  O46      1.0000 0.95782  0.55664  0.25675  Biso   1.000  O
  N100     1.0000 0.99898  0.42772  0.24458  Biso   1.000  N
  H135     1.0000 0.99119  0.48871  0.19978  Biso   1.000  H
  H136     1.0000 0.95870  0.44709  0.17431  Biso   1.000  H
  H137     1.0000 0.95867  0.44709  0.17431  Biso   1.000  H
  O47      1.0000 0.95289  0.31842  0.37984  Biso   1.000  O
  N101     1.0000 0.02082  0.33262  0.32572  Biso   1.000  N
  N102     1.0000 0.02079  0.33262  0.32572  Biso   1.000  N
  H138     1.0000 0.97770  0.36588  0.20698  Biso   1.000  H
  C142     1.0000 0.03449  0.35520  0.26911  Biso   1.000  C
  C143     1.0000 0.86967  0.62912  0.37988  Biso   1.000  C
  N103     1.0000 0.84239  0.63958  0.42934  Biso   1.000  N
  N104     1.0000 0.84236  0.63958  0.42934  Biso   1.000  N
  H139     1.0000 0.77059  0.63130  0.42880  Biso   1.000  H
  C144     1.0000 0.78278  0.59230  0.54206  Biso   1.000  C
  C145     1.0000 0.78274  0.59230  0.54206  Biso   1.000  C
  C146     1.0000 0.04510  0.43645  0.25906  Biso   1.000  C
  C147     1.0000 0.05039  0.29928  0.35730  Biso   1.000  C
  C148     1.0000 0.05035  0.29928  0.35730  Biso   1.000  C
  N105     1.0000 0.06571  0.39505  0.27599  Biso   1.000  N
  H140     1.0000 0.04679  0.33188  0.23902  Biso   1.000  H
  H141     1.0000 0.04683  0.33188  0.23902  Biso   1.000  H
  O48      1.0000 0.90610  0.64970  0.36563  Biso   1.000  O
  C149     1.0000 0.84870  0.68169  0.46559  Biso   1.000  C
  N106     1.0000 0.82027  0.61171  0.57908  Biso   1.000  N
  H142     1.0000 0.75720  0.61591  0.53871  Biso   1.000  H
  H143     1.0000 0.76960  0.56418  0.56260  Biso   1.000  H
  O49      1.0000 0.06473  0.47525  0.25648  Biso   1.000  O
  O50      1.0000 0.06469  0.47525  0.25648  Biso   1.000  O
  N107     1.0000 0.08710  0.32138  0.39314  Biso   1.000  N
  H144     1.0000 0.06518  0.27800  0.32730  Biso   1.000  H
  H145     1.0000 0.03041  0.27980  0.38418  Biso   1.000  H
  H146     1.0000 0.03037  0.27980  0.38418  Biso   1.000  H
  C150     1.0000 0.11666  0.38980  0.27961  Biso   1.000  C
  N108     1.0000 0.86625  0.67186  0.52654  Biso   1.000  N
  H147     1.0000 0.81812  0.69839  0.46871  Biso   1.000  H
  N109     1.0000 0.86621  0.67186  0.52654  Biso   1.000  N
  H148     1.0000 0.87108  0.70290  0.44477  Biso   1.000  H
  H149     1.0000 0.81808  0.69839  0.46871  Biso   1.000  H
  C151     1.0000 0.83662  0.58944  0.62998  Biso   1.000  C
  C152     1.0000 0.83531  0.66048  0.57632  Biso   1.000  C
  C153     1.0000 0.09027  0.31482  0.45459  Biso   1.000  C
  C154     1.0000 0.13231  0.33438  0.36730  Biso   1.000  C
  C155     1.0000 0.09024  0.31482  0.45459  Biso   1.000  C
  C156     1.0000 0.13227  0.33438  0.36730  Biso   1.000  C
  H150     1.0000 0.12649  0.36359  0.25291  Biso   1.000  H
  H151     1.0000 0.13171  0.41898  0.26440  Biso   1.000  H
  N110     1.0000 0.13365  0.38054  0.34038  Biso   1.000  N
  C157     1.0000 0.90973  0.68518  0.54541  Biso   1.000  C
  N111     1.0000 0.86635  0.61946  0.65962  Biso   1.000  N
  O51      1.0000 0.82509  0.54970  0.64713  Biso   1.000  O
  C158     1.0000 0.86769  0.66559  0.63270  Biso   1.000  C
  H152     1.0000 0.80790  0.68260  0.57831  Biso   1.000  H
  O52      1.0000 0.05849  0.29932  0.48713  Biso   1.000  O
  O53      1.0000 0.05845  0.29932  0.48713  Biso   1.000  O
  N112     1.0000 0.13379  0.32811  0.47346  Biso   1.000  N
  H153     1.0000 0.14418  0.30968  0.33879  Biso   1.000  H
  C159     1.0000 0.16469  0.33949  0.42368  Biso   1.000  C
  C160     1.0000 0.16338  0.41056  0.36997  Biso   1.000  C
  O54      1.0000 0.94151  0.70064  0.51283  Biso   1.000  O
  N113     1.0000 0.91290  0.67859  0.60681  Biso   1.000  N
  C161     1.0000 0.88334  0.61016  0.72035  Biso   1.000  C
  H154     1.0000 0.85582  0.69029  0.66121  Biso   1.000  H
  H155     1.0000 0.85578  0.69029  0.66121  Biso   1.000  H
  C162     1.0000 0.15130  0.31828  0.53437  Biso   1.000  C
  N114     1.0000 0.17970  0.38829  0.42092  Biso   1.000  N
  H156     1.0000 0.19210  0.31740  0.42169  Biso   1.000  H
  O55      1.0000 0.17487  0.45027  0.35287  Biso   1.000  O
  C163     1.0000 0.94961  0.70068  0.64270  Biso   1.000  C
  N115     1.0000 0.93429  0.60491  0.72397  Biso   1.000  N
  H157     1.0000 0.86829  0.58099  0.73560  Biso   1.000  H
  H158     1.0000 0.87351  0.63638  0.74709  Biso   1.000  H
  H159     1.0000 0.87347  0.63638  0.74709  Biso   1.000  H
  N116     1.0000 0.15761  0.36042  0.57066  Biso   1.000  N
  H160     1.0000 0.18188  0.30161  0.53129  Biso   1.000  H
  H161     1.0000 0.12892  0.29710  0.55518  Biso   1.000  H
  C164     1.0000 0.21722  0.40767  0.45789  Biso   1.000  C
  N117     1.0000 0.97918  0.66735  0.67424  Biso   1.000  N
  H162     1.0000 0.96959  0.72020  0.61577  Biso   1.000  H
  H163     1.0000 0.93478  0.72200  0.67270  Biso   1.000  H
  C165     1.0000 0.95486  0.56355  0.74094  Biso   1.000  C
  C166     1.0000 0.96551  0.64476  0.73089  Biso   1.000  C
  C167     1.0000 0.20038  0.38857  0.56849  Biso   1.000  C
  C168     1.0000 0.13030  0.37085  0.62007  Biso   1.000  C
  N118     1.0000 0.20207  0.42081  0.51781  Biso   1.000  N
  H164     1.0000 0.23040  0.43578  0.43740  Biso   1.000  H
  H165     1.0000 0.24277  0.38409  0.46129  Biso   1.000  H
  H166     1.0000 0.23037  0.43578  0.43740  Biso   1.000  H
  C169     1.0000 0.02629  0.66273  0.66247  Biso   1.000  C
  O56      1.0000 0.93527  0.52472  0.74352  Biso   1.000  O
  N119     1.0000 0.00102  0.57228  0.75542  Biso   1.000  N
  N120     1.0000 0.00099  0.57228  0.75542  Biso   1.000  N
  H167     1.0000 0.95321  0.66809  0.76098  Biso   1.000  H
  H168     1.0000 0.95317  0.66809  0.76098  Biso   1.000  H
  C170     1.0000 0.01247  0.62172  0.75261  Biso   1.000  C
  N121     1.0000 0.15059  0.40728  0.65080  Biso   1.000  N
  O57      1.0000 0.09390  0.35027  0.63437  Biso   1.000  O
  H169     1.0000 0.22938  0.36870  0.57120  Biso   1.000  H
  C171     1.0000 0.19502  0.42155  0.62401  Biso   1.000  C
  C172     1.0000 0.19985  0.46704  0.53577  Biso   1.000  C
  O58      1.0000 0.04711  0.68155  0.62016  Biso   1.000  O
  N122     1.0000 0.04577  0.63454  0.70573  Biso   1.000  N
  O59      1.0000 0.04707  0.68155  0.62016  Biso   1.000  O
  N123     1.0000 0.04573  0.63454  0.70573  Biso   1.000  N
  C173     1.0000 0.02921  0.53804  0.78827  Biso   1.000  C
  H170     1.0000 0.02230  0.63409  0.79298  Biso   1.000  H
  C174     1.0000 0.13809  0.41863  0.71279  Biso   1.000  C
  N124     1.0000 0.19376  0.46841  0.59722  Biso   1.000  N
  H171     1.0000 0.22180  0.41799  0.65311  Biso   1.000  H
  H172     1.0000 0.22177  0.41799  0.65311  Biso   1.000  H
  O60      1.0000 0.20267  0.50164  0.50233  Biso   1.000  O
  C175     1.0000 0.09637  0.62947  0.71347  Biso   1.000  C
  N125     1.0000 0.06892  0.52007  0.75325  Biso   1.000  N
  H173     1.0000 0.00881  0.51129  0.80017  Biso   1.000  H
  H174     1.0000 0.04130  0.55291  0.82569  Biso   1.000  H
  N126     1.0000 0.06888  0.52007  0.75325  Biso   1.000  N
  N127     1.0000 0.11828  0.46612  0.71963  Biso   1.000  N
  H175     1.0000 0.16648  0.41588  0.73849  Biso   1.000  H
  H176     1.0000 0.11480  0.39530  0.72741  Biso   1.000  H
  C176     1.0000 0.20211  0.51083  0.63220  Biso   1.000  C
  N128     1.0000 0.11293  0.58197  0.70234  Biso   1.000  N
  H177     1.0000 0.11261  0.65128  0.68551  Biso   1.000  H
  H178     1.0000 0.10489  0.63870  0.75528  Biso   1.000  H
  H179     1.0000 0.11258  0.65128  0.68551  Biso   1.000  H
  C177     1.0000 0.07343  0.47356  0.73886  Biso   1.000  C
  C178     1.0000 0.11296  0.54522  0.74791  Biso   1.000  C
  C179     1.0000 0.07339  0.47356  0.73886  Biso   1.000  C
  C180     1.0000 0.14721  0.50809  0.72293  Biso   1.000  C
  N129     1.0000 0.16085  0.52708  0.66451  Biso   1.000  N
  H180     1.0000 0.22772  0.50470  0.66157  Biso   1.000  H
  H181     1.0000 0.21292  0.53610  0.60460  Biso   1.000  H
  C181     1.0000 0.14207  0.57102  0.65469  Biso   1.000  C
  O61      1.0000 0.04218  0.44336  0.74325  Biso   1.000  O
  H182     1.0000 0.12371  0.55749  0.78800  Biso   1.000  H
  H183     1.0000 0.12367  0.55749  0.78800  Biso   1.000  H
  H184     1.0000 0.17498  0.50358  0.75008  Biso   1.000  H
  O62      1.0000 0.14996  0.59642  0.61111  Biso   1.000  O
  N130     1.0000 0.54575  0.13453  0.20576  Biso   1.000  N
  H185     1.0000 0.61259  0.15130  0.18548  Biso   1.000  H
  N131     1.0000 0.61291  0.08199  0.20236  Biso   1.000  N
  H186     1.0000 0.60488  0.13868  0.25531  Biso   1.000  H
  N132     1.0000 0.61291  0.08199  0.20232  Biso   1.000  N
  H187     1.0000 0.60488  0.13868  0.25526  Biso   1.000  H
  C182     1.0000 0.52627  0.16275  0.16250  Biso   1.000  C
  C183     1.0000 0.51242  0.12170  0.25259  Biso   1.000  C
  C184     1.0000 0.59635  0.12945  0.21349  Biso   1.000  C
  C185     1.0000 0.61298  0.04524  0.24788  Biso   1.000  C
  C186     1.0000 0.64205  0.07103  0.15467  Biso   1.000  C
  C187     1.0000 0.61298  0.04521  0.24788  Biso   1.000  C
  N133     1.0000 0.47919  0.16737  0.17426  Biso   1.000  N
  N134     1.0000 0.47919  0.16740  0.17426  Biso   1.000  N
  O63      1.0000 0.54709  0.18153  0.12014  Biso   1.000  O
  C188     1.0000 0.46552  0.14478  0.23087  Biso   1.000  C
  C189     1.0000 0.46552  0.14474  0.23087  Biso   1.000  C
  N135     1.0000 0.50100  0.07227  0.25540  Biso   1.000  N
  H188     1.0000 0.52229  0.13407  0.29295  Biso   1.000  H
  N136     1.0000 0.56890  0.02008  0.25322  Biso   1.000  N
  H189     1.0000 0.62369  0.05750  0.28798  Biso   1.000  H
  C190     1.0000 0.64719  0.00810  0.22295  Biso   1.000  C
  C191     1.0000 0.64719  0.00807  0.22295  Biso   1.000  C
  O64      1.0000 0.64994  0.09644  0.11109  Biso   1.000  O
  N137     1.0000 0.66079  0.02710  0.16453  Biso   1.000  N
  N138     1.0000 0.66079  0.02710  0.16449  Biso   1.000  N
  C192     1.0000 0.44963  0.20070  0.14268  Biso   1.000  C
  N139     1.0000 0.43427  0.10493  0.22399  Biso   1.000  N
  N140     1.0000 0.43427  0.10493  0.22395  Biso   1.000  N
  H190     1.0000 0.45319  0.16811  0.26096  Biso   1.000  H
  N141     1.0000 0.43427  0.10489  0.22399  Biso   1.000  N
  N142     1.0000 0.43427  0.10489  0.22395  Biso   1.000  N
  C193     1.0000 0.45488  0.06356  0.24092  Biso   1.000  C
  C194     1.0000 0.45488  0.06353  0.24092  Biso   1.000  C
  C195     1.0000 0.52923  0.03805  0.28829  Biso   1.000  C
  C196     1.0000 0.52923  0.03802  0.28829  Biso   1.000  C
  C197     1.0000 0.57341  0.97357  0.23888  Biso   1.000  C
  C198     1.0000 0.57341  0.97357  0.23883  Biso   1.000  C
  C199     1.0000 0.57341  0.97354  0.23888  Biso   1.000  C
  C200     1.0000 0.57341  0.97354  0.23883  Biso   1.000  C
  N143     1.0000 0.61830  0.96610  0.21965  Biso   1.000  N
  N144     1.0000 0.61830  0.96610  0.21960  Biso   1.000  N
  H191     1.0000 0.67499  0.00359  0.25010  Biso   1.000  H
  H192     1.0000 0.67499  0.00359  0.25006  Biso   1.000  H
  C201     1.0000 0.70212  0.01085  0.13218  Biso   1.000  C
  H193     1.0000 0.43480  0.22198  0.17268  Biso   1.000  H
  N145     1.0000 0.41292  0.17861  0.10684  Biso   1.000  N
  H194     1.0000 0.46957  0.22018  0.11580  Biso   1.000  H
  N146     1.0000 0.41292  0.17864  0.10684  Biso   1.000  N
  H195     1.0000 0.46957  0.22022  0.11580  Biso   1.000  H
  C202     1.0000 0.38332  0.11018  0.22037  Biso   1.000  C
  C203     1.0000 0.38332  0.11018  0.22033  Biso   1.000  C
  O65      1.0000 0.43526  0.02473  0.24350  Biso   1.000  O
  O66      1.0000 0.43526  0.02470  0.24350  Biso   1.000  O
  H196     1.0000 0.50879  0.01131  0.30019  Biso   1.000  H
  H197     1.0000 0.54128  0.05289  0.32572  Biso   1.000  H
  H198     1.0000 0.54128  0.05289  0.32567  Biso   1.000  H
  H199     1.0000 0.50879  0.01128  0.30019  Biso   1.000  H
  O67      1.0000 0.54212  0.94338  0.24327  Biso   1.000  O
  O68      1.0000 0.54212  0.94338  0.24322  Biso   1.000  O
  O69      1.0000 0.54212  0.94334  0.24327  Biso   1.000  O
  O70      1.0000 0.54212  0.94334  0.24322  Biso   1.000  O
  C204     1.0000 0.63807  0.91861  0.21282  Biso   1.000  C
  C205     1.0000 0.63807  0.91861  0.21277  Biso   1.000  C
  H200     1.0000 0.72767  0.00469  0.16159  Biso   1.000  H
  N147     1.0000 0.69377  0.96843  0.09720  Biso   1.000  N
  N148     1.0000 0.69377  0.96839  0.09720  Biso   1.000  N
  H201     1.0000 0.71287  0.03608  0.10457  Biso   1.000  H
  C206     1.0000 0.40975  0.18519  0.04539  Biso   1.000  C
  C207     1.0000 0.36771  0.16560  0.13268  Biso   1.000  C
  C208     1.0000 0.36771  0.16557  0.13268  Biso   1.000  C
  N149     1.0000 0.36637  0.11945  0.15960  Biso   1.000  N
  H202     1.0000 0.37349  0.13643  0.24712  Biso   1.000  H
  H203     1.0000 0.36831  0.08097  0.23558  Biso   1.000  H
  H204     1.0000 0.37349  0.13643  0.24707  Biso   1.000  H
  H205     1.0000 0.66650  0.91589  0.23852  Biso   1.000  H
  H206     1.0000 0.66650  0.91589  0.23847  Biso   1.000  H
  N150     1.0000 0.65061  0.90726  0.15078  Biso   1.000  N
  H207     1.0000 0.61478  0.89528  0.22739  Biso   1.000  H
  C209     1.0000 0.69501  0.92153  0.12403  Biso   1.000  C
  C210     1.0000 0.69983  0.96702  0.03579  Biso   1.000  C
  O71      1.0000 0.44149  0.20066  0.01285  Biso   1.000  O
  N151     1.0000 0.36623  0.17188  0.02656  Biso   1.000  N
  N152     1.0000 0.36623  0.17188  0.02652  Biso   1.000  N
  C211     1.0000 0.33533  0.16049  0.07634  Biso   1.000  C
  C212     1.0000 0.33533  0.16049  0.07629  Biso   1.000  C
  H208     1.0000 0.35580  0.19027  0.16118  Biso   1.000  H
  C213     1.0000 0.33533  0.16053  0.07634  Biso   1.000  C
  C214     1.0000 0.33533  0.16053  0.07629  Biso   1.000  C
  C215     1.0000 0.33660  0.08946  0.13001  Biso   1.000  C
  C216     1.0000 0.33660  0.08946  0.12996  Biso   1.000  C
  C217     1.0000 0.63032  0.87083  0.12010  Biso   1.000  C
  C218     1.0000 0.70040  0.88859  0.06851  Biso   1.000  C
  H209     1.0000 0.72179  0.91797  0.15308  Biso   1.000  H
  O72      1.0000 0.70269  0.00162  0.00231  Biso   1.000  O
  N153     1.0000 0.70209  0.92083  0.01783  Biso   1.000  N
  N154     1.0000 0.70209  0.92083  0.01778  Biso   1.000  N
  N155     1.0000 0.70209  0.92079  0.01783  Biso   1.000  N
  N156     1.0000 0.70209  0.92079  0.01778  Biso   1.000  N
  C219     1.0000 0.34868  0.18171  0.96561  Biso   1.000  C
  C220     1.0000 0.34868  0.18171  0.96556  Biso   1.000  C
  N157     1.0000 0.32028  0.11169  0.07905  Biso   1.000  N
  H210     1.0000 0.30788  0.18262  0.07828  Biso   1.000  H
  O73      1.0000 0.32511  0.04972  0.14711  Biso   1.000  O
  O74      1.0000 0.59388  0.85029  0.13435  Biso   1.000  O
  N158     1.0000 0.65759  0.86043  0.07064  Biso   1.000  N
  N159     1.0000 0.65759  0.86040  0.07064  Biso   1.000  N
  H211     1.0000 0.72940  0.86868  0.07118  Biso   1.000  H
  C221     1.0000 0.71724  0.90768  0.95792  Biso   1.000  C
  N160     1.0000 0.34238  0.13957  0.92936  Biso   1.000  N
  H212     1.0000 0.37109  0.20288  0.94479  Biso   1.000  H
  H213     1.0000 0.31810  0.19841  0.96869  Biso   1.000  H
  N161     1.0000 0.34238  0.13957  0.92932  Biso   1.000  N
  H214     1.0000 0.37109  0.20292  0.94479  Biso   1.000  H
  C222     1.0000 0.28276  0.09228  0.04208  Biso   1.000  C
  C223     1.0000 0.65128  0.81829  0.03439  Biso   1.000  C
  C224     1.0000 0.65128  0.81826  0.03439  Biso   1.000  C
  N162     1.0000 0.67972  0.88827  0.92090  Biso   1.000  N
  H215     1.0000 0.74279  0.88408  0.96131  Biso   1.000  H
  H216     1.0000 0.74279  0.88408  0.96127  Biso   1.000  H
  H217     1.0000 0.73038  0.93577  0.93737  Biso   1.000  H
  C225     1.0000 0.29960  0.11141  0.93144  Biso   1.000  C
  C226     1.0000 0.36968  0.12917  0.87990  Biso   1.000  C
  H218     1.0000 0.26958  0.06420  0.06258  Biso   1.000  H
  N163     1.0000 0.29791  0.07917  0.98217  Biso   1.000  N
  N164     1.0000 0.29791  0.07921  0.98217  Biso   1.000  N
  H219     1.0000 0.25718  0.11592  0.03869  Biso   1.000  H
  N165     1.0000 0.63377  0.82812  0.97344  Biso   1.000  N
  H220     1.0000 0.68190  0.80159  0.03131  Biso   1.000  H
  H221     1.0000 0.62887  0.79712  0.05516  Biso   1.000  H
  H222     1.0000 0.68190  0.80159  0.03127  Biso   1.000  H
  H223     1.0000 0.62887  0.79708  0.05516  Biso   1.000  H
  C227     1.0000 0.66467  0.83951  0.92366  Biso   1.000  C
  C228     1.0000 0.66337  0.91054  0.86999  Biso   1.000  C
  C229     1.0000 0.66467  0.83947  0.92366  Biso   1.000  C
  N166     1.0000 0.34939  0.09274  0.84922  Biso   1.000  N
  N167     1.0000 0.34939  0.09274  0.84918  Biso   1.000  N
  O75      1.0000 0.40608  0.14968  0.86565  Biso   1.000  O
  O76      1.0000 0.40608  0.14968  0.86560  Biso   1.000  O
  H224     1.0000 0.27060  0.13132  0.92882  Biso   1.000  H
  H225     1.0000 0.27060  0.13132  0.92878  Biso   1.000  H
  C230     1.0000 0.30496  0.07843  0.87592  Biso   1.000  C
  C231     1.0000 0.30013  0.03298  0.96421  Biso   1.000  C
  C232     1.0000 0.30013  0.03298  0.96416  Biso   1.000  C
  C233     1.0000 0.30013  0.03294  0.96421  Biso   1.000  C
  C234     1.0000 0.30013  0.03294  0.96416  Biso   1.000  C
  C235     1.0000 0.59025  0.81481  0.95461  Biso   1.000  C
  C236     1.0000 0.59025  0.81481  0.95457  Biso   1.000  C
  C237     1.0000 0.63229  0.83440  0.86728  Biso   1.000  C
  H226     1.0000 0.69208  0.81738  0.92172  Biso   1.000  H
  H227     1.0000 0.69208  0.81738  0.92167  Biso   1.000  H
  N168     1.0000 0.63363  0.88052  0.84035  Biso   1.000  N
  O77      1.0000 0.67485  0.95025  0.85284  Biso   1.000  O
  C238     1.0000 0.36190  0.08139  0.78718  Biso   1.000  C
  N169     1.0000 0.30619  0.03157  0.90276  Biso   1.000  N
  H228     1.0000 0.27818  0.08199  0.84687  Biso   1.000  H
  O78      1.0000 0.29731  0.99838  0.99769  Biso   1.000  O
  O79      1.0000 0.29731  0.99838  0.99765  Biso   1.000  O
  O80      1.0000 0.29731  0.99834  0.99769  Biso   1.000  O
  O81      1.0000 0.29731  0.99834  0.99765  Biso   1.000  O
  O82      1.0000 0.55847  0.79934  0.98715  Biso   1.000  O
  N170     1.0000 0.58708  0.82139  0.89316  Biso   1.000  N
  N171     1.0000 0.58708  0.82136  0.89316  Biso   1.000  N
  H229     1.0000 0.64420  0.80970  0.83882  Biso   1.000  H
  H230     1.0000 0.64420  0.80970  0.83877  Biso   1.000  H
  C239     1.0000 0.61664  0.88982  0.77963  Biso   1.000  C
  N172     1.0000 0.38170  0.03390  0.78035  Biso   1.000  N
  H231     1.0000 0.38519  0.10468  0.77257  Biso   1.000  H
  N173     1.0000 0.38170  0.03386  0.78035  Biso   1.000  N
  H232     1.0000 0.33350  0.08407  0.76148  Biso   1.000  H
  C240     1.0000 0.29788  0.98915  0.86782  Biso   1.000  C
  C241     1.0000 0.29788  0.98915  0.86778  Biso   1.000  C
  C242     1.0000 0.55037  0.79930  0.85728  Biso   1.000  C
  N174     1.0000 0.56570  0.89507  0.77601  Biso   1.000  N
  H233     1.0000 0.63169  0.91900  0.76438  Biso   1.000  H
  H234     1.0000 0.62648  0.86357  0.75288  Biso   1.000  H
  C243     1.0000 0.35277  0.99190  0.77705  Biso   1.000  C
  C244     1.0000 0.35277  0.99190  0.77700  Biso   1.000  C
  C245     1.0000 0.42655  0.02643  0.76112  Biso   1.000  C
  N175     1.0000 0.33917  0.97290  0.83547  Biso   1.000  N
  H235     1.0000 0.28709  0.96388  0.89538  Biso   1.000  H
  H236     1.0000 0.27229  0.99531  0.83836  Biso   1.000  H
  N176     1.0000 0.33917  0.97287  0.83547  Biso   1.000  N
  H237     1.0000 0.27229  0.99528  0.83836  Biso   1.000  H
  N177     1.0000 0.52081  0.83263  0.82574  Biso   1.000  N
  N178     1.0000 0.52081  0.83260  0.82574  Biso   1.000  N
  H238     1.0000 0.56520  0.77802  0.82732  Biso   1.000  H
  H239     1.0000 0.53039  0.77982  0.88420  Biso   1.000  H
  H240     1.0000 0.56520  0.77802  0.82728  Biso   1.000  H
  H241     1.0000 0.56520  0.77799  0.82732  Biso   1.000  H
  H242     1.0000 0.53039  0.77978  0.88420  Biso   1.000  H
  H243     1.0000 0.56520  0.77799  0.82728  Biso   1.000  H
  C246     1.0000 0.54512  0.93644  0.75908  Biso   1.000  C
  C247     1.0000 0.54512  0.93644  0.75904  Biso   1.000  C
  C248     1.0000 0.53448  0.85522  0.76908  Biso   1.000  C
  H244     1.0000 0.32501  0.99641  0.74990  Biso   1.000  H
  C249     1.0000 0.38702  0.95476  0.75212  Biso   1.000  C
  C250     1.0000 0.38702  0.95476  0.75207  Biso   1.000  C
  H245     1.0000 0.32501  0.99637  0.74990  Biso   1.000  H
  N179     1.0000 0.43110  0.97992  0.74678  Biso   1.000  N
  N180     1.0000 0.43110  0.97992  0.74673  Biso   1.000  N
  O83      1.0000 0.45784  0.05662  0.75673  Biso   1.000  O
  C251     1.0000 0.35792  0.92893  0.84529  Biso   1.000  C
  C252     1.0000 0.47373  0.83725  0.83750  Biso   1.000  C
  N181     1.0000 0.49900  0.92770  0.74456  Biso   1.000  N
  O84      1.0000 0.56471  0.97527  0.75646  Biso   1.000  O
  C253     1.0000 0.48754  0.87826  0.74741  Biso   1.000  C
  C254     1.0000 0.48754  0.87826  0.74736  Biso   1.000  C
  H246     1.0000 0.54677  0.83189  0.73899  Biso   1.000  H
  H247     1.0000 0.37631  0.94250  0.71202  Biso   1.000  H
  H248     1.0000 0.37631  0.94250  0.71198  Biso   1.000  H
  N182     1.0000 0.38705  0.91797  0.79764  Biso   1.000  N
  C255     1.0000 0.47077  0.96195  0.71171  Biso   1.000  C
  O85      1.0000 0.35002  0.90353  0.88886  Biso   1.000  O
  N183     1.0000 0.45425  0.86544  0.79424  Biso   1.000  N
  O86      1.0000 0.45291  0.81843  0.87986  Biso   1.000  O
  O87      1.0000 0.45291  0.81843  0.87981  Biso   1.000  O
  H249     1.0000 0.47768  0.86590  0.70700  Biso   1.000  H
  C256     1.0000 0.40362  0.87051  0.78651  Biso   1.000  C
  H250     1.0000 0.49121  0.98869  0.69981  Biso   1.000  H
  H251     1.0000 0.45869  0.94711  0.67428  Biso   1.000  H
  H252     1.0000 0.45869  0.94708  0.67428  Biso   1.000  H
  H253     1.0000 0.38741  0.84870  0.81447  Biso   1.000  H
  H254     1.0000 0.39509  0.86128  0.74469  Biso   1.000  H
  C257     1.0000 0.45069  0.30038  0.60727  Biso   1.000  C
  N184     1.0000 0.41736  0.27081  0.57573  Biso   1.000  N
  N185     1.0000 0.42860  0.33709  0.64315  Biso   1.000  N
  H255     1.0000 0.47201  0.31521  0.57731  Biso   1.000  H
  H256     1.0000 0.47021  0.28040  0.63419  Biso   1.000  H
  C258     1.0000 0.39477  0.28449  0.51907  Biso   1.000  C
  C259     1.0000 0.41274  0.22374  0.58749  Biso   1.000  C
  C260     1.0000 0.41559  0.38230  0.61727  Biso   1.000  C
  C261     1.0000 0.43519  0.34026  0.70460  Biso   1.000  C
  C262     1.0000 0.37173  0.23755  0.49740  Biso   1.000  C
  N186     1.0000 0.35492  0.31570  0.52600  Biso   1.000  N
  H257     1.0000 0.41810  0.29678  0.48898  Biso   1.000  H
  N187     1.0000 0.38455  0.20422  0.54423  Biso   1.000  N
  O88      1.0000 0.43156  0.20288  0.62985  Biso   1.000  O
  N188     1.0000 0.36947  0.38364  0.59039  Biso   1.000  N
  H258     1.0000 0.44029  0.39421  0.58880  Biso   1.000  H
  C263     1.0000 0.41049  0.41468  0.67365  Biso   1.000  C
  O89      1.0000 0.45065  0.30848  0.73714  Biso   1.000  O
  N189     1.0000 0.42187  0.38378  0.72343  Biso   1.000  N
  N190     1.0000 0.32229  0.24897  0.49459  Biso   1.000  N
  H259     1.0000 0.38409  0.22769  0.45699  Biso   1.000  H
  C264     1.0000 0.31355  0.29513  0.50907  Biso   1.000  C
  C265     1.0000 0.36017  0.36665  0.52962  Biso   1.000  C
  C266     1.0000 0.37948  0.15362  0.53649  Biso   1.000  C
  C267     1.0000 0.33945  0.41338  0.61998  Biso   1.000  C
  N191     1.0000 0.36172  0.42972  0.67089  Biso   1.000  N
  H260     1.0000 0.43258  0.44209  0.67170  Biso   1.000  H
  C268     1.0000 0.43170  0.40129  0.78438  Biso   1.000  C
  C269     1.0000 0.28804  0.22078  0.46170  Biso   1.000  C
  O90      1.0000 0.27473  0.31472  0.50645  Biso   1.000  O
  H261     1.0000 0.38639  0.37648  0.50287  Biso   1.000  H
  H262     1.0000 0.33100  0.38170  0.51441  Biso   1.000  H
  N192     1.0000 0.33198  0.13706  0.54763  Biso   1.000  N
  H263     1.0000 0.40129  0.13738  0.56451  Biso   1.000  H
  H264     1.0000 0.38871  0.14510  0.49468  Biso   1.000  H
  O91      1.0000 0.29971  0.42486  0.60283  Biso   1.000  O
  C270     1.0000 0.34231  0.46725  0.70791  Biso   1.000  C
  N193     1.0000 0.38956  0.40760  0.82063  Biso   1.000  N
  H265     1.0000 0.45291  0.37888  0.80519  Biso   1.000  H
  H266     1.0000 0.44840  0.43191  0.78130  Biso   1.000  H
  N194     1.0000 0.27008  0.18107  0.49676  Biso   1.000  N
  H267     1.0000 0.26130  0.24118  0.44979  Biso   1.000  H
  H268     1.0000 0.30288  0.20870  0.42427  Biso   1.000  H
  C271     1.0000 0.29523  0.13703  0.50210  Biso   1.000  C
  C272     1.0000 0.32102  0.10792  0.59528  Biso   1.000  C
  N195     1.0000 0.32916  0.45210  0.76782  Biso   1.000  N
  H269     1.0000 0.36588  0.49279  0.71130  Biso   1.000  H
  H270     1.0000 0.31419  0.48039  0.68741  Biso   1.000  H
  C273     1.0000 0.36140  0.45041  0.81850  Biso   1.000  C
  C274     1.0000 0.37913  0.38032  0.87008  Biso   1.000  C
  C275     1.0000 0.22357  0.17656  0.51111  Biso   1.000  C
  C276     1.0000 0.25810  0.10278  0.52704  Biso   1.000  C
  H271     1.0000 0.30749  0.12628  0.46201  Biso   1.000  H
  N196     1.0000 0.27709  0.08918  0.58546  Biso   1.000  N
  O92      1.0000 0.34643  0.10003  0.63890  Biso   1.000  O
  C277     1.0000 0.28297  0.44984  0.78578  Biso   1.000  C
  H272     1.0000 0.38128  0.47941  0.82117  Biso   1.000  H
  C278     1.0000 0.32846  0.44502  0.87402  Biso   1.000  C
  O93      1.0000 0.39970  0.34389  0.88434  Biso   1.000  O
  N197     1.0000 0.34273  0.40062  0.90076  Biso   1.000  N
  O94      1.0000 0.19337  0.20785  0.50672  Biso   1.000  O
  N198     1.0000 0.21613  0.13171  0.53034  Biso   1.000  N
  H273     1.0000 0.25359  0.07501  0.49989  Biso   1.000  H
  C279     1.0000 0.26084  0.04788  0.61781  Biso   1.000  C
  O95      1.0000 0.24837  0.45270  0.75230  Biso   1.000  O
  N199     1.0000 0.28156  0.44378  0.84723  Biso   1.000  N
  H274     1.0000 0.33198  0.47179  0.90307  Biso   1.000  H
  C280     1.0000 0.33135  0.38808  0.96280  Biso   1.000  C
  C281     1.0000 0.16863  0.11191  0.53717  Biso   1.000  C
  N200     1.0000 0.21842  0.05620  0.65274  Biso   1.000  N
  H275     1.0000 0.25471  0.02230  0.58840  Biso   1.000  H
  H276     1.0000 0.28611  0.03710  0.64537  Biso   1.000  H
  C282     1.0000 0.23914  0.45210  0.88217  Biso   1.000  C
  N201     1.0000 0.28389  0.36831  0.96964  Biso   1.000  N
  H277     1.0000 0.33410  0.41648  0.98846  Biso   1.000  H
  H278     1.0000 0.35471  0.36479  0.97737  Biso   1.000  H
  N202     1.0000 0.15725  0.09936  0.59921  Biso   1.000  N
  H279     1.0000 0.16589  0.08351  0.51147  Biso   1.000  H
  H280     1.0000 0.14531  0.13520  0.52260  Biso   1.000  H
  C283     1.0000 0.17152  0.05497  0.62596  Biso   1.000  C
  C284     1.0000 0.21701  0.05014  0.71420  Biso   1.000  C
  N203     1.0000 0.22290  0.41080  0.91452  Biso   1.000  N
  H281     1.0000 0.24530  0.47768  0.91158  Biso   1.000  H
  H282     1.0000 0.21391  0.46288  0.85456  Biso   1.000  H
  C285     1.0000 0.24189  0.39720  0.97294  Biso   1.000  C
  C286     1.0000 0.27645  0.32342  0.98887  Biso   1.000  C
  C287     1.0000 0.12086  0.11969  0.62989  Biso   1.000  C
  C288     1.0000 0.13858  0.04961  0.68148  Biso   1.000  C
  H283     1.0000 0.16800  0.02819  0.59690  Biso   1.000  H
  N204     1.0000 0.17082  0.04792  0.73216  Biso   1.000  N
  O96      1.0000 0.25161  0.04732  0.74768  Biso   1.000  O
  C289     1.0000 0.17896  0.39206  0.90470  Biso   1.000  C
  C290     1.0000 0.20475  0.36299  0.99787  Biso   1.000  C
  H284     1.0000 0.24640  0.42500  0.00009  Biso   1.000  H
  O97      1.0000 0.30665  0.29213  0.99326  Biso   1.000  O
  N205     1.0000 0.22994  0.31891  0.00321  Biso   1.000  N
  O98      1.0000 0.10028  0.15609  0.61564  Biso   1.000  O
  N206     1.0000 0.11043  0.09239  0.67935  Biso   1.000  N
  H285     1.0000 0.11871  0.02061  0.67881  Biso   1.000  H
  C291     1.0000 0.15768  0.03277  0.79207  Biso   1.000  C
  O99      1.0000 0.15355  0.39995  0.86108  Biso   1.000  O
  N207     1.0000 0.16800  0.36292  0.95235  Biso   1.000  N
  H286     1.0000 0.19249  0.37370  0.03797  Biso   1.000  H
  C292     1.0000 0.21197  0.27920  0.03828  Biso   1.000  C
  C293     1.0000 0.06829  0.09869  0.71560  Biso   1.000  C
  N208     1.0000 0.13830  0.07029  0.82909  Biso   1.000  N
  H287     1.0000 0.13410  0.00719  0.78868  Biso   1.000  H
  H288     1.0000 0.18579  0.01959  0.81257  Biso   1.000  H
  C294     1.0000 0.12050  0.34636  0.96348  Biso   1.000  C
  N209     1.0000 0.17769  0.25101  0.00538  Biso   1.000  N
  H289     1.0000 0.23868  0.25880  0.05018  Biso   1.000  H
  H290     1.0000 0.19710  0.29129  0.07566  Biso   1.000  H
  N210     1.0000 0.07812  0.11624  0.77655  Biso   1.000  N
  H291     1.0000 0.04711  0.12110  0.69478  Biso   1.000  H
  H292     1.0000 0.05158  0.06811  0.71868  Biso   1.000  H
  C295     1.0000 0.08950  0.08534  0.82633  Biso   1.000  C
  C296     1.0000 0.16053  0.08661  0.87999  Biso   1.000  C
  N211     1.0000 0.11543  0.29576  0.95574  Biso   1.000  N
  H293     1.0000 0.09869  0.36260  0.93547  Biso   1.000  H
  H294     1.0000 0.11131  0.35489  0.00529  Biso   1.000  H
  C297     1.0000 0.12825  0.26243  0.00258  Biso   1.000  C
  C298     1.0000 0.18646  0.20489  0.99090  Biso   1.000  C
  C299     1.0000 0.06483  0.15975  0.79538  Biso   1.000  C
  C300     1.0000 0.08439  0.11768  0.88266  Biso   1.000  C
  H295     1.0000 0.06740  0.05789  0.82827  Biso   1.000  H
  N212     1.0000 0.13055  0.11638  0.90959  Biso   1.000  N
  O100     1.0000 0.20027  0.07512  0.89714  Biso   1.000  O
  C301     1.0000 0.08724  0.27624  0.91248  Biso   1.000  C
  C302     1.0000 0.10521  0.21553  0.98090  Biso   1.000  C
  H296     1.0000 0.11589  0.27229  0.04299  Biso   1.000  H
  N213     1.0000 0.14506  0.18428  0.97398  Biso   1.000  N
  O101     1.0000 0.22526  0.18526  0.99348  Biso   1.000  O
  O102     1.0000 0.04933  0.19150  0.76284  Biso   1.000  O
  N214     1.0000 0.07139  0.16289  0.85683  Biso   1.000  N
  H297     1.0000 0.05969  0.10581  0.91117  Biso   1.000  H
  C303     1.0000 0.13981  0.13333  0.97036  Biso   1.000  C
  N215     1.0000 0.08263  0.22920  0.92425  Biso   1.000  N
  O103     1.0000 0.06843  0.29710  0.87013  Biso   1.000  O
  H298     1.0000 0.08189  0.20320  0.01100  Biso   1.000  H
  C304     1.0000 0.04929  0.19964  0.89266  Biso   1.000  C
  H299     1.0000 0.11360  0.12350  0.99710  Biso   1.000  H
  H300     1.0000 0.16899  0.11828  0.98556  Biso   1.000  H
  H301     1.0000 0.02801  0.18481  0.92267  Biso   1.000  H
  H302     1.0000 0.02981  0.21958  0.86579  Biso   1.000  H
  C305     1.0000 0.65769  0.53275  0.29209  Biso   1.000  C
  N216     1.0000 0.67080  0.54790  0.23218  Biso   1.000  N
  N217     1.0000 0.63828  0.57028  0.32906  Biso   1.000  N
  H303     1.0000 0.63409  0.50721  0.28870  Biso   1.000  H
  H304     1.0000 0.68578  0.51961  0.31259  Biso   1.000  H
  C306     1.0000 0.63860  0.54959  0.18146  Biso   1.000  C
  C307     1.0000 0.71703  0.55012  0.21422  Biso   1.000  C
  C308     1.0000 0.58948  0.58532  0.32630  Biso   1.000  C
  C309     1.0000 0.66055  0.58662  0.37997  Biso   1.000  C
  N218     1.0000 0.61041  0.59237  0.17933  Biso   1.000  N
  H305     1.0000 0.61869  0.52059  0.17879  Biso   1.000  H
  C310     1.0000 0.67154  0.55495  0.12598  Biso   1.000  C
  N219     1.0000 0.71840  0.55622  0.15277  Biso   1.000  N
  O104     1.0000 0.75163  0.54730  0.24766  Biso   1.000  O
  N220     1.0000 0.57813  0.61622  0.27653  Biso   1.000  N
  C311     1.0000 0.58441  0.61770  0.38269  Biso   1.000  C
  H306     1.0000 0.56739  0.55787  0.32830  Biso   1.000  H
  N221     1.0000 0.63053  0.61636  0.40961  Biso   1.000  N
  O105     1.0000 0.70026  0.57510  0.39712  Biso   1.000  O
  C312     1.0000 0.56827  0.59868  0.21558  Biso   1.000  C
  C313     1.0000 0.62084  0.61968  0.12992  Biso   1.000  C
  N222     1.0000 0.65727  0.59938  0.09919  Biso   1.000  N
  H307     1.0000 0.66798  0.52821  0.09688  Biso   1.000  H
  C314     1.0000 0.76083  0.54787  0.11779  Biso   1.000  C
  C315     1.0000 0.56481  0.65974  0.29540  Biso   1.000  C
  N223     1.0000 0.57137  0.66291  0.35685  Biso   1.000  N
  H308     1.0000 0.55971  0.60579  0.41120  Biso   1.000  H
  C316     1.0000 0.63979  0.63335  0.47038  Biso   1.000  C
  H309     1.0000 0.54709  0.62108  0.19481  Biso   1.000  H
  H310     1.0000 0.55160  0.56809  0.21870  Biso   1.000  H
  O106     1.0000 0.60030  0.65607  0.11562  Biso   1.000  O
  C317     1.0000 0.66862  0.61192  0.03720  Biso   1.000  C
  N224     1.0000 0.77707  0.58916  0.08548  Biso   1.000  N
  H311     1.0000 0.75470  0.52229  0.08842  Biso   1.000  H
  H312     1.0000 0.78609  0.53708  0.14539  Biso   1.000  H
  O107     1.0000 0.54935  0.69148  0.26286  Biso   1.000  O
  C318     1.0000 0.54928  0.69962  0.39269  Biso   1.000  C
  N225     1.0000 0.64504  0.68426  0.47400  Biso   1.000  N
  H313     1.0000 0.61358  0.62348  0.49708  Biso   1.000  H
  H314     1.0000 0.66900  0.61830  0.48559  Biso   1.000  H
  N226     1.0000 0.71611  0.63169  0.03036  Biso   1.000  N
  H315     1.0000 0.66590  0.58349  0.01149  Biso   1.000  H
  H316     1.0000 0.64529  0.63518  0.02258  Biso   1.000  H
  C319     1.0000 0.75808  0.60276  0.02706  Biso   1.000  C
  C320     1.0000 0.82104  0.60791  0.09530  Biso   1.000  C
  N227     1.0000 0.58261  0.72919  0.42427  Biso   1.000  N
  H317     1.0000 0.52799  0.68479  0.42269  Biso   1.000  H
  H318     1.0000 0.52979  0.71960  0.36581  Biso   1.000  H
  C321     1.0000 0.60519  0.71551  0.48088  Biso   1.000  C
  C322     1.0000 0.68645  0.70487  0.49093  Biso   1.000  C
  C323     1.0000 0.72355  0.67654  0.01113  Biso   1.000  C
  C324     1.0000 0.79522  0.63701  0.00208  Biso   1.000  C
  H319     1.0000 0.75360  0.57500  0.99991  Biso   1.000  H
  N228     1.0000 0.83200  0.63705  0.04765  Biso   1.000  N
  O108     1.0000 0.84641  0.60001  0.13888  Biso   1.000  O
  C325     1.0000 0.58726  0.77626  0.41251  Biso   1.000  C
  C326     1.0000 0.62827  0.76241  0.50260  Biso   1.000  C
  H320     1.0000 0.58190  0.70318  0.51097  Biso   1.000  H
  N229     1.0000 0.67771  0.75100  0.50541  Biso   1.000  N
  O109     1.0000 0.72527  0.68528  0.49351  Biso   1.000  O
  O110     1.0000 0.69335  0.70783  0.00674  Biso   1.000  O
  N230     1.0000 0.77006  0.68109  0.99674  Biso   1.000  N
  H321     1.0000 0.80748  0.62630  0.96199  Biso   1.000  H
  C327     1.0000 0.87946  0.65361  0.03652  Biso   1.000  C
  O111     1.0000 0.56844  0.79708  0.37015  Biso   1.000  O
  N231     1.0000 0.61541  0.79574  0.45577  Biso   1.000  N
  H322     1.0000 0.61591  0.77228  0.54301  Biso   1.000  H
  C328     1.0000 0.71196  0.77922  0.53830  Biso   1.000  C
  C329     1.0000 0.78803  0.72076  0.96172  Biso   1.000  C
  N232     1.0000 0.88454  0.70424  0.04426  Biso   1.000  N
  H323     1.0000 0.90127  0.63740  0.06448  Biso   1.000  H
  H324     1.0000 0.88869  0.64508  0.99471  Biso   1.000  H
  C330     1.0000 0.62049  0.84634  0.46351  Biso   1.000  C
  N233     1.0000 0.72992  0.81889  0.50324  Biso   1.000  N
  H325     1.0000 0.73870  0.75878  0.55021  Biso   1.000  H
  H326     1.0000 0.69709  0.79127  0.57568  Biso   1.000  H
  N234     1.0000 0.82228  0.74899  0.99457  Biso   1.000  N
  H327     1.0000 0.76128  0.74120  0.94982  Biso   1.000  H
  H328     1.0000 0.80290  0.70868  0.92430  Biso   1.000  H
  C331     1.0000 0.87171  0.73754  0.99738  Biso   1.000  C
  C332     1.0000 0.91272  0.72372  0.08752  Biso   1.000  C
  N235     1.0000 0.66798  0.86290  0.45237  Biso   1.000  N
  H329     1.0000 0.59868  0.86258  0.43549  Biso   1.000  H
  H330     1.0000 0.61129  0.85487  0.50527  Biso   1.000  H
  C333     1.0000 0.70477  0.86297  0.49790  Biso   1.000  C
  C334     1.0000 0.77643  0.82340  0.48885  Biso   1.000  C
  C335     1.0000 0.81354  0.79511  0.00905  Biso   1.000  C
  C336     1.0000 0.89475  0.78447  0.01910  Biso   1.000  C
  H331     1.0000 0.88408  0.72767  0.95701  Biso   1.000  H
  N236     1.0000 0.91734  0.77080  0.07575  Biso   1.000  N
  O112     1.0000 0.93154  0.70290  0.12982  Biso   1.000  O
  C337     1.0000 0.67894  0.89204  0.40468  Biso   1.000  C
  C338     1.0000 0.74187  0.89718  0.47296  Biso   1.000  C
  H332     1.0000 0.69247  0.87368  0.53799  Biso   1.000  H
  N237     1.0000 0.78387  0.86829  0.46961  Biso   1.000  N
  O113     1.0000 0.80663  0.79215  0.49323  Biso   1.000  O
  N238     1.0000 0.85490  0.81569  0.02602  Biso   1.000  N
  O114     1.0000 0.77471  0.81470  0.00647  Biso   1.000  O
  H333     1.0000 0.91808  0.79680  0.98900  Biso   1.000  H
  C339     1.0000 0.95067  0.80036  0.10729  Biso   1.000  C
  O115     1.0000 0.65354  0.89997  0.36110  Biso   1.000  O
  N239     1.0000 0.72288  0.91082  0.41450  Biso   1.000  N
  H334     1.0000 0.74638  0.92499  0.50011  Biso   1.000  H
  C340     1.0000 0.83137  0.88806  0.46278  Biso   1.000  C
  C341     1.0000 0.86015  0.86664  0.02964  Biso   1.000  C
  N240     1.0000 0.92858  0.83707  0.14317  Biso   1.000  N
  H335     1.0000 0.97199  0.81519  0.07729  Biso   1.000  H
  H336     1.0000 0.97019  0.78038  0.13421  Biso   1.000  H
  C342     1.0000 0.73916  0.95212  0.38219  Biso   1.000  C
  N241     1.0000 0.84271  0.90060  0.40079  Biso   1.000  N
  H337     1.0000 0.83408  0.91649  0.48848  Biso   1.000  H
  H338     1.0000 0.85469  0.86477  0.47740  Biso   1.000  H
  N242     1.0000 0.86945  0.88362  0.09037  Biso   1.000  N
  H339     1.0000 0.88637  0.87650  0.00290  Biso   1.000  H
  H340     1.0000 0.83098  0.88168  0.01439  Biso   1.000  H
  C343     1.0000 0.91558  0.88228  0.11729  Biso   1.000  C
  C344     1.0000 0.93517  0.84025  0.20458  Biso   1.000  C
  N243     1.0000 0.78158  0.94377  0.34726  Biso   1.000  N
  H341     1.0000 0.74529  0.97770  0.41160  Biso   1.000  H
  H342     1.0000 0.71389  0.96290  0.35459  Biso   1.000  H
  C345     1.0000 0.82844  0.94500  0.37404  Biso   1.000  C
  C346     1.0000 0.87911  0.88031  0.37011  Biso   1.000  C
  C347     1.0000 0.83943  0.91336  0.12001  Biso   1.000  C
  H343     1.0000 0.94028  0.89419  0.08878  Biso   1.000  H
  C348     1.0000 0.91047  0.91466  0.17367  Biso   1.000  C
  N244     1.0000 0.92185  0.88376  0.22345  Biso   1.000  N
  O116     1.0000 0.95064  0.80846  0.23716  Biso   1.000  O
  C349     1.0000 0.78295  0.94986  0.28580  Biso   1.000  C
  C350     1.0000 0.86139  0.95039  0.31852  Biso   1.000  C
  H344     1.0000 0.83200  0.97178  0.40310  Biso   1.000  H
  O117     1.0000 0.89969  0.84387  0.38436  Biso   1.000  O
  N245     1.0000 0.88957  0.90758  0.32065  Biso   1.000  N
  O118     1.0000 0.79969  0.92488  0.10286  Biso   1.000  O
  N246     1.0000 0.86170  0.92971  0.17091  Biso   1.000  N
  H345     1.0000 0.93260  0.94207  0.17168  Biso   1.000  H
  C351     1.0000 0.93168  0.90127  0.28440  Biso   1.000  C
  O119     1.0000 0.74835  0.95268  0.25232  Biso   1.000  O
  N247     1.0000 0.82918  0.95208  0.26779  Biso   1.000  N
  H346     1.0000 0.88129  0.97939  0.32119  Biso   1.000  H
  C352     1.0000 0.84229  0.96723  0.20793  Biso   1.000  C
  H347     1.0000 0.95289  0.87890  0.30517  Biso   1.000  H
  H348     1.0000 0.94838  0.93189  0.28128  Biso   1.000  H
  H349     1.0000 0.86590  0.99278  0.21128  Biso   1.000  H
  H350     1.0000 0.81417  0.98037  0.18738  Biso   1.000  H
  C353     1.0000 0.63807  0.41863  0.78718  Biso   1.000  C
  N248     1.0000 0.61830  0.46612  0.78035  Biso   1.000  N
  H351     1.0000 0.66650  0.41588  0.76148  Biso   1.000  H
  N249     1.0000 0.65061  0.40728  0.84922  Biso   1.000  N
  H352     1.0000 0.61478  0.39530  0.77261  Biso   1.000  H
  N250     1.0000 0.65061  0.40728  0.84918  Biso   1.000  N
  H353     1.0000 0.61478  0.39530  0.77257  Biso   1.000  H
  C354     1.0000 0.57341  0.47356  0.76112  Biso   1.000  C
  C355     1.0000 0.64719  0.50809  0.77705  Biso   1.000  C
  C356     1.0000 0.64719  0.50809  0.77700  Biso   1.000  C
  C357     1.0000 0.63032  0.37085  0.87990  Biso   1.000  C
  C358     1.0000 0.69501  0.42155  0.87597  Biso   1.000  C
  C359     1.0000 0.69501  0.42155  0.87592  Biso   1.000  C
  O120     1.0000 0.54212  0.44336  0.75673  Biso   1.000  O
  N251     1.0000 0.56890  0.52007  0.74678  Biso   1.000  N
  N252     1.0000 0.56890  0.52007  0.74673  Biso   1.000  N
  C360     1.0000 0.61298  0.54522  0.75207  Biso   1.000  C
  N253     1.0000 0.66079  0.52708  0.83547  Biso   1.000  N
  H354     1.0000 0.67499  0.50358  0.74990  Biso   1.000  H
  N254     1.0000 0.65759  0.36042  0.92936  Biso   1.000  N
  O121     1.0000 0.59388  0.35027  0.86560  Biso   1.000  O
  N255     1.0000 0.65759  0.36042  0.92932  Biso   1.000  N
  N256     1.0000 0.69377  0.46841  0.90276  Biso   1.000  N
  C361     1.0000 0.70040  0.38857  0.93149  Biso   1.000  C
  H355     1.0000 0.72179  0.41799  0.84692  Biso   1.000  H
  C362     1.0000 0.70040  0.38857  0.93144  Biso   1.000  C
  H356     1.0000 0.72179  0.41799  0.84687  Biso   1.000  H
  C363     1.0000 0.52923  0.53804  0.71171  Biso   1.000  C
  N257     1.0000 0.61291  0.58197  0.79764  Biso   1.000  N
  H357     1.0000 0.62369  0.55749  0.71198  Biso   1.000  H
  C364     1.0000 0.64205  0.57102  0.84529  Biso   1.000  C
  C365     1.0000 0.70212  0.51083  0.86782  Biso   1.000  C
  C366     1.0000 0.70212  0.51083  0.86778  Biso   1.000  C
  C367     1.0000 0.65128  0.31828  0.96556  Biso   1.000  C
  C368     1.0000 0.69983  0.46704  0.96421  Biso   1.000  C
  C369     1.0000 0.69983  0.46704  0.96416  Biso   1.000  C
  N258     1.0000 0.70209  0.42081  0.98217  Biso   1.000  N
  H358     1.0000 0.72940  0.36870  0.92882  Biso   1.000  H
  H359     1.0000 0.72940  0.36870  0.92878  Biso   1.000  H
  H360     1.0000 0.50879  0.51129  0.69981  Biso   1.000  H
  H361     1.0000 0.54128  0.55291  0.67428  Biso   1.000  H
  N259     1.0000 0.50100  0.57228  0.74456  Biso   1.000  N
  C370     1.0000 0.59635  0.62947  0.78651  Biso   1.000  C
  O122     1.0000 0.64994  0.59642  0.88886  Biso   1.000  O
  H362     1.0000 0.71287  0.53610  0.89538  Biso   1.000  H
  H363     1.0000 0.72767  0.50470  0.83836  Biso   1.000  H
  H364     1.0000 0.62887  0.29710  0.94479  Biso   1.000  H
  H365     1.0000 0.68190  0.30161  0.96869  Biso   1.000  H
  N260     1.0000 0.63377  0.32811  0.02656  Biso   1.000  N
  N261     1.0000 0.63377  0.32811  0.02652  Biso   1.000  N
  O123     1.0000 0.70269  0.50164  0.99765  Biso   1.000  O
  C371     1.0000 0.71724  0.40767  0.04208  Biso   1.000  C
  C372     1.0000 0.51242  0.62172  0.74741  Biso   1.000  C
  C373     1.0000 0.51242  0.62172  0.74736  Biso   1.000  C
  C374     1.0000 0.45488  0.56355  0.75904  Biso   1.000  C
  N262     1.0000 0.54575  0.63454  0.79424  Biso   1.000  N
  H366     1.0000 0.60488  0.63870  0.74469  Biso   1.000  H
  H367     1.0000 0.61259  0.65128  0.81452  Biso   1.000  H
  H368     1.0000 0.61259  0.65128  0.81447  Biso   1.000  H
  C375     1.0000 0.59025  0.31482  0.04539  Biso   1.000  C
  C376     1.0000 0.66467  0.33949  0.07634  Biso   1.000  C
  C377     1.0000 0.66467  0.33949  0.07629  Biso   1.000  C
  N263     1.0000 0.67972  0.38829  0.07910  Biso   1.000  N
  H369     1.0000 0.74279  0.38409  0.03869  Biso   1.000  H
  H370     1.0000 0.73038  0.43578  0.06258  Biso   1.000  H
  N264     1.0000 0.67972  0.38829  0.07905  Biso   1.000  N
  H371     1.0000 0.52229  0.63409  0.70700  Biso   1.000  H
  C378     1.0000 0.46552  0.64476  0.76908  Biso   1.000  C
  N265     1.0000 0.43427  0.60491  0.77601  Biso   1.000  N
  O124     1.0000 0.43526  0.52472  0.75650  Biso   1.000  O
  O125     1.0000 0.43526  0.52472  0.75646  Biso   1.000  O
  C379     1.0000 0.52627  0.66273  0.83750  Biso   1.000  C
  O126     1.0000 0.55847  0.29932  0.01285  Biso   1.000  O
  N266     1.0000 0.58708  0.32138  0.10684  Biso   1.000  N
  C380     1.0000 0.63229  0.33438  0.13268  Biso   1.000  C
  H372     1.0000 0.69208  0.31740  0.07828  Biso   1.000  H
  C381     1.0000 0.66337  0.41056  0.13001  Biso   1.000  C
  C382     1.0000 0.66337  0.41056  0.12996  Biso   1.000  C
  N267     1.0000 0.47919  0.66735  0.82574  Biso   1.000  N
  H373     1.0000 0.45319  0.66809  0.73899  Biso   1.000  H
  C383     1.0000 0.38332  0.61016  0.77963  Biso   1.000  C
  O127     1.0000 0.54709  0.68155  0.87981  Biso   1.000  O
  C384     1.0000 0.55037  0.29928  0.14268  Biso   1.000  C
  N268     1.0000 0.63363  0.38054  0.15960  Biso   1.000  N
  H374     1.0000 0.64420  0.30968  0.16118  Biso   1.000  H
  O128     1.0000 0.67485  0.45027  0.14711  Biso   1.000  O
  C385     1.0000 0.44963  0.70068  0.85732  Biso   1.000  C
  C386     1.0000 0.44963  0.70068  0.85728  Biso   1.000  C
  H375     1.0000 0.37349  0.63638  0.75288  Biso   1.000  H
  H376     1.0000 0.36831  0.58099  0.76442  Biso   1.000  H
  N269     1.0000 0.36637  0.61946  0.84035  Biso   1.000  N
  H377     1.0000 0.36831  0.58099  0.76438  Biso   1.000  H
  N270     1.0000 0.52081  0.33262  0.17426  Biso   1.000  N
  H378     1.0000 0.56520  0.27800  0.17268  Biso   1.000  H
  H379     1.0000 0.53039  0.27980  0.11580  Biso   1.000  H
  C387     1.0000 0.61664  0.38980  0.22037  Biso   1.000  C
  C388     1.0000 0.61664  0.38980  0.22033  Biso   1.000  C
  N271     1.0000 0.41292  0.67859  0.89316  Biso   1.000  N
  H380     1.0000 0.46957  0.72020  0.88420  Biso   1.000  H
  H381     1.0000 0.43480  0.72200  0.82732  Biso   1.000  H
  H382     1.0000 0.43480  0.72200  0.82728  Biso   1.000  H
  C389     1.0000 0.33660  0.58944  0.86999  Biso   1.000  C
  C390     1.0000 0.36771  0.66559  0.86732  Biso   1.000  C
  C391     1.0000 0.36771  0.66559  0.86728  Biso   1.000  C
  C392     1.0000 0.47373  0.33727  0.16250  Biso   1.000  C
  C393     1.0000 0.53448  0.35520  0.23092  Biso   1.000  C
  C394     1.0000 0.53448  0.35520  0.23087  Biso   1.000  C
  N272     1.0000 0.56570  0.39505  0.22399  Biso   1.000  N
  H383     1.0000 0.63169  0.41898  0.23558  Biso   1.000  H
  N273     1.0000 0.56570  0.39505  0.22395  Biso   1.000  N
  H384     1.0000 0.62648  0.36359  0.24707  Biso   1.000  H
  C395     1.0000 0.40975  0.68518  0.95461  Biso   1.000  C
  C396     1.0000 0.40975  0.68518  0.95457  Biso   1.000  C
  O129     1.0000 0.32511  0.54970  0.85284  Biso   1.000  O
  N274     1.0000 0.32028  0.61171  0.92090  Biso   1.000  N
  C397     1.0000 0.33533  0.66048  0.92366  Biso   1.000  C
  H385     1.0000 0.35580  0.69029  0.83877  Biso   1.000  H
  O130     1.0000 0.45291  0.31842  0.12014  Biso   1.000  O
  N275     1.0000 0.45425  0.36542  0.20576  Biso   1.000  N
  C398     1.0000 0.48754  0.37825  0.25259  Biso   1.000  C
  H386     1.0000 0.54677  0.33188  0.26101  Biso   1.000  H
  H387     1.0000 0.54677  0.33188  0.26096  Biso   1.000  H
  C399     1.0000 0.54512  0.43645  0.24092  Biso   1.000  C
  O131     1.0000 0.44149  0.70064  0.98715  Biso   1.000  O
  N276     1.0000 0.36623  0.67186  0.97344  Biso   1.000  N
  C400     1.0000 0.28276  0.59230  0.95792  Biso   1.000  C
  H388     1.0000 0.30788  0.68260  0.92172  Biso   1.000  H
  H389     1.0000 0.30788  0.68260  0.92167  Biso   1.000  H
  C401     1.0000 0.40362  0.37049  0.21349  Biso   1.000  C
  N277     1.0000 0.49900  0.42772  0.25540  Biso   1.000  N
  H390     1.0000 0.47768  0.36588  0.29300  Biso   1.000  H
  H391     1.0000 0.47768  0.36588  0.29295  Biso   1.000  H
  O132     1.0000 0.56471  0.47525  0.24350  Biso   1.000  O
  C402     1.0000 0.34868  0.68169  0.03439  Biso   1.000  C
  H392     1.0000 0.25718  0.61591  0.96131  Biso   1.000  H
  H393     1.0000 0.26958  0.56418  0.93742  Biso   1.000  H
  H394     1.0000 0.25718  0.61591  0.96127  Biso   1.000  H
  H395     1.0000 0.26958  0.56418  0.93737  Biso   1.000  H
  N278     1.0000 0.29791  0.57916  0.01778  Biso   1.000  N
  N279     1.0000 0.38705  0.41799  0.20236  Biso   1.000  N
  H396     1.0000 0.38741  0.34868  0.18548  Biso   1.000  H
  H397     1.0000 0.39509  0.36130  0.25531  Biso   1.000  H
  N280     1.0000 0.38705  0.41799  0.20232  Biso   1.000  N
  H398     1.0000 0.39509  0.36130  0.25526  Biso   1.000  H
  C403     1.0000 0.47077  0.46196  0.28829  Biso   1.000  C
  N281     1.0000 0.34238  0.63958  0.07064  Biso   1.000  N
  H399     1.0000 0.31810  0.69839  0.03131  Biso   1.000  H
  H400     1.0000 0.37109  0.70290  0.05516  Biso   1.000  H
  H401     1.0000 0.31810  0.69839  0.03127  Biso   1.000  H
  C404     1.0000 0.29960  0.61139  0.06851  Biso   1.000  C
  C405     1.0000 0.30013  0.53296  0.03579  Biso   1.000  C
  C406     1.0000 0.38702  0.45478  0.24788  Biso   1.000  C
  C407     1.0000 0.35792  0.42895  0.15471  Biso   1.000  C
  C408     1.0000 0.35792  0.42895  0.15467  Biso   1.000  C
  N282     1.0000 0.43110  0.47993  0.25322  Biso   1.000  N
  H402     1.0000 0.49121  0.48871  0.30019  Biso   1.000  H
  H403     1.0000 0.45869  0.44709  0.32572  Biso   1.000  H
  H404     1.0000 0.45869  0.44709  0.32567  Biso   1.000  H
  C409     1.0000 0.36968  0.62912  0.12010  Biso   1.000  C
  H405     1.0000 0.27060  0.63130  0.07118  Biso   1.000  H
  C410     1.0000 0.30496  0.57845  0.12403  Biso   1.000  C
  O133     1.0000 0.29731  0.49836  0.00231  Biso   1.000  O
  N283     1.0000 0.30619  0.53159  0.09724  Biso   1.000  N
  N284     1.0000 0.30619  0.53159  0.09720  Biso   1.000  N
  C411     1.0000 0.35277  0.49188  0.22295  Biso   1.000  C
  H406     1.0000 0.37631  0.44248  0.28798  Biso   1.000  H
  N285     1.0000 0.33917  0.47289  0.16449  Biso   1.000  N
  O134     1.0000 0.35002  0.40354  0.11109  Biso   1.000  O
  C412     1.0000 0.42655  0.52644  0.23888  Biso   1.000  C
  C413     1.0000 0.42655  0.52644  0.23883  Biso   1.000  C
  O135     1.0000 0.40608  0.64970  0.13435  Biso   1.000  O
  N286     1.0000 0.34939  0.59272  0.15078  Biso   1.000  N
  H407     1.0000 0.27818  0.58197  0.15308  Biso   1.000  H
  C414     1.0000 0.29788  0.48917  0.13218  Biso   1.000  C
  N287     1.0000 0.38170  0.53388  0.21960  Biso   1.000  N
  H408     1.0000 0.32501  0.49639  0.25010  Biso   1.000  H
  H409     1.0000 0.32501  0.49639  0.25006  Biso   1.000  H
  O136     1.0000 0.45784  0.55664  0.24327  Biso   1.000  O
  O137     1.0000 0.45784  0.55664  0.24322  Biso   1.000  O
  C415     1.0000 0.36190  0.58137  0.21282  Biso   1.000  C
  C416     1.0000 0.36190  0.58137  0.21277  Biso   1.000  C
  H410     1.0000 0.27229  0.49530  0.16159  Biso   1.000  H
  H411     1.0000 0.28709  0.46390  0.10462  Biso   1.000  H
  H412     1.0000 0.28709  0.46390  0.10457  Biso   1.000  H
  H413     1.0000 0.33350  0.58409  0.23852  Biso   1.000  H
  H414     1.0000 0.38519  0.60470  0.22739  Biso   1.000  H
  H415     1.0000 0.33350  0.58409  0.23847  Biso   1.000  H
  O138     1.0000 0.34643  0.60001  0.36110  Biso   1.000  O
  C417     1.0000 0.32102  0.60791  0.40468  Biso   1.000  C
  N288     1.0000 0.27709  0.58916  0.41450  Biso   1.000  N
  N289     1.0000 0.33198  0.63705  0.45237  Biso   1.000  N
  C418     1.0000 0.26084  0.54787  0.38219  Biso   1.000  C
  C419     1.0000 0.25810  0.60276  0.47296  Biso   1.000  C
  C420     1.0000 0.29523  0.63701  0.49790  Biso   1.000  C
  C421     1.0000 0.37948  0.65361  0.46351  Biso   1.000  C
  N290     1.0000 0.21842  0.55622  0.34726  Biso   1.000  N
  H416     1.0000 0.25471  0.52229  0.41160  Biso   1.000  H
  H417     1.0000 0.28611  0.53708  0.35459  Biso   1.000  H
  N291     1.0000 0.21613  0.63169  0.46961  Biso   1.000  N
  H418     1.0000 0.25359  0.57500  0.50011  Biso   1.000  H
  N292     1.0000 0.27008  0.68109  0.50324  Biso   1.000  N
  H419     1.0000 0.30749  0.62630  0.53799  Biso   1.000  H
  N293     1.0000 0.38455  0.70424  0.45577  Biso   1.000  N
  H420     1.0000 0.40129  0.63740  0.43549  Biso   1.000  H
  H421     1.0000 0.38871  0.64508  0.50527  Biso   1.000  H
  C422     1.0000 0.21701  0.55012  0.28580  Biso   1.000  C
  C423     1.0000 0.17152  0.55495  0.37404  Biso   1.000  C
  C424     1.0000 0.16863  0.61192  0.46278  Biso   1.000  C
  C425     1.0000 0.22357  0.67654  0.48885  Biso   1.000  C
  C426     1.0000 0.28804  0.72076  0.53830  Biso   1.000  C
  C427     1.0000 0.41274  0.72372  0.41251  Biso   1.000  C
  C428     1.0000 0.37173  0.73754  0.50260  Biso   1.000  C
  O139     1.0000 0.25161  0.54730  0.25232  Biso   1.000  O
  N294     1.0000 0.17082  0.54790  0.26779  Biso   1.000  N
  C429     1.0000 0.13858  0.54959  0.31852  Biso   1.000  C
  N295     1.0000 0.15725  0.59938  0.40079  Biso   1.000  N
  H422     1.0000 0.16800  0.52821  0.40310  Biso   1.000  H
  H423     1.0000 0.16589  0.58349  0.48848  Biso   1.000  H
  H424     1.0000 0.14531  0.63518  0.47740  Biso   1.000  H
  O140     1.0000 0.19337  0.70783  0.49323  Biso   1.000  O
  N296     1.0000 0.32229  0.74899  0.50541  Biso   1.000  N
  H425     1.0000 0.26130  0.74120  0.55021  Biso   1.000  H
  H426     1.0000 0.30288  0.70868  0.57568  Biso   1.000  H
  N297     1.0000 0.41736  0.77080  0.42427  Biso   1.000  N
  O141     1.0000 0.43156  0.70290  0.37015  Biso   1.000  O
  C430     1.0000 0.39477  0.78447  0.48088  Biso   1.000  C
  H427     1.0000 0.38409  0.72767  0.54301  Biso   1.000  H
  C431     1.0000 0.15768  0.53275  0.20793  Biso   1.000  C
  N298     1.0000 0.11043  0.59237  0.32065  Biso   1.000  N
  H428     1.0000 0.11871  0.52059  0.32119  Biso   1.000  H
  C432     1.0000 0.12086  0.61968  0.37011  Biso   1.000  C
  C433     1.0000 0.31355  0.79511  0.49093  Biso   1.000  C
  C434     1.0000 0.45069  0.80036  0.39269  Biso   1.000  C
  N299     1.0000 0.35492  0.81569  0.47400  Biso   1.000  N
  H429     1.0000 0.41810  0.79680  0.51097  Biso   1.000  H
  N300     1.0000 0.13830  0.57028  0.17091  Biso   1.000  N
  H430     1.0000 0.13410  0.50721  0.21128  Biso   1.000  H
  H431     1.0000 0.18579  0.51961  0.18738  Biso   1.000  H
  C435     1.0000 0.06829  0.59868  0.28440  Biso   1.000  C
  O142     1.0000 0.10028  0.65607  0.38436  Biso   1.000  O
  O143     1.0000 0.27473  0.81470  0.49351  Biso   1.000  O
  N301     1.0000 0.42860  0.83707  0.35685  Biso   1.000  N
  H432     1.0000 0.47201  0.81519  0.42269  Biso   1.000  H
  H433     1.0000 0.47021  0.78038  0.36581  Biso   1.000  H
  C436     1.0000 0.36017  0.86664  0.47038  Biso   1.000  C
  C437     1.0000 0.08950  0.58532  0.17367  Biso   1.000  C
  C438     1.0000 0.16053  0.58662  0.12001  Biso   1.000  C
  N302     1.0000 0.07812  0.61622  0.22345  Biso   1.000  N
  H434     1.0000 0.04711  0.62108  0.30517  Biso   1.000  H
  H435     1.0000 0.05158  0.56809  0.28128  Biso   1.000  H
  C439     1.0000 0.43519  0.84025  0.29540  Biso   1.000  C
  C440     1.0000 0.41559  0.88228  0.38269  Biso   1.000  C
  N303     1.0000 0.36947  0.88362  0.40961  Biso   1.000  N
  H436     1.0000 0.38639  0.87650  0.49708  Biso   1.000  H
  H437     1.0000 0.33100  0.88168  0.48559  Biso   1.000  H
  C441     1.0000 0.08439  0.61770  0.11729  Biso   1.000  C
  H438     1.0000 0.06740  0.55787  0.17168  Biso   1.000  H
  O144     1.0000 0.20027  0.57510  0.10286  Biso   1.000  O
  N304     1.0000 0.13055  0.61636  0.09037  Biso   1.000  N
  C442     1.0000 0.06483  0.65974  0.20458  Biso   1.000  C
  N305     1.0000 0.42187  0.88376  0.27653  Biso   1.000  N
  O145     1.0000 0.45065  0.80846  0.26286  Biso   1.000  O
  H439     1.0000 0.44029  0.89419  0.41120  Biso   1.000  H
  C443     1.0000 0.41049  0.91466  0.32630  Biso   1.000  C
  C444     1.0000 0.33945  0.91336  0.37997  Biso   1.000  C
  N306     1.0000 0.07139  0.66291  0.14317  Biso   1.000  N
  H440     1.0000 0.05969  0.60579  0.08878  Biso   1.000  H
  C445     1.0000 0.13981  0.63335  0.02964  Biso   1.000  C
  O146     1.0000 0.04933  0.69148  0.23716  Biso   1.000  O
  C446     1.0000 0.43170  0.90127  0.21558  Biso   1.000  C
  N307     1.0000 0.36172  0.92971  0.32906  Biso   1.000  N
  H441     1.0000 0.43258  0.94207  0.32830  Biso   1.000  H
  O147     1.0000 0.29971  0.92488  0.39712  Biso   1.000  O
  C447     1.0000 0.04929  0.69962  0.10729  Biso   1.000  C
  N308     1.0000 0.14506  0.68426  0.02602  Biso   1.000  N
  H442     1.0000 0.11360  0.62348  0.00290  Biso   1.000  H
  H443     1.0000 0.16899  0.61830  0.01439  Biso   1.000  H
  N309     1.0000 0.38956  0.90758  0.17933  Biso   1.000  N
  H444     1.0000 0.45291  0.87890  0.19481  Biso   1.000  H
  H445     1.0000 0.44840  0.93189  0.21870  Biso   1.000  H
  C448     1.0000 0.34231  0.96723  0.29209  Biso   1.000  C
  N310     1.0000 0.08263  0.72919  0.07575  Biso   1.000  N
  H446     1.0000 0.02801  0.68479  0.07729  Biso   1.000  H
  H447     1.0000 0.02981  0.71960  0.13421  Biso   1.000  H
  C449     1.0000 0.10521  0.71551  0.01910  Biso   1.000  C
  C450     1.0000 0.18646  0.70487  0.00905  Biso   1.000  C
  C451     1.0000 0.37913  0.88031  0.12992  Biso   1.000  C
  C452     1.0000 0.36140  0.95039  0.18146  Biso   1.000  C
  N311     1.0000 0.32916  0.95208  0.23218  Biso   1.000  N
  H448     1.0000 0.36588  0.99278  0.28870  Biso   1.000  H
  H449     1.0000 0.31419  0.98037  0.31259  Biso   1.000  H
  C453     1.0000 0.08724  0.77626  0.08752  Biso   1.000  C
  C454     1.0000 0.12825  0.76241  0.99738  Biso   1.000  C
  H450     1.0000 0.08189  0.70318  0.98900  Biso   1.000  H
  O148     1.0000 0.22526  0.68528  0.00647  Biso   1.000  O
  N312     1.0000 0.17769  0.75100  0.99457  Biso   1.000  N
  N313     1.0000 0.34273  0.90060  0.09919  Biso   1.000  N
  O149     1.0000 0.39970  0.84387  0.11562  Biso   1.000  O
  C455     1.0000 0.32846  0.94500  0.12598  Biso   1.000  C
  H451     1.0000 0.38128  0.97939  0.17879  Biso   1.000  H
  C456     1.0000 0.28297  0.94986  0.21422  Biso   1.000  C
  O150     1.0000 0.06843  0.79708  0.12982  Biso   1.000  O
  N314     1.0000 0.11543  0.79574  0.04426  Biso   1.000  N
  H452     1.0000 0.11589  0.77228  0.95701  Biso   1.000  H
  C457     1.0000 0.21197  0.77922  0.96172  Biso   1.000  C
  C458     1.0000 0.33135  0.88806  0.03720  Biso   1.000  C
  N315     1.0000 0.28156  0.94377  0.15277  Biso   1.000  N
  H453     1.0000 0.33198  0.97178  0.09688  Biso   1.000  H
  O151     1.0000 0.24837  0.95268  0.24766  Biso   1.000  O
  C459     1.0000 0.12050  0.84634  0.03652  Biso   1.000  C
  N316     1.0000 0.22994  0.81889  0.99674  Biso   1.000  N
  H454     1.0000 0.23868  0.75878  0.94982  Biso   1.000  H
  H455     1.0000 0.19710  0.79127  0.92430  Biso   1.000  H
  N317     1.0000 0.28389  0.86829  0.03036  Biso   1.000  N
  H456     1.0000 0.33410  0.91649  0.01149  Biso   1.000  H
  H457     1.0000 0.35471  0.86477  0.02258  Biso   1.000  H
  C460     1.0000 0.23914  0.95212  0.11779  Biso   1.000  C
  H458     1.0000 0.09869  0.86258  0.06448  Biso   1.000  H
  N318     1.0000 0.16800  0.86290  0.04765  Biso   1.000  N
  H459     1.0000 0.11131  0.85487  0.99471  Biso   1.000  H
  C461     1.0000 0.27645  0.82340  0.01113  Biso   1.000  C
  C462     1.0000 0.20475  0.86297  0.00208  Biso   1.000  C
  C463     1.0000 0.24189  0.89718  0.02706  Biso   1.000  C
  N319     1.0000 0.22290  0.91082  0.08548  Biso   1.000  N
  H460     1.0000 0.24530  0.97770  0.08842  Biso   1.000  H
  H461     1.0000 0.21391  0.96290  0.14539  Biso   1.000  H
  C464     1.0000 0.17896  0.89204  0.09530  Biso   1.000  C
  O152     1.0000 0.30665  0.79215  0.00674  Biso   1.000  O
  H462     1.0000 0.19249  0.87368  0.96199  Biso   1.000  H
  H463     1.0000 0.24640  0.92499  0.99991  Biso   1.000  H
  O153     1.0000 0.15355  0.89997  0.13888  Biso   1.000  O
  Ne1      1.0000 0.48985  0.00385  0.01810  Biso   1.000  Ne
  He1      1.0000 0.44347  0.91137  0.07061  Biso   1.000  He
  He2      1.0000 0.55476  0.08618  0.93135  Biso   1.000  He
  Ar1      1.0000 0.50001  0.00024  0.99974  Biso   1.000  Ar
  Ne2      1.0000 0.24999  0.25000  0.74999  Biso   1.000  Ne
  He3      1.0000 0.33582  0.19550  0.81832  Biso   1.000  He
  He4      1.0000 0.17626  0.30542  0.68306  Biso   1.000  He
  Ar2      1.0000 0.25000  0.25000  0.74999  Biso   1.000  Ar
  Ne3      1.0000 0.24999  0.74999  0.25000  Biso   1.000  Ne
  He5      1.0000 0.16753  0.80200  0.31546  Biso   1.000  He
  He6      1.0000 0.33503  0.69605  0.18232  Biso   1.000  He
  Ar3      1.0000 0.25000  0.74998  0.25000  Biso   1.000  Ar
  Ne4      1.0000 0.74999  0.25000  0.74999  Biso   1.000  Ne
  He7      1.0000 0.66755  0.30203  0.81550  Biso   1.000  He
  He8      1.0000 0.83503  0.19606  0.68230  Biso   1.000  He
  Ar4      1.0000 0.74999  0.24999  0.74999  Biso   1.000  Ar
  Ne5      1.0000 0.74999  0.74999  0.25000  Biso   1.000  Ne
  He9      1.0000 0.83578  0.69549  0.31830  Biso   1.000  He
  He10     1.0000 0.67629  0.80549  0.18303  Biso   1.000  He
  Ar5      1.0000 0.74999  0.74998  0.24998  Biso   1.000  Ar
  Ne6      1.0000 0.50787  0.49550  0.00236  Biso   1.000  Ne
  He11     1.0000 0.55532  0.57342  0.06674  Biso   1.000  He
  He12     1.0000 0.44137  0.42216  0.92946  Biso   1.000  He
  Ar6      1.0000 0.50187  0.49725  0.00076  Biso   1.000  Ar
  Ne7      1.0000 0.98297  0.99852  0.49881  Biso   1.000  Ne
  He13     1.0000 0.05531  0.07345  0.56677  Biso   1.000  He
  He14     1.0000 0.94139  0.92215  0.42947  Biso   1.000  He
  Ar7      1.0000 0.99680  0.00182  0.49654  Biso   1.000  Ar
  Ne8      1.0000 0.98686  0.49785  0.48956  Biso   1.000  Ne
  He15     1.0000 0.93759  0.41719  0.57485  Biso   1.000  He
  He16     1.0000 0.05023  0.57995  0.43658  Biso   1.000  He
  Ar8      1.0000 0.99738  0.50347  0.50133  Biso   1.000  Ar
