data_image0
_cell_length_a       28.381
_cell_length_b       28.381
_cell_length_c       22.099
_cell_angle_alpha    90
_cell_angle_beta     90
_cell_angle_gamma    90

_symmetry_space_group_name_H-M    "P 1"
_symmetry_int_tables_number       1

loop_
  _symmetry_equiv_pos_as_xyz
  'x, y, z'

loop_
  _atom_site_label
  _atom_site_occupancy
  _atom_site_fract_x
  _atom_site_fract_y
  _atom_site_fract_z
  _atom_site_thermal_displace_type
  _atom_site_B_iso_or_equiv
  _atom_site_type_symbol
  C1       1.0000 0.63979  0.63335  0.47038  Biso   1.000  C
  N1       1.0000 0.63053  0.61636  0.40961  Biso   1.000  N
  N2       1.0000 0.64504  0.68426  0.47400  Biso   1.000  N
  H1       1.0000 0.61358  0.62348  0.49708  Biso   1.000  H
  H2       1.0000 0.66900  0.61830  0.48559  Biso   1.000  H
  C2       1.0000 0.58441  0.61770  0.38269  Biso   1.000  C
  C3       1.0000 0.66055  0.58662  0.37997  Biso   1.000  C
  C4       1.0000 0.60519  0.71551  0.48088  Biso   1.000  C
  C5       1.0000 0.68645  0.70487  0.49093  Biso   1.000  C
  C6       1.0000 0.58948  0.58532  0.32630  Biso   1.000  C
  N3       1.0000 0.57137  0.66291  0.35685  Biso   1.000  N
  H3       1.0000 0.55971  0.60579  0.41120  Biso   1.000  H
  N4       1.0000 0.63828  0.57028  0.32906  Biso   1.000  N
  O1       1.0000 0.70026  0.57510  0.39712  Biso   1.000  O
  N5       1.0000 0.58261  0.72919  0.42427  Biso   1.000  N
  C7       1.0000 0.62827  0.76241  0.50260  Biso   1.000  C
  H4       1.0000 0.58190  0.70318  0.51097  Biso   1.000  H
  N6       1.0000 0.67771  0.75100  0.50541  Biso   1.000  N
  O2       1.0000 0.72527  0.68528  0.49351  Biso   1.000  O
  N7       1.0000 0.57813  0.61622  0.27653  Biso   1.000  N
  H5       1.0000 0.56739  0.55787  0.32830  Biso   1.000  H
  C8       1.0000 0.56481  0.65974  0.29540  Biso   1.000  C
  C9       1.0000 0.54928  0.69962  0.39269  Biso   1.000  C
  C10      1.0000 0.65769  0.53275  0.29209  Biso   1.000  C
  C11      1.0000 0.58726  0.77626  0.41251  Biso   1.000  C
  N8       1.0000 0.61541  0.79574  0.45577  Biso   1.000  N
  H6       1.0000 0.61591  0.77228  0.54301  Biso   1.000  H
  C12      1.0000 0.71196  0.77922  0.53830  Biso   1.000  C
  C13      1.0000 0.56827  0.59868  0.21558  Biso   1.000  C
  O3       1.0000 0.54935  0.69148  0.26286  Biso   1.000  O
  H7       1.0000 0.52799  0.68479  0.42269  Biso   1.000  H
  H8       1.0000 0.52979  0.71960  0.36581  Biso   1.000  H
  N9       1.0000 0.67080  0.54790  0.23218  Biso   1.000  N
  H9       1.0000 0.63409  0.50721  0.28870  Biso   1.000  H
  H10      1.0000 0.68578  0.51961  0.31259  Biso   1.000  H
  O4       1.0000 0.56844  0.79708  0.37015  Biso   1.000  O
  C14      1.0000 0.62049  0.84634  0.46351  Biso   1.000  C
  N10      1.0000 0.72992  0.81889  0.50324  Biso   1.000  N
  H11      1.0000 0.73870  0.75878  0.55021  Biso   1.000  H
  H12      1.0000 0.69709  0.79127  0.57568  Biso   1.000  H
  N11      1.0000 0.61041  0.59237  0.17933  Biso   1.000  N
  H13      1.0000 0.54709  0.62108  0.19481  Biso   1.000  H
  H14      1.0000 0.55160  0.56809  0.21870  Biso   1.000  H
  C15      1.0000 0.63860  0.54959  0.18146  Biso   1.000  C
  C16      1.0000 0.71703  0.55012  0.21422  Biso   1.000  C
  N12      1.0000 0.66798  0.86290  0.45237  Biso   1.000  N
  H15      1.0000 0.59868  0.86258  0.43549  Biso   1.000  H
  H16      1.0000 0.61129  0.85487  0.50527  Biso   1.000  H
  C17      1.0000 0.70477  0.86297  0.49790  Biso   1.000  C
  C18      1.0000 0.77643  0.82340  0.48885  Biso   1.000  C
  C19      1.0000 0.62084  0.61968  0.12992  Biso   1.000  C
  H17      1.0000 0.61869  0.52059  0.17879  Biso   1.000  H
  C20      1.0000 0.67154  0.55495  0.12598  Biso   1.000  C
  N13      1.0000 0.71840  0.55622  0.15277  Biso   1.000  N
  O5       1.0000 0.75163  0.54730  0.24766  Biso   1.000  O
  C21      1.0000 0.67894  0.89204  0.40468  Biso   1.000  C
  C22      1.0000 0.74187  0.89718  0.47296  Biso   1.000  C
  H18      1.0000 0.69247  0.87368  0.53799  Biso   1.000  H
  N14      1.0000 0.78387  0.86829  0.46961  Biso   1.000  N
  O6       1.0000 0.80663  0.79215  0.49323  Biso   1.000  O
  O7       1.0000 0.60030  0.65607  0.11562  Biso   1.000  O
  N15      1.0000 0.65727  0.59938  0.09919  Biso   1.000  N
  H19      1.0000 0.66798  0.52821  0.09688  Biso   1.000  H
  C23      1.0000 0.76083  0.54787  0.11779  Biso   1.000  C
  O8       1.0000 0.65354  0.89997  0.36110  Biso   1.000  O
  N16      1.0000 0.72288  0.91082  0.41450  Biso   1.000  N
  H20      1.0000 0.74638  0.92499  0.50011  Biso   1.000  H
  C24      1.0000 0.83137  0.88806  0.46278  Biso   1.000  C
  C25      1.0000 0.66862  0.61192  0.03720  Biso   1.000  C
  N17      1.0000 0.77707  0.58916  0.08548  Biso   1.000  N
  H21      1.0000 0.75470  0.52229  0.08842  Biso   1.000  H
  H22      1.0000 0.78609  0.53708  0.14539  Biso   1.000  H
  C26      1.0000 0.73916  0.95212  0.38219  Biso   1.000  C
  N18      1.0000 0.84271  0.90060  0.40079  Biso   1.000  N
  H23      1.0000 0.83408  0.91649  0.48848  Biso   1.000  H
  H24      1.0000 0.85469  0.86477  0.47740  Biso   1.000  H
  N19      1.0000 0.71611  0.63169  0.03036  Biso   1.000  N
  H25      1.0000 0.66590  0.58349  0.01149  Biso   1.000  H
  H26      1.0000 0.64529  0.63518  0.02258  Biso   1.000  H
  C27      1.0000 0.75808  0.60276  0.02706  Biso   1.000  C
  C28      1.0000 0.82104  0.60791  0.09530  Biso   1.000  C
  N20      1.0000 0.78158  0.94377  0.34726  Biso   1.000  N
  H27      1.0000 0.74529  0.97770  0.41160  Biso   1.000  H
  H28      1.0000 0.71389  0.96290  0.35459  Biso   1.000  H
  C29      1.0000 0.82844  0.94500  0.37404  Biso   1.000  C
  C30      1.0000 0.87911  0.88031  0.37011  Biso   1.000  C
  C31      1.0000 0.72355  0.67654  0.01113  Biso   1.000  C
  C32      1.0000 0.79522  0.63701  0.00208  Biso   1.000  C
  H29      1.0000 0.75360  0.57500  0.99986  Biso   1.000  H
  N21      1.0000 0.83200  0.63705  0.04765  Biso   1.000  N
  O9       1.0000 0.84641  0.60001  0.13888  Biso   1.000  O
  C33      1.0000 0.78295  0.94986  0.28580  Biso   1.000  C
  C34      1.0000 0.86139  0.95039  0.31852  Biso   1.000  C
  H30      1.0000 0.83200  0.97178  0.40310  Biso   1.000  H
  O10      1.0000 0.89969  0.84387  0.38436  Biso   1.000  O
  N22      1.0000 0.88957  0.90758  0.32065  Biso   1.000  N
  O11      1.0000 0.69335  0.70783  0.00674  Biso   1.000  O
  N23      1.0000 0.77006  0.68109  0.99674  Biso   1.000  N
  H31      1.0000 0.80748  0.62630  0.96199  Biso   1.000  H
  C35      1.0000 0.87946  0.65361  0.03652  Biso   1.000  C
  O12      1.0000 0.74835  0.95268  0.25232  Biso   1.000  O
  N24      1.0000 0.82918  0.95208  0.26779  Biso   1.000  N
  H32      1.0000 0.88129  0.97939  0.32119  Biso   1.000  H
  C36      1.0000 0.93168  0.90127  0.28440  Biso   1.000  C
  C37      1.0000 0.78803  0.72076  0.96167  Biso   1.000  C
  N25      1.0000 0.88454  0.70424  0.04426  Biso   1.000  N
  H33      1.0000 0.90127  0.63740  0.06448  Biso   1.000  H
  H34      1.0000 0.88869  0.64508  0.99466  Biso   1.000  H
  C38      1.0000 0.84229  0.96723  0.20793  Biso   1.000  C
  N26      1.0000 0.92185  0.88376  0.22345  Biso   1.000  N
  H35      1.0000 0.95289  0.87890  0.30517  Biso   1.000  H
  H36      1.0000 0.94838  0.93189  0.28128  Biso   1.000  H
  N27      1.0000 0.82228  0.74899  0.99457  Biso   1.000  N
  H37      1.0000 0.76128  0.74120  0.94977  Biso   1.000  H
  H38      1.0000 0.80290  0.70868  0.92430  Biso   1.000  H
  C39      1.0000 0.87171  0.73754  0.99738  Biso   1.000  C
  C40      1.0000 0.91272  0.72372  0.08752  Biso   1.000  C
  N28      1.0000 0.86170  0.92971  0.17091  Biso   1.000  N
  H39      1.0000 0.86590  0.99278  0.21128  Biso   1.000  H
  H40      1.0000 0.81417  0.98037  0.18738  Biso   1.000  H
  C41      1.0000 0.91047  0.91466  0.17367  Biso   1.000  C
  C42      1.0000 0.93517  0.84025  0.20458  Biso   1.000  C
  C43      1.0000 0.81354  0.79511  0.00905  Biso   1.000  C
  C44      1.0000 0.89475  0.78447  0.01910  Biso   1.000  C
  H41      1.0000 0.88408  0.72767  0.95697  Biso   1.000  H
  N29      1.0000 0.91734  0.77080  0.07575  Biso   1.000  N
  O13      1.0000 0.93154  0.70290  0.12982  Biso   1.000  O
  C45      1.0000 0.83943  0.91336  0.12001  Biso   1.000  C
  C46      1.0000 0.91558  0.88228  0.11729  Biso   1.000  C
  H42      1.0000 0.93260  0.94207  0.17168  Biso   1.000  H
  N30      1.0000 0.92858  0.83707  0.14317  Biso   1.000  N
  O14      1.0000 0.95064  0.80846  0.23716  Biso   1.000  O
  O15      1.0000 0.77471  0.81470  0.00647  Biso   1.000  O
  N31      1.0000 0.85490  0.81569  0.02602  Biso   1.000  N
  H43      1.0000 0.91808  0.79680  0.98900  Biso   1.000  H
  C47      1.0000 0.95067  0.80036  0.10729  Biso   1.000  C
  N32      1.0000 0.86945  0.88362  0.09037  Biso   1.000  N
  O16      1.0000 0.79969  0.92488  0.10286  Biso   1.000  O
  H44      1.0000 0.94028  0.89419  0.08878  Biso   1.000  H
  C48      1.0000 0.86015  0.86664  0.02964  Biso   1.000  C
  H45      1.0000 0.97199  0.81519  0.07729  Biso   1.000  H
  H46      1.0000 0.97019  0.78038  0.13421  Biso   1.000  H
  H47      1.0000 0.88637  0.87650  0.00290  Biso   1.000  H
  H48      1.0000 0.83098  0.88168  0.01439  Biso   1.000  H
  C49      1.0000 0.52923  0.53804  0.71171  Biso   1.000  C
  N33      1.0000 0.50100  0.57228  0.74456  Biso   1.000  N
  N34      1.0000 0.56890  0.52007  0.74673  Biso   1.000  N
  H49      1.0000 0.50879  0.51129  0.69981  Biso   1.000  H
  H50      1.0000 0.54128  0.55291  0.67428  Biso   1.000  H
  C50      1.0000 0.45488  0.56355  0.75904  Biso   1.000  C
  C51      1.0000 0.51242  0.62172  0.74736  Biso   1.000  C
  C52      1.0000 0.57341  0.47356  0.76112  Biso   1.000  C
  C53      1.0000 0.61298  0.54522  0.75207  Biso   1.000  C
  O17      1.0000 0.43526  0.52472  0.75646  Biso   1.000  O
  N35      1.0000 0.43427  0.60491  0.77601  Biso   1.000  N
  C54      1.0000 0.46552  0.64476  0.76908  Biso   1.000  C
  N36      1.0000 0.54575  0.63454  0.79424  Biso   1.000  N
  H51      1.0000 0.52229  0.63409  0.70700  Biso   1.000  H
  O18      1.0000 0.54212  0.44336  0.75673  Biso   1.000  O
  N37      1.0000 0.61830  0.46612  0.78035  Biso   1.000  N
  N38      1.0000 0.61291  0.58197  0.79764  Biso   1.000  N
  C55      1.0000 0.64719  0.50809  0.77700  Biso   1.000  C
  H52      1.0000 0.62369  0.55749  0.71198  Biso   1.000  H
  C56      1.0000 0.38332  0.61016  0.77963  Biso   1.000  C
  N39      1.0000 0.47919  0.66735  0.82574  Biso   1.000  N
  H53      1.0000 0.45319  0.66809  0.73899  Biso   1.000  H
  C57      1.0000 0.52627  0.66273  0.83750  Biso   1.000  C
  C58      1.0000 0.59635  0.62947  0.78651  Biso   1.000  C
  C59      1.0000 0.63807  0.41863  0.78718  Biso   1.000  C
  C60      1.0000 0.64205  0.57102  0.84529  Biso   1.000  C
  N40      1.0000 0.66079  0.52708  0.83547  Biso   1.000  N
  H54      1.0000 0.67499  0.50358  0.74990  Biso   1.000  H
  N41      1.0000 0.36637  0.61946  0.84035  Biso   1.000  N
  H55      1.0000 0.37349  0.63638  0.75288  Biso   1.000  H
  H56      1.0000 0.36831  0.58099  0.76438  Biso   1.000  H
  C61      1.0000 0.44963  0.70068  0.85728  Biso   1.000  C
  O19      1.0000 0.54709  0.68155  0.87981  Biso   1.000  O
  H57      1.0000 0.61259  0.65128  0.81447  Biso   1.000  H
  H58      1.0000 0.60488  0.63870  0.74469  Biso   1.000  H
  N42      1.0000 0.65061  0.40728  0.84918  Biso   1.000  N
  H59      1.0000 0.66650  0.41588  0.76148  Biso   1.000  H
  H60      1.0000 0.61478  0.39530  0.77257  Biso   1.000  H
  O20      1.0000 0.64994  0.59642  0.88886  Biso   1.000  O
  C62      1.0000 0.70212  0.51083  0.86778  Biso   1.000  C
  C63      1.0000 0.36771  0.66559  0.86728  Biso   1.000  C
  C64      1.0000 0.33660  0.58944  0.86999  Biso   1.000  C
  N43      1.0000 0.41292  0.67859  0.89316  Biso   1.000  N
  H61      1.0000 0.43480  0.72200  0.82728  Biso   1.000  H
  H62      1.0000 0.46957  0.72020  0.88420  Biso   1.000  H
  C65      1.0000 0.63032  0.37085  0.87990  Biso   1.000  C
  C66      1.0000 0.69501  0.42155  0.87592  Biso   1.000  C
  N44      1.0000 0.69377  0.46841  0.90276  Biso   1.000  N
  H63      1.0000 0.72767  0.50470  0.83836  Biso   1.000  H
  H64      1.0000 0.71287  0.53610  0.89538  Biso   1.000  H
  H65      1.0000 0.35580  0.69029  0.83877  Biso   1.000  H
  C67      1.0000 0.33533  0.66048  0.92366  Biso   1.000  C
  O21      1.0000 0.32511  0.54970  0.85284  Biso   1.000  O
  N45      1.0000 0.32028  0.61171  0.92090  Biso   1.000  N
  C68      1.0000 0.40975  0.68518  0.95457  Biso   1.000  C
  O22      1.0000 0.59388  0.35027  0.86560  Biso   1.000  O
  N46      1.0000 0.65759  0.36042  0.92932  Biso   1.000  N
  C69      1.0000 0.70040  0.38857  0.93144  Biso   1.000  C
  H66      1.0000 0.72179  0.41799  0.84687  Biso   1.000  H
  C70      1.0000 0.69983  0.46704  0.96416  Biso   1.000  C
  N47      1.0000 0.36623  0.67186  0.97344  Biso   1.000  N
  H67      1.0000 0.30788  0.68260  0.92167  Biso   1.000  H
  C71      1.0000 0.28276  0.59230  0.95792  Biso   1.000  C
  O23      1.0000 0.44149  0.70064  0.98715  Biso   1.000  O
  C72      1.0000 0.65128  0.31828  0.96556  Biso   1.000  C
  N48      1.0000 0.70209  0.42081  0.98217  Biso   1.000  N
  H68      1.0000 0.72940  0.36870  0.92878  Biso   1.000  H
  O24      1.0000 0.70269  0.50164  0.99765  Biso   1.000  O
  C73      1.0000 0.34868  0.68169  0.03439  Biso   1.000  C
  H69      1.0000 0.25718  0.61591  0.96127  Biso   1.000  H
  H70      1.0000 0.26958  0.56418  0.93737  Biso   1.000  H
  N49      1.0000 0.29791  0.57916  0.01783  Biso   1.000  N
  H71      1.0000 0.62887  0.29710  0.94479  Biso   1.000  H
  H72      1.0000 0.68190  0.30161  0.96869  Biso   1.000  H
  N50      1.0000 0.63377  0.32811  0.02656  Biso   1.000  N
  C74      1.0000 0.71724  0.40767  0.04208  Biso   1.000  C
  N51      1.0000 0.34238  0.63958  0.07064  Biso   1.000  N
  H73      1.0000 0.37109  0.70290  0.05521  Biso   1.000  H
  H74      1.0000 0.31810  0.69839  0.03131  Biso   1.000  H
  C75      1.0000 0.29960  0.61139  0.06851  Biso   1.000  C
  C76      1.0000 0.30013  0.53296  0.03579  Biso   1.000  C
  C77      1.0000 0.59025  0.31482  0.04539  Biso   1.000  C
  C78      1.0000 0.66467  0.33949  0.07634  Biso   1.000  C
  N52      1.0000 0.67972  0.38829  0.07910  Biso   1.000  N
  H75      1.0000 0.74279  0.38409  0.03869  Biso   1.000  H
  H76      1.0000 0.73038  0.43578  0.06258  Biso   1.000  H
  C79      1.0000 0.36968  0.62912  0.12010  Biso   1.000  C
  H77      1.0000 0.27060  0.63130  0.07118  Biso   1.000  H
  C80      1.0000 0.30496  0.57845  0.12403  Biso   1.000  C
  O25      1.0000 0.29731  0.49836  0.00231  Biso   1.000  O
  N53      1.0000 0.30619  0.53159  0.09724  Biso   1.000  N
  O26      1.0000 0.55847  0.29932  0.01285  Biso   1.000  O
  N54      1.0000 0.58708  0.32138  0.10684  Biso   1.000  N
  C81      1.0000 0.63229  0.33438  0.13268  Biso   1.000  C
  H78      1.0000 0.69208  0.31740  0.07828  Biso   1.000  H
  C82      1.0000 0.66337  0.41056  0.13001  Biso   1.000  C
  O27      1.0000 0.40608  0.64970  0.13435  Biso   1.000  O
  N55      1.0000 0.34939  0.59272  0.15078  Biso   1.000  N
  H79      1.0000 0.27818  0.58197  0.15308  Biso   1.000  H
  C83      1.0000 0.29788  0.48917  0.13218  Biso   1.000  C
  C84      1.0000 0.55037  0.29928  0.14268  Biso   1.000  C
  N56      1.0000 0.63363  0.38054  0.15960  Biso   1.000  N
  H80      1.0000 0.64420  0.30968  0.16118  Biso   1.000  H
  O28      1.0000 0.67485  0.45027  0.14716  Biso   1.000  O
  C85      1.0000 0.36190  0.58137  0.21282  Biso   1.000  C
  N57      1.0000 0.33917  0.47289  0.16453  Biso   1.000  N
  H81      1.0000 0.27229  0.49530  0.16159  Biso   1.000  H
  H82      1.0000 0.28709  0.46390  0.10462  Biso   1.000  H
  N58      1.0000 0.52081  0.33262  0.17426  Biso   1.000  N
  H83      1.0000 0.56520  0.27800  0.17268  Biso   1.000  H
  H84      1.0000 0.53039  0.27980  0.11580  Biso   1.000  H
  C86      1.0000 0.61664  0.38980  0.22037  Biso   1.000  C
  N59      1.0000 0.38170  0.53388  0.21965  Biso   1.000  N
  H85      1.0000 0.33350  0.58409  0.23852  Biso   1.000  H
  H86      1.0000 0.38519  0.60470  0.22739  Biso   1.000  H
  C87      1.0000 0.35277  0.49188  0.22295  Biso   1.000  C
  C88      1.0000 0.35792  0.42895  0.15471  Biso   1.000  C
  C89      1.0000 0.47373  0.33727  0.16250  Biso   1.000  C
  C90      1.0000 0.53448  0.35520  0.23092  Biso   1.000  C
  N60      1.0000 0.56570  0.39505  0.22399  Biso   1.000  N
  H87      1.0000 0.62648  0.36359  0.24712  Biso   1.000  H
  H88      1.0000 0.63169  0.41898  0.23558  Biso   1.000  H
  C91      1.0000 0.42655  0.52644  0.23888  Biso   1.000  C
  H89      1.0000 0.32501  0.49639  0.25010  Biso   1.000  H
  C92      1.0000 0.38702  0.45478  0.24788  Biso   1.000  C
  O29      1.0000 0.35002  0.40354  0.11109  Biso   1.000  O
  N61      1.0000 0.38705  0.41799  0.20236  Biso   1.000  N
  N62      1.0000 0.45425  0.36542  0.20576  Biso   1.000  N
  O30      1.0000 0.45291  0.31842  0.12014  Biso   1.000  O
  C93      1.0000 0.48754  0.37825  0.25259  Biso   1.000  C
  H90      1.0000 0.54677  0.33188  0.26101  Biso   1.000  H
  C94      1.0000 0.54512  0.43645  0.24092  Biso   1.000  C
  O31      1.0000 0.45784  0.55664  0.24327  Biso   1.000  O
  N63      1.0000 0.43110  0.47993  0.25322  Biso   1.000  N
  H91      1.0000 0.37631  0.44248  0.28798  Biso   1.000  H
  C95      1.0000 0.40362  0.37049  0.21349  Biso   1.000  C
  N64      1.0000 0.49900  0.42772  0.25540  Biso   1.000  N
  H92      1.0000 0.47768  0.36588  0.29300  Biso   1.000  H
  O32      1.0000 0.56471  0.47525  0.24350  Biso   1.000  O
  C96      1.0000 0.47077  0.46196  0.28829  Biso   1.000  C
  H93      1.0000 0.38741  0.34868  0.18548  Biso   1.000  H
  H94      1.0000 0.39509  0.36130  0.25531  Biso   1.000  H
  H95      1.0000 0.49121  0.48871  0.30019  Biso   1.000  H
  H96      1.0000 0.45869  0.44709  0.32572  Biso   1.000  H
  C97      1.0000 0.78274  0.59230  0.54206  Biso   1.000  C
  N65      1.0000 0.79789  0.57916  0.48219  Biso   1.000  N
  N66      1.0000 0.82027  0.61171  0.57908  Biso   1.000  N
  H97      1.0000 0.75720  0.61591  0.53871  Biso   1.000  H
  H98      1.0000 0.76960  0.56418  0.56260  Biso   1.000  H
  C98      1.0000 0.80011  0.53296  0.46418  Biso   1.000  C
  C99      1.0000 0.79958  0.61139  0.43147  Biso   1.000  C
  C100     1.0000 0.83531  0.66048  0.57632  Biso   1.000  C
  C101     1.0000 0.83662  0.58944  0.62998  Biso   1.000  C
  N67      1.0000 0.80621  0.53159  0.40273  Biso   1.000  N
  O33      1.0000 0.79729  0.49836  0.49767  Biso   1.000  O
  C102     1.0000 0.80494  0.57845  0.37594  Biso   1.000  C
  N68      1.0000 0.84236  0.63958  0.42934  Biso   1.000  N
  H99      1.0000 0.77059  0.63130  0.42880  Biso   1.000  H
  N69      1.0000 0.86621  0.67186  0.52654  Biso   1.000  N
  C103     1.0000 0.86769  0.66559  0.63270  Biso   1.000  C
  H100     1.0000 0.80790  0.68260  0.57831  Biso   1.000  H
  O34      1.0000 0.82509  0.54970  0.64713  Biso   1.000  O
  N70      1.0000 0.86635  0.61946  0.65962  Biso   1.000  N
  C104     1.0000 0.79786  0.48917  0.36780  Biso   1.000  C
  N71      1.0000 0.84937  0.59272  0.34920  Biso   1.000  N
  H101     1.0000 0.77820  0.58197  0.34689  Biso   1.000  H
  C105     1.0000 0.86967  0.62912  0.37988  Biso   1.000  C
  C106     1.0000 0.84870  0.68169  0.46559  Biso   1.000  C
  C107     1.0000 0.90973  0.68518  0.54541  Biso   1.000  C
  N72      1.0000 0.91290  0.67859  0.60681  Biso   1.000  N
  H102     1.0000 0.85578  0.69029  0.66121  Biso   1.000  H
  C108     1.0000 0.88334  0.61016  0.72035  Biso   1.000  C
  N73      1.0000 0.83915  0.47289  0.33549  Biso   1.000  N
  H103     1.0000 0.77228  0.49530  0.33839  Biso   1.000  H
  H104     1.0000 0.78708  0.46390  0.39540  Biso   1.000  H
  C109     1.0000 0.86191  0.58137  0.28721  Biso   1.000  C
  O35      1.0000 0.90610  0.64970  0.36563  Biso   1.000  O
  H105     1.0000 0.87108  0.70290  0.44477  Biso   1.000  H
  H106     1.0000 0.81808  0.69839  0.46871  Biso   1.000  H
  O36      1.0000 0.94151  0.70064  0.51283  Biso   1.000  O
  C110     1.0000 0.94961  0.70068  0.64270  Biso   1.000  C
  N74      1.0000 0.93429  0.60491  0.72397  Biso   1.000  N
  H107     1.0000 0.87347  0.63638  0.74709  Biso   1.000  H
  H108     1.0000 0.86829  0.58099  0.73560  Biso   1.000  H
  C111     1.0000 0.85279  0.49188  0.27703  Biso   1.000  C
  C112     1.0000 0.85790  0.42895  0.34531  Biso   1.000  C
  N75      1.0000 0.88168  0.53388  0.28037  Biso   1.000  N
  H109     1.0000 0.83348  0.58409  0.26151  Biso   1.000  H
  H110     1.0000 0.88517  0.60470  0.27259  Biso   1.000  H
  N76      1.0000 0.97918  0.66735  0.67424  Biso   1.000  N
  H111     1.0000 0.93478  0.72200  0.67270  Biso   1.000  H
  H112     1.0000 0.96959  0.72020  0.61577  Biso   1.000  H
  C113     1.0000 0.96551  0.64476  0.73089  Biso   1.000  C
  C114     1.0000 0.95486  0.56355  0.74094  Biso   1.000  C
  H113     1.0000 0.82499  0.49639  0.24988  Biso   1.000  H
  C115     1.0000 0.88700  0.45478  0.25209  Biso   1.000  C
  O37      1.0000 0.85001  0.40354  0.38889  Biso   1.000  O
  N77      1.0000 0.88704  0.41799  0.29762  Biso   1.000  N
  C116     1.0000 0.92657  0.52644  0.26114  Biso   1.000  C
  C117     1.0000 0.02625  0.66273  0.66247  Biso   1.000  C
  H114     1.0000 0.95317  0.66809  0.76098  Biso   1.000  H
  C118     1.0000 0.01244  0.62172  0.75261  Biso   1.000  C
  O38      1.0000 0.93527  0.52472  0.74352  Biso   1.000  O
  N78      1.0000 0.00102  0.57228  0.75542  Biso   1.000  N
  N79      1.0000 0.93108  0.47993  0.24675  Biso   1.000  N
  H115     1.0000 0.87629  0.44248  0.21200  Biso   1.000  H
  C119     1.0000 0.90360  0.37049  0.28648  Biso   1.000  C
  O39      1.0000 0.95782  0.55664  0.25675  Biso   1.000  O
  O40      1.0000 0.04711  0.68155  0.62016  Biso   1.000  O
  N80      1.0000 0.04577  0.63454  0.70573  Biso   1.000  N
  H116     1.0000 0.02230  0.63409  0.79298  Biso   1.000  H
  C120     1.0000 0.02921  0.53804  0.78827  Biso   1.000  C
  C121     1.0000 0.97076  0.46196  0.21168  Biso   1.000  C
  N81      1.0000 0.95423  0.36542  0.29422  Biso   1.000  N
  H117     1.0000 0.88739  0.34868  0.31449  Biso   1.000  H
  H118     1.0000 0.89507  0.36130  0.24472  Biso   1.000  H
  C122     1.0000 0.09637  0.62947  0.71347  Biso   1.000  C
  N82      1.0000 0.06892  0.52007  0.75325  Biso   1.000  N
  H119     1.0000 0.00881  0.51129  0.80017  Biso   1.000  H
  H120     1.0000 0.04130  0.55291  0.82569  Biso   1.000  H
  N83      1.0000 0.99898  0.42772  0.24458  Biso   1.000  N
  H121     1.0000 0.99119  0.48871  0.19978  Biso   1.000  H
  H122     1.0000 0.95867  0.44709  0.17431  Biso   1.000  H
  C123     1.0000 0.97371  0.33727  0.33748  Biso   1.000  C
  C124     1.0000 0.98753  0.37825  0.24739  Biso   1.000  C
  N84      1.0000 0.11293  0.58197  0.70234  Biso   1.000  N
  H123     1.0000 0.11261  0.65128  0.68551  Biso   1.000  H
  H124     1.0000 0.10489  0.63870  0.75528  Biso   1.000  H
  C125     1.0000 0.07343  0.47356  0.73886  Biso   1.000  C
  C126     1.0000 0.11296  0.54522  0.74791  Biso   1.000  C
  C127     1.0000 0.04514  0.43645  0.25906  Biso   1.000  C
  O41      1.0000 0.95289  0.31842  0.37984  Biso   1.000  O
  N85      1.0000 0.02082  0.33262  0.32572  Biso   1.000  N
  H125     1.0000 0.97770  0.36588  0.20698  Biso   1.000  H
  C128     1.0000 0.03449  0.35520  0.26911  Biso   1.000  C
  C129     1.0000 0.14207  0.57102  0.65469  Biso   1.000  C
  O42      1.0000 0.04214  0.44336  0.74325  Biso   1.000  O
  N86      1.0000 0.11828  0.46612  0.71963  Biso   1.000  N
  C130     1.0000 0.14721  0.50809  0.72293  Biso   1.000  C
  H126     1.0000 0.12371  0.55749  0.78800  Biso   1.000  H
  O43      1.0000 0.06473  0.47525  0.25648  Biso   1.000  O
  N87      1.0000 0.06571  0.39505  0.27599  Biso   1.000  N
  C131     1.0000 0.05039  0.29928  0.35730  Biso   1.000  C
  H127     1.0000 0.04679  0.33188  0.23902  Biso   1.000  H
  O44      1.0000 0.14996  0.59642  0.61111  Biso   1.000  O
  N88      1.0000 0.16081  0.52708  0.66451  Biso   1.000  N
  C132     1.0000 0.13809  0.41863  0.71279  Biso   1.000  C
  H128     1.0000 0.17501  0.50358  0.75008  Biso   1.000  H
  C133     1.0000 0.11666  0.38980  0.27961  Biso   1.000  C
  N89      1.0000 0.08710  0.32138  0.39314  Biso   1.000  N
  H129     1.0000 0.06518  0.27800  0.32730  Biso   1.000  H
  H130     1.0000 0.03041  0.27980  0.38418  Biso   1.000  H
  C134     1.0000 0.20211  0.51083  0.63220  Biso   1.000  C
  N90      1.0000 0.15063  0.40728  0.65080  Biso   1.000  N
  H131     1.0000 0.16648  0.41588  0.73849  Biso   1.000  H
  H132     1.0000 0.11480  0.39530  0.72741  Biso   1.000  H
  N91      1.0000 0.13361  0.38054  0.34038  Biso   1.000  N
  H133     1.0000 0.12649  0.36359  0.25291  Biso   1.000  H
  H134     1.0000 0.13171  0.41898  0.26440  Biso   1.000  H
  C135     1.0000 0.09027  0.31482  0.45459  Biso   1.000  C
  C136     1.0000 0.13231  0.33438  0.36730  Biso   1.000  C
  N92      1.0000 0.19379  0.46841  0.59722  Biso   1.000  N
  H135     1.0000 0.22769  0.50470  0.66157  Biso   1.000  H
  H136     1.0000 0.21289  0.53610  0.60460  Biso   1.000  H
  C137     1.0000 0.13033  0.37085  0.62007  Biso   1.000  C
  C138     1.0000 0.19502  0.42155  0.62401  Biso   1.000  C
  C139     1.0000 0.16338  0.41056  0.36997  Biso   1.000  C
  O45      1.0000 0.05849  0.29932  0.48713  Biso   1.000  O
  N93      1.0000 0.13375  0.32811  0.47346  Biso   1.000  N
  H137     1.0000 0.14418  0.30968  0.33879  Biso   1.000  H
  C140     1.0000 0.16465  0.33949  0.42368  Biso   1.000  C
  C141     1.0000 0.19985  0.46704  0.53577  Biso   1.000  C
  N94      1.0000 0.15761  0.36042  0.57066  Biso   1.000  N
  O46      1.0000 0.09390  0.35027  0.63437  Biso   1.000  O
  C142     1.0000 0.20038  0.38857  0.56849  Biso   1.000  C
  H138     1.0000 0.22180  0.41799  0.65311  Biso   1.000  H
  O47      1.0000 0.17487  0.45027  0.35287  Biso   1.000  O
  N95      1.0000 0.17973  0.38829  0.42092  Biso   1.000  N
  C143     1.0000 0.15130  0.31828  0.53437  Biso   1.000  C
  H139     1.0000 0.19210  0.31740  0.42169  Biso   1.000  H
  N96      1.0000 0.20207  0.42081  0.51781  Biso   1.000  N
  O48      1.0000 0.20267  0.50164  0.50233  Biso   1.000  O
  H140     1.0000 0.22938  0.36870  0.57120  Biso   1.000  H
  C144     1.0000 0.21722  0.40767  0.45789  Biso   1.000  C
  H141     1.0000 0.12889  0.29710  0.55518  Biso   1.000  H
  H142     1.0000 0.18188  0.30161  0.53129  Biso   1.000  H
  H143     1.0000 0.24280  0.38409  0.46129  Biso   1.000  H
  H144     1.0000 0.23040  0.43578  0.43740  Biso   1.000  H
  C145     1.0000 0.73916  0.45210  0.61781  Biso   1.000  C
  N97      1.0000 0.72288  0.41080  0.58546  Biso   1.000  N
  N98      1.0000 0.78158  0.44378  0.65274  Biso   1.000  N
  H145     1.0000 0.74529  0.47768  0.58840  Biso   1.000  H
  H146     1.0000 0.71389  0.46288  0.64537  Biso   1.000  H
  C146     1.0000 0.67894  0.39206  0.59528  Biso   1.000  C
  C147     1.0000 0.74187  0.39720  0.52704  Biso   1.000  C
  C148     1.0000 0.82844  0.44502  0.62596  Biso   1.000  C
  C149     1.0000 0.78295  0.44984  0.71420  Biso   1.000  C
  N99      1.0000 0.66798  0.36292  0.54763  Biso   1.000  N
  O49      1.0000 0.65354  0.39995  0.63890  Biso   1.000  O
  C150     1.0000 0.70477  0.36299  0.50210  Biso   1.000  C
  N100     1.0000 0.78387  0.36831  0.53034  Biso   1.000  N
  H147     1.0000 0.74638  0.42500  0.49989  Biso   1.000  H
  N101     1.0000 0.84271  0.40062  0.59921  Biso   1.000  N
  C151     1.0000 0.86139  0.45041  0.68148  Biso   1.000  C
  H148     1.0000 0.83200  0.47179  0.59690  Biso   1.000  H
  O50      1.0000 0.74835  0.45270  0.74768  Biso   1.000  O
  N102     1.0000 0.82918  0.45210  0.73216  Biso   1.000  N
  C152     1.0000 0.62049  0.34636  0.53649  Biso   1.000  C
  N103     1.0000 0.72992  0.31891  0.49676  Biso   1.000  N
  H149     1.0000 0.69247  0.37370  0.46201  Biso   1.000  H
  C153     1.0000 0.77643  0.32342  0.51111  Biso   1.000  C
  C154     1.0000 0.83137  0.38808  0.53717  Biso   1.000  C
  C155     1.0000 0.87911  0.38032  0.62989  Biso   1.000  C
  N104     1.0000 0.88957  0.40760  0.67935  Biso   1.000  N
  H150     1.0000 0.88129  0.47941  0.67881  Biso   1.000  H
  C156     1.0000 0.84229  0.46725  0.79207  Biso   1.000  C
  N105     1.0000 0.61541  0.29576  0.54423  Biso   1.000  N
  H151     1.0000 0.59868  0.36260  0.56451  Biso   1.000  H
  H152     1.0000 0.61129  0.35489  0.49468  Biso   1.000  H
  C157     1.0000 0.71196  0.27920  0.46170  Biso   1.000  C
  O51      1.0000 0.80663  0.29213  0.50672  Biso   1.000  O
  H153     1.0000 0.83408  0.41648  0.51147  Biso   1.000  H
  H154     1.0000 0.85469  0.36479  0.52260  Biso   1.000  H
  O52      1.0000 0.89969  0.34389  0.61564  Biso   1.000  O
  C158     1.0000 0.93168  0.40129  0.71560  Biso   1.000  C
  N106     1.0000 0.86170  0.42972  0.82909  Biso   1.000  N
  H155     1.0000 0.86590  0.49279  0.78868  Biso   1.000  H
  H156     1.0000 0.81417  0.48039  0.81257  Biso   1.000  H
  C159     1.0000 0.58726  0.27624  0.58749  Biso   1.000  C
  C160     1.0000 0.62827  0.26243  0.49740  Biso   1.000  C
  N107     1.0000 0.67771  0.25101  0.49459  Biso   1.000  N
  H157     1.0000 0.73870  0.25880  0.44979  Biso   1.000  H
  H158     1.0000 0.69709  0.29129  0.42427  Biso   1.000  H
  N108     1.0000 0.92185  0.38378  0.77655  Biso   1.000  N
  H159     1.0000 0.95289  0.37888  0.69478  Biso   1.000  H
  H160     1.0000 0.94838  0.43191  0.71868  Biso   1.000  H
  C161     1.0000 0.91047  0.41468  0.82633  Biso   1.000  C
  C162     1.0000 0.83943  0.41338  0.87999  Biso   1.000  C
  N109     1.0000 0.58261  0.22920  0.57573  Biso   1.000  N
  O53      1.0000 0.56844  0.29710  0.62985  Biso   1.000  O
  C163     1.0000 0.60519  0.21553  0.51907  Biso   1.000  C
  H161     1.0000 0.61591  0.27229  0.45699  Biso   1.000  H
  C164     1.0000 0.68645  0.20489  0.50907  Biso   1.000  C
  C165     1.0000 0.93517  0.34026  0.79538  Biso   1.000  C
  C166     1.0000 0.91558  0.38230  0.88266  Biso   1.000  C
  H162     1.0000 0.93260  0.44209  0.82827  Biso   1.000  H
  O54      1.0000 0.79969  0.42486  0.89714  Biso   1.000  O
  N110     1.0000 0.86945  0.38364  0.90959  Biso   1.000  N
  C167     1.0000 0.54928  0.19964  0.60727  Biso   1.000  C
  N111     1.0000 0.64504  0.18428  0.52600  Biso   1.000  N
  H163     1.0000 0.58190  0.20320  0.48898  Biso   1.000  H
  O55      1.0000 0.72527  0.18526  0.50645  Biso   1.000  O
  O56      1.0000 0.95064  0.30848  0.76284  Biso   1.000  O
  N112     1.0000 0.92858  0.33709  0.85683  Biso   1.000  N
  H164     1.0000 0.94028  0.39421  0.91117  Biso   1.000  H
  C168     1.0000 0.86015  0.36665  0.97036  Biso   1.000  C
  N113     1.0000 0.57137  0.16289  0.64315  Biso   1.000  N
  H165     1.0000 0.52799  0.18481  0.57731  Biso   1.000  H
  H166     1.0000 0.52979  0.21958  0.63419  Biso   1.000  H
  C169     1.0000 0.63979  0.13333  0.52962  Biso   1.000  C
  C170     1.0000 0.95067  0.30038  0.89266  Biso   1.000  C
  N114     1.0000 0.85490  0.31570  0.97398  Biso   1.000  N
  H167     1.0000 0.88637  0.37648  0.99710  Biso   1.000  H
  H168     1.0000 0.83098  0.38170  0.98556  Biso   1.000  H
  C171     1.0000 0.56481  0.15975  0.70460  Biso   1.000  C
  C172     1.0000 0.58441  0.11768  0.61727  Biso   1.000  C
  N115     1.0000 0.63053  0.11638  0.59039  Biso   1.000  N
  H169     1.0000 0.61358  0.12350  0.50287  Biso   1.000  H
  H170     1.0000 0.66900  0.11828  0.51441  Biso   1.000  H
  N116     1.0000 0.91734  0.27081  0.92425  Biso   1.000  N
  H171     1.0000 0.97199  0.31521  0.92267  Biso   1.000  H
  H172     1.0000 0.97019  0.28040  0.86579  Biso   1.000  H
  C173     1.0000 0.81354  0.29513  0.99090  Biso   1.000  C
  C174     1.0000 0.89475  0.28449  0.98090  Biso   1.000  C
  O57      1.0000 0.54935  0.19150  0.73714  Biso   1.000  O
  N117     1.0000 0.57813  0.11624  0.72343  Biso   1.000  N
  H173     1.0000 0.55971  0.10581  0.58880  Biso   1.000  H
  C175     1.0000 0.58948  0.08534  0.67365  Biso   1.000  C
  C176     1.0000 0.66055  0.08661  0.61998  Biso   1.000  C
  C177     1.0000 0.91272  0.22374  0.91248  Biso   1.000  C
  N118     1.0000 0.82228  0.24897  0.00543  Biso   1.000  N
  O58      1.0000 0.77471  0.31472  0.99348  Biso   1.000  O
  C178     1.0000 0.87171  0.23755  0.00262  Biso   1.000  C
  H174     1.0000 0.91808  0.29678  0.01100  Biso   1.000  H
  C179     1.0000 0.56827  0.09869  0.78438  Biso   1.000  C
  N119     1.0000 0.63828  0.07029  0.67089  Biso   1.000  N
  H175     1.0000 0.56739  0.05789  0.67170  Biso   1.000  H
  O59      1.0000 0.70026  0.07512  0.60283  Biso   1.000  O
  N120     1.0000 0.88454  0.20422  0.95574  Biso   1.000  N
  O60      1.0000 0.93154  0.20288  0.87013  Biso   1.000  O
  C180     1.0000 0.78803  0.22078  0.03828  Biso   1.000  C
  H176     1.0000 0.88408  0.22769  0.04299  Biso   1.000  H
  N121     1.0000 0.61041  0.09239  0.82063  Biso   1.000  N
  H177     1.0000 0.54709  0.12110  0.80519  Biso   1.000  H
  H178     1.0000 0.55160  0.06811  0.78130  Biso   1.000  H
  C181     1.0000 0.65769  0.03277  0.70791  Biso   1.000  C
  C182     1.0000 0.87946  0.15362  0.96348  Biso   1.000  C
  N122     1.0000 0.77006  0.18107  0.00326  Biso   1.000  N
  H179     1.0000 0.76128  0.24118  0.05018  Biso   1.000  H
  H180     1.0000 0.80290  0.20870  0.07570  Biso   1.000  H
  C183     1.0000 0.62084  0.11969  0.87008  Biso   1.000  C
  C184     1.0000 0.63860  0.04961  0.81850  Biso   1.000  C
  N123     1.0000 0.67080  0.04792  0.76782  Biso   1.000  N
  H181     1.0000 0.63409  0.00719  0.71130  Biso   1.000  H
  H182     1.0000 0.68578  0.01959  0.68741  Biso   1.000  H
  N124     1.0000 0.83200  0.13706  0.95235  Biso   1.000  N
  H183     1.0000 0.90127  0.13738  0.93547  Biso   1.000  H
  H184     1.0000 0.88869  0.14510  0.00529  Biso   1.000  H
  C185     1.0000 0.72355  0.17656  0.98887  Biso   1.000  C
  C186     1.0000 0.79522  0.13703  0.99787  Biso   1.000  C
  O61      1.0000 0.60030  0.15609  0.88434  Biso   1.000  O
  N125     1.0000 0.65727  0.09936  0.90076  Biso   1.000  N
  H185     1.0000 0.61869  0.02061  0.82117  Biso   1.000  H
  C187     1.0000 0.67154  0.05497  0.87402  Biso   1.000  C
  C188     1.0000 0.71703  0.05014  0.78578  Biso   1.000  C
  C189     1.0000 0.82104  0.10792  0.90470  Biso   1.000  C
  N126     1.0000 0.71611  0.13171  0.96964  Biso   1.000  N
  O62      1.0000 0.69335  0.20785  0.99326  Biso   1.000  O
  C190     1.0000 0.75808  0.10278  0.97294  Biso   1.000  C
  H186     1.0000 0.80748  0.12628  0.03801  Biso   1.000  H
  C191     1.0000 0.66862  0.11191  0.96280  Biso   1.000  C
  N127     1.0000 0.71840  0.05620  0.84723  Biso   1.000  N
  H187     1.0000 0.66798  0.02819  0.90307  Biso   1.000  H
  O63      1.0000 0.75163  0.04732  0.75230  Biso   1.000  O
  N128     1.0000 0.77707  0.08918  0.91452  Biso   1.000  N
  O64      1.0000 0.84641  0.10003  0.86108  Biso   1.000  O
  H188     1.0000 0.75360  0.07501  0.00009  Biso   1.000  H
  H189     1.0000 0.66590  0.08351  0.98846  Biso   1.000  H
  H190     1.0000 0.64529  0.13520  0.97737  Biso   1.000  H
  C192     1.0000 0.76083  0.04788  0.88217  Biso   1.000  C
  H191     1.0000 0.75470  0.02230  0.91158  Biso   1.000  H
  H192     1.0000 0.78609  0.03710  0.85456  Biso   1.000  H
  C193     1.0000 0.37948  0.65361  0.46351  Biso   1.000  C
  N129     1.0000 0.33198  0.63705  0.45237  Biso   1.000  N
  N130     1.0000 0.38455  0.70424  0.45577  Biso   1.000  N
  H193     1.0000 0.40129  0.63740  0.43549  Biso   1.000  H
  H194     1.0000 0.38871  0.64508  0.50527  Biso   1.000  H
  C194     1.0000 0.32102  0.60791  0.40468  Biso   1.000  C
  C195     1.0000 0.29523  0.63701  0.49790  Biso   1.000  C
  C196     1.0000 0.41274  0.72372  0.41251  Biso   1.000  C
  C197     1.0000 0.37173  0.73754  0.50260  Biso   1.000  C
  N131     1.0000 0.27709  0.58916  0.41450  Biso   1.000  N
  O65      1.0000 0.34643  0.60001  0.36110  Biso   1.000  O
  C198     1.0000 0.25810  0.60276  0.47296  Biso   1.000  C
  N132     1.0000 0.27008  0.68109  0.50324  Biso   1.000  N
  H195     1.0000 0.30749  0.62630  0.53799  Biso   1.000  H
  O66      1.0000 0.43156  0.70290  0.37015  Biso   1.000  O
  N133     1.0000 0.41736  0.77080  0.42427  Biso   1.000  N
  N134     1.0000 0.32229  0.74899  0.50541  Biso   1.000  N
  H196     1.0000 0.38409  0.72767  0.54301  Biso   1.000  H
  C199     1.0000 0.39477  0.78447  0.48088  Biso   1.000  C
  C200     1.0000 0.26084  0.54787  0.38219  Biso   1.000  C
  N135     1.0000 0.21613  0.63169  0.46961  Biso   1.000  N
  H197     1.0000 0.25359  0.57500  0.50011  Biso   1.000  H
  C201     1.0000 0.22357  0.67654  0.48885  Biso   1.000  C
  C202     1.0000 0.28804  0.72076  0.53830  Biso   1.000  C
  C203     1.0000 0.45069  0.80036  0.39269  Biso   1.000  C
  C204     1.0000 0.31355  0.79511  0.49093  Biso   1.000  C
  N136     1.0000 0.35492  0.81569  0.47400  Biso   1.000  N
  H198     1.0000 0.41810  0.79680  0.51097  Biso   1.000  H
  N137     1.0000 0.21842  0.55622  0.34726  Biso   1.000  N
  H199     1.0000 0.25471  0.52229  0.41160  Biso   1.000  H
  H200     1.0000 0.28611  0.53708  0.35459  Biso   1.000  H
  C205     1.0000 0.16863  0.61192  0.46278  Biso   1.000  C
  O67      1.0000 0.19337  0.70783  0.49323  Biso   1.000  O
  H201     1.0000 0.26130  0.74120  0.55021  Biso   1.000  H
  H202     1.0000 0.30288  0.70868  0.57568  Biso   1.000  H
  N138     1.0000 0.42860  0.83707  0.35685  Biso   1.000  N
  H203     1.0000 0.47201  0.81519  0.42269  Biso   1.000  H
  H204     1.0000 0.47021  0.78038  0.36581  Biso   1.000  H
  O68      1.0000 0.27473  0.81470  0.49351  Biso   1.000  O
  C206     1.0000 0.36017  0.86664  0.47038  Biso   1.000  C
  C207     1.0000 0.21701  0.55012  0.28580  Biso   1.000  C
  C208     1.0000 0.17152  0.55495  0.37404  Biso   1.000  C
  N139     1.0000 0.15725  0.59938  0.40079  Biso   1.000  N
  H205     1.0000 0.16589  0.58349  0.48848  Biso   1.000  H
  H206     1.0000 0.14531  0.63518  0.47740  Biso   1.000  H
  C209     1.0000 0.43519  0.84025  0.29540  Biso   1.000  C
  C210     1.0000 0.41559  0.88228  0.38269  Biso   1.000  C
  N140     1.0000 0.36947  0.88362  0.40961  Biso   1.000  N
  H207     1.0000 0.38639  0.87650  0.49708  Biso   1.000  H
  H208     1.0000 0.33100  0.88168  0.48559  Biso   1.000  H
  O69      1.0000 0.25161  0.54730  0.25232  Biso   1.000  O
  N141     1.0000 0.17082  0.54790  0.26779  Biso   1.000  N
  C211     1.0000 0.13858  0.54959  0.31852  Biso   1.000  C
  H209     1.0000 0.16800  0.52821  0.40310  Biso   1.000  H
  C212     1.0000 0.12086  0.61968  0.37011  Biso   1.000  C
  O70      1.0000 0.45065  0.80846  0.26286  Biso   1.000  O
  N142     1.0000 0.42187  0.88376  0.27653  Biso   1.000  N
  H210     1.0000 0.44029  0.89419  0.41120  Biso   1.000  H
  C213     1.0000 0.41049  0.91466  0.32630  Biso   1.000  C
  C214     1.0000 0.33945  0.91336  0.37997  Biso   1.000  C
  C215     1.0000 0.15768  0.53275  0.20793  Biso   1.000  C
  N143     1.0000 0.11043  0.59237  0.32065  Biso   1.000  N
  H211     1.0000 0.11871  0.52059  0.32119  Biso   1.000  H
  O71      1.0000 0.10028  0.65607  0.38436  Biso   1.000  O
  C216     1.0000 0.43170  0.90127  0.21558  Biso   1.000  C
  N144     1.0000 0.36172  0.92971  0.32906  Biso   1.000  N
  H212     1.0000 0.43258  0.94207  0.32830  Biso   1.000  H
  O72      1.0000 0.29971  0.92488  0.39712  Biso   1.000  O
  N145     1.0000 0.13830  0.57028  0.17091  Biso   1.000  N
  H213     1.0000 0.13410  0.50721  0.21128  Biso   1.000  H
  H214     1.0000 0.18579  0.51961  0.18738  Biso   1.000  H
  C217     1.0000 0.06829  0.59868  0.28440  Biso   1.000  C
  N146     1.0000 0.38956  0.90758  0.17933  Biso   1.000  N
  H215     1.0000 0.45291  0.87890  0.19481  Biso   1.000  H
  H216     1.0000 0.44840  0.93189  0.21870  Biso   1.000  H
  C218     1.0000 0.34231  0.96723  0.29209  Biso   1.000  C
  C219     1.0000 0.08950  0.58532  0.17367  Biso   1.000  C
  C220     1.0000 0.16053  0.58662  0.12001  Biso   1.000  C
  N147     1.0000 0.07812  0.61622  0.22345  Biso   1.000  N
  H217     1.0000 0.04711  0.62108  0.30517  Biso   1.000  H
  H218     1.0000 0.05158  0.56809  0.28128  Biso   1.000  H
  C221     1.0000 0.37913  0.88031  0.12992  Biso   1.000  C
  C222     1.0000 0.36140  0.95039  0.18146  Biso   1.000  C
  N148     1.0000 0.32916  0.95208  0.23218  Biso   1.000  N
  H219     1.0000 0.36588  0.99278  0.28870  Biso   1.000  H
  H220     1.0000 0.31419  0.98037  0.31259  Biso   1.000  H
  C223     1.0000 0.08439  0.61770  0.11729  Biso   1.000  C
  H221     1.0000 0.06740  0.55787  0.17168  Biso   1.000  H
  O73      1.0000 0.20027  0.57510  0.10286  Biso   1.000  O
  N149     1.0000 0.13055  0.61636  0.09037  Biso   1.000  N
  C224     1.0000 0.06483  0.65974  0.20458  Biso   1.000  C
  N150     1.0000 0.34273  0.90060  0.09919  Biso   1.000  N
  O74      1.0000 0.39970  0.84387  0.11562  Biso   1.000  O
  C225     1.0000 0.32846  0.94500  0.12598  Biso   1.000  C
  H222     1.0000 0.38128  0.97939  0.17879  Biso   1.000  H
  C226     1.0000 0.28297  0.94986  0.21422  Biso   1.000  C
  N151     1.0000 0.07139  0.66291  0.14317  Biso   1.000  N
  H223     1.0000 0.05969  0.60579  0.08878  Biso   1.000  H
  C227     1.0000 0.13981  0.63335  0.02964  Biso   1.000  C
  O75      1.0000 0.04933  0.69148  0.23716  Biso   1.000  O
  C228     1.0000 0.33135  0.88806  0.03720  Biso   1.000  C
  N152     1.0000 0.28156  0.94377  0.15277  Biso   1.000  N
  H224     1.0000 0.33198  0.97178  0.09688  Biso   1.000  H
  O76      1.0000 0.24837  0.95268  0.24766  Biso   1.000  O
  C229     1.0000 0.04929  0.69962  0.10729  Biso   1.000  C
  N153     1.0000 0.14506  0.68426  0.02602  Biso   1.000  N
  H225     1.0000 0.11360  0.62348  0.00290  Biso   1.000  H
  H226     1.0000 0.16899  0.61830  0.01439  Biso   1.000  H
  N154     1.0000 0.28389  0.86829  0.03036  Biso   1.000  N
  H227     1.0000 0.33410  0.91649  0.01149  Biso   1.000  H
  H228     1.0000 0.35471  0.86477  0.02258  Biso   1.000  H
  C230     1.0000 0.23914  0.95212  0.11779  Biso   1.000  C
  N155     1.0000 0.08263  0.72919  0.07575  Biso   1.000  N
  H229     1.0000 0.02801  0.68479  0.07729  Biso   1.000  H
  H230     1.0000 0.02981  0.71960  0.13421  Biso   1.000  H
  C231     1.0000 0.10521  0.71551  0.01910  Biso   1.000  C
  C232     1.0000 0.18646  0.70487  0.00905  Biso   1.000  C
  C233     1.0000 0.27645  0.82340  0.01113  Biso   1.000  C
  C234     1.0000 0.24189  0.89718  0.02706  Biso   1.000  C
  N156     1.0000 0.22290  0.91082  0.08548  Biso   1.000  N
  H231     1.0000 0.24530  0.97770  0.08842  Biso   1.000  H
  H232     1.0000 0.21391  0.96290  0.14539  Biso   1.000  H
  C235     1.0000 0.08724  0.77626  0.08752  Biso   1.000  C
  C236     1.0000 0.12825  0.76241  0.99738  Biso   1.000  C
  H233     1.0000 0.08189  0.70318  0.98900  Biso   1.000  H
  O77      1.0000 0.22526  0.68528  0.00647  Biso   1.000  O
  N157     1.0000 0.17769  0.75100  0.99457  Biso   1.000  N
  N158     1.0000 0.22994  0.81889  0.99674  Biso   1.000  N
  O78      1.0000 0.30665  0.79215  0.00674  Biso   1.000  O
  C237     1.0000 0.20475  0.86297  0.00208  Biso   1.000  C
  H234     1.0000 0.24640  0.92499  0.99986  Biso   1.000  H
  C238     1.0000 0.17896  0.89204  0.09530  Biso   1.000  C
  O79      1.0000 0.06843  0.79708  0.12982  Biso   1.000  O
  N159     1.0000 0.11543  0.79574  0.04426  Biso   1.000  N
  H235     1.0000 0.11589  0.77228  0.95697  Biso   1.000  H
  C239     1.0000 0.21197  0.77922  0.96167  Biso   1.000  C
  N160     1.0000 0.16800  0.86290  0.04765  Biso   1.000  N
  H236     1.0000 0.19249  0.87368  0.96199  Biso   1.000  H
  O80      1.0000 0.15355  0.89997  0.13888  Biso   1.000  O
  C240     1.0000 0.12050  0.84634  0.03652  Biso   1.000  C
  H237     1.0000 0.23868  0.75878  0.94977  Biso   1.000  H
  H238     1.0000 0.19710  0.79127  0.92430  Biso   1.000  H
  H239     1.0000 0.09869  0.86258  0.06448  Biso   1.000  H
  H240     1.0000 0.11131  0.85487  0.99466  Biso   1.000  H
  C241     1.0000 0.41049  0.41468  0.67365  Biso   1.000  C
  C242     1.0000 0.41559  0.38230  0.61727  Biso   1.000  C
  N161     1.0000 0.36172  0.42972  0.67089  Biso   1.000  N
  N162     1.0000 0.42187  0.38378  0.72343  Biso   1.000  N
  H241     1.0000 0.43258  0.44209  0.67170  Biso   1.000  H
  N163     1.0000 0.36947  0.38364  0.59039  Biso   1.000  N
  N164     1.0000 0.42860  0.33709  0.64315  Biso   1.000  N
  H242     1.0000 0.44029  0.39421  0.58880  Biso   1.000  H
  C243     1.0000 0.33945  0.41338  0.61998  Biso   1.000  C
  C244     1.0000 0.34231  0.46725  0.70791  Biso   1.000  C
  C245     1.0000 0.43519  0.34026  0.70460  Biso   1.000  C
  C246     1.0000 0.43170  0.40129  0.78438  Biso   1.000  C
  C247     1.0000 0.36017  0.36665  0.52962  Biso   1.000  C
  C248     1.0000 0.45069  0.30038  0.60727  Biso   1.000  C
  O81      1.0000 0.29971  0.42486  0.60283  Biso   1.000  O
  N165     1.0000 0.32916  0.45210  0.76782  Biso   1.000  N
  H243     1.0000 0.36588  0.49279  0.71130  Biso   1.000  H
  H244     1.0000 0.31419  0.48039  0.68741  Biso   1.000  H
  O82      1.0000 0.45065  0.30848  0.73714  Biso   1.000  O
  N166     1.0000 0.38956  0.40760  0.82063  Biso   1.000  N
  H245     1.0000 0.45291  0.37888  0.80519  Biso   1.000  H
  H246     1.0000 0.44840  0.43191  0.78130  Biso   1.000  H
  N167     1.0000 0.35492  0.31570  0.52600  Biso   1.000  N
  H247     1.0000 0.38639  0.37648  0.50287  Biso   1.000  H
  H248     1.0000 0.33100  0.38170  0.51441  Biso   1.000  H
  N168     1.0000 0.41736  0.27081  0.57573  Biso   1.000  N
  H249     1.0000 0.47201  0.31521  0.57731  Biso   1.000  H
  H250     1.0000 0.47021  0.28040  0.63419  Biso   1.000  H
  C249     1.0000 0.36140  0.45041  0.81850  Biso   1.000  C
  C250     1.0000 0.28297  0.44984  0.78578  Biso   1.000  C
  C251     1.0000 0.37913  0.38032  0.87008  Biso   1.000  C
  C252     1.0000 0.31355  0.29513  0.50907  Biso   1.000  C
  C253     1.0000 0.39477  0.28449  0.51907  Biso   1.000  C
  C254     1.0000 0.41274  0.22374  0.58749  Biso   1.000  C
  H251     1.0000 0.38128  0.47941  0.82117  Biso   1.000  H
  C255     1.0000 0.32846  0.44502  0.87402  Biso   1.000  C
  O83      1.0000 0.24837  0.45270  0.75230  Biso   1.000  O
  N169     1.0000 0.28156  0.44378  0.84723  Biso   1.000  N
  O84      1.0000 0.39970  0.34389  0.88434  Biso   1.000  O
  N170     1.0000 0.34273  0.40062  0.90076  Biso   1.000  N
  N171     1.0000 0.32229  0.24897  0.49459  Biso   1.000  N
  O85      1.0000 0.27473  0.31472  0.50645  Biso   1.000  O
  C256     1.0000 0.37173  0.23755  0.49740  Biso   1.000  C
  H252     1.0000 0.41810  0.29678  0.48898  Biso   1.000  H
  N172     1.0000 0.38455  0.20422  0.54423  Biso   1.000  N
  O86      1.0000 0.43156  0.20288  0.62985  Biso   1.000  O
  H253     1.0000 0.33198  0.47179  0.90307  Biso   1.000  H
  C257     1.0000 0.23914  0.45210  0.88217  Biso   1.000  C
  C258     1.0000 0.33135  0.38808  0.96280  Biso   1.000  C
  C259     1.0000 0.28804  0.22078  0.46170  Biso   1.000  C
  H254     1.0000 0.38409  0.22769  0.45699  Biso   1.000  H
  C260     1.0000 0.37948  0.15362  0.53649  Biso   1.000  C
  N173     1.0000 0.22290  0.41080  0.91452  Biso   1.000  N
  H255     1.0000 0.24530  0.47768  0.91158  Biso   1.000  H
  H256     1.0000 0.21391  0.46288  0.85456  Biso   1.000  H
  N174     1.0000 0.28389  0.36831  0.96964  Biso   1.000  N
  H257     1.0000 0.33410  0.41648  0.98846  Biso   1.000  H
  H258     1.0000 0.35471  0.36479  0.97737  Biso   1.000  H
  N175     1.0000 0.27008  0.18107  0.49676  Biso   1.000  N
  H259     1.0000 0.26130  0.24118  0.44979  Biso   1.000  H
  H260     1.0000 0.30288  0.20870  0.42427  Biso   1.000  H
  N176     1.0000 0.33198  0.13706  0.54763  Biso   1.000  N
  H261     1.0000 0.40129  0.13738  0.56451  Biso   1.000  H
  H262     1.0000 0.38871  0.14510  0.49468  Biso   1.000  H
  C261     1.0000 0.24189  0.39720  0.97294  Biso   1.000  C
  C262     1.0000 0.17896  0.39206  0.90470  Biso   1.000  C
  C263     1.0000 0.27645  0.32342  0.98887  Biso   1.000  C
  C264     1.0000 0.22357  0.17656  0.51111  Biso   1.000  C
  C265     1.0000 0.29523  0.13703  0.50210  Biso   1.000  C
  C266     1.0000 0.32102  0.10792  0.59528  Biso   1.000  C
  C267     1.0000 0.20475  0.36299  0.99787  Biso   1.000  C
  H263     1.0000 0.24640  0.42500  0.00009  Biso   1.000  H
  O87      1.0000 0.15355  0.39995  0.86108  Biso   1.000  O
  N177     1.0000 0.16800  0.36292  0.95235  Biso   1.000  N
  O88      1.0000 0.30665  0.29213  0.99326  Biso   1.000  O
  N178     1.0000 0.22994  0.31891  0.00326  Biso   1.000  N
  O89      1.0000 0.19337  0.20785  0.50672  Biso   1.000  O
  N179     1.0000 0.21613  0.13171  0.53034  Biso   1.000  N
  C268     1.0000 0.25810  0.10278  0.52704  Biso   1.000  C
  H264     1.0000 0.30749  0.12628  0.46201  Biso   1.000  H
  N180     1.0000 0.27709  0.08918  0.58546  Biso   1.000  N
  O90      1.0000 0.34643  0.10003  0.63890  Biso   1.000  O
  H265     1.0000 0.19249  0.37370  0.03801  Biso   1.000  H
  C269     1.0000 0.12050  0.34636  0.96348  Biso   1.000  C
  C270     1.0000 0.21197  0.27920  0.03828  Biso   1.000  C
  C271     1.0000 0.16863  0.11191  0.53717  Biso   1.000  C
  H266     1.0000 0.25359  0.07501  0.49989  Biso   1.000  H
  C272     1.0000 0.26084  0.04788  0.61781  Biso   1.000  C
  N181     1.0000 0.11543  0.29576  0.95574  Biso   1.000  N
  H267     1.0000 0.09869  0.36260  0.93547  Biso   1.000  H
  H268     1.0000 0.11131  0.35489  0.00529  Biso   1.000  H
  N182     1.0000 0.17769  0.25101  0.00543  Biso   1.000  N
  H269     1.0000 0.23868  0.25880  0.05018  Biso   1.000  H
  H270     1.0000 0.19710  0.29129  0.07570  Biso   1.000  H
  N183     1.0000 0.15725  0.09936  0.59921  Biso   1.000  N
  H271     1.0000 0.16589  0.08351  0.51147  Biso   1.000  H
  H272     1.0000 0.14531  0.13520  0.52260  Biso   1.000  H
  N184     1.0000 0.21842  0.05620  0.65274  Biso   1.000  N
  H273     1.0000 0.25471  0.02230  0.58840  Biso   1.000  H
  H274     1.0000 0.28611  0.03710  0.64537  Biso   1.000  H
  C273     1.0000 0.08724  0.27624  0.91248  Biso   1.000  C
  C274     1.0000 0.12825  0.26243  0.00262  Biso   1.000  C
  C275     1.0000 0.18646  0.20489  0.99090  Biso   1.000  C
  C276     1.0000 0.12086  0.11969  0.62989  Biso   1.000  C
  C277     1.0000 0.17152  0.05497  0.62596  Biso   1.000  C
  C278     1.0000 0.21701  0.05014  0.71420  Biso   1.000  C
  N185     1.0000 0.08263  0.22920  0.92425  Biso   1.000  N
  O91      1.0000 0.06843  0.29710  0.87013  Biso   1.000  O
  C279     1.0000 0.10521  0.21553  0.98090  Biso   1.000  C
  H275     1.0000 0.11589  0.27229  0.04299  Biso   1.000  H
  N186     1.0000 0.14506  0.18428  0.97398  Biso   1.000  N
  O92      1.0000 0.22526  0.18526  0.99348  Biso   1.000  O
  O93      1.0000 0.10028  0.15609  0.61564  Biso   1.000  O
  N187     1.0000 0.11043  0.09239  0.67935  Biso   1.000  N
  C280     1.0000 0.13858  0.04961  0.68148  Biso   1.000  C
  H276     1.0000 0.16800  0.02819  0.59690  Biso   1.000  H
  N188     1.0000 0.17082  0.04792  0.73216  Biso   1.000  N
  O94      1.0000 0.25161  0.04732  0.74768  Biso   1.000  O
  C281     1.0000 0.04929  0.19964  0.89266  Biso   1.000  C
  H277     1.0000 0.08189  0.20320  0.01100  Biso   1.000  H
  C282     1.0000 0.13981  0.13333  0.97036  Biso   1.000  C
  C283     1.0000 0.06829  0.09869  0.71560  Biso   1.000  C
  H278     1.0000 0.11871  0.02061  0.67881  Biso   1.000  H
  C284     1.0000 0.15768  0.03277  0.79207  Biso   1.000  C
  N189     1.0000 0.07139  0.16289  0.85683  Biso   1.000  N
  H279     1.0000 0.02801  0.18481  0.92267  Biso   1.000  H
  H280     1.0000 0.02981  0.21958  0.86579  Biso   1.000  H
  N190     1.0000 0.13055  0.11638  0.90959  Biso   1.000  N
  H281     1.0000 0.11360  0.12350  0.99710  Biso   1.000  H
  H282     1.0000 0.16899  0.11828  0.98556  Biso   1.000  H
  N191     1.0000 0.07812  0.11624  0.77655  Biso   1.000  N
  H283     1.0000 0.04711  0.12110  0.69478  Biso   1.000  H
  H284     1.0000 0.05158  0.06811  0.71868  Biso   1.000  H
  N192     1.0000 0.13830  0.07029  0.82909  Biso   1.000  N
  H285     1.0000 0.13410  0.00719  0.78868  Biso   1.000  H
  H286     1.0000 0.18579  0.01959  0.81257  Biso   1.000  H
  C285     1.0000 0.06483  0.15975  0.79538  Biso   1.000  C
  C286     1.0000 0.08439  0.11768  0.88266  Biso   1.000  C
  C287     1.0000 0.16053  0.08661  0.87999  Biso   1.000  C
  C288     1.0000 0.08950  0.08534  0.82633  Biso   1.000  C
  O95      1.0000 0.04933  0.19150  0.76284  Biso   1.000  O
  H287     1.0000 0.05969  0.10581  0.91117  Biso   1.000  H
  O96      1.0000 0.20027  0.07512  0.89714  Biso   1.000  O
  H288     1.0000 0.06740  0.05789  0.82827  Biso   1.000  H
  C289     1.0000 0.55037  0.79930  0.85728  Biso   1.000  C
  N193     1.0000 0.52081  0.83260  0.82574  Biso   1.000  N
  N194     1.0000 0.58708  0.82136  0.89316  Biso   1.000  N
  H289     1.0000 0.56520  0.77799  0.82728  Biso   1.000  H
  H290     1.0000 0.53039  0.77978  0.88420  Biso   1.000  H
  C290     1.0000 0.47373  0.83725  0.83750  Biso   1.000  C
  C291     1.0000 0.53448  0.85522  0.76908  Biso   1.000  C
  C292     1.0000 0.59025  0.81481  0.95457  Biso   1.000  C
  C293     1.0000 0.63229  0.83440  0.86728  Biso   1.000  C
  N195     1.0000 0.45425  0.86544  0.79424  Biso   1.000  N
  O97      1.0000 0.45291  0.81843  0.87981  Biso   1.000  O
  C294     1.0000 0.48754  0.87826  0.74736  Biso   1.000  C
  N196     1.0000 0.56570  0.89507  0.77601  Biso   1.000  N
  H291     1.0000 0.54677  0.83189  0.73899  Biso   1.000  H
  O98      1.0000 0.55847  0.79934  0.98715  Biso   1.000  O
  N197     1.0000 0.63377  0.82812  0.97344  Biso   1.000  N
  N198     1.0000 0.63363  0.88052  0.84035  Biso   1.000  N
  H292     1.0000 0.64420  0.80970  0.83877  Biso   1.000  H
  C295     1.0000 0.66467  0.83947  0.92366  Biso   1.000  C
  C296     1.0000 0.40362  0.87051  0.78651  Biso   1.000  C
  N199     1.0000 0.49900  0.92770  0.74456  Biso   1.000  N
  H293     1.0000 0.47768  0.86590  0.70700  Biso   1.000  H
  C297     1.0000 0.54512  0.93644  0.75904  Biso   1.000  C
  C298     1.0000 0.61664  0.88982  0.77963  Biso   1.000  C
  C299     1.0000 0.65128  0.81826  0.03439  Biso   1.000  C
  C300     1.0000 0.66337  0.91054  0.86999  Biso   1.000  C
  N200     1.0000 0.67972  0.88827  0.92090  Biso   1.000  N
  H294     1.0000 0.69208  0.81738  0.92167  Biso   1.000  H
  N201     1.0000 0.38705  0.91797  0.79764  Biso   1.000  N
  H295     1.0000 0.38741  0.84870  0.81447  Biso   1.000  H
  H296     1.0000 0.39509  0.86128  0.74469  Biso   1.000  H
  C301     1.0000 0.47077  0.96195  0.71171  Biso   1.000  C
  O99      1.0000 0.56471  0.97527  0.75646  Biso   1.000  O
  H297     1.0000 0.62648  0.86357  0.75288  Biso   1.000  H
  H298     1.0000 0.63169  0.91900  0.76438  Biso   1.000  H
  N202     1.0000 0.65759  0.86040  0.07064  Biso   1.000  N
  H299     1.0000 0.62887  0.79708  0.05521  Biso   1.000  H
  H300     1.0000 0.68190  0.80159  0.03131  Biso   1.000  H
  O100     1.0000 0.67485  0.95025  0.85284  Biso   1.000  O
  C302     1.0000 0.71724  0.90768  0.95792  Biso   1.000  C
  C303     1.0000 0.38702  0.95476  0.75207  Biso   1.000  C
  C304     1.0000 0.35792  0.92893  0.84529  Biso   1.000  C
  N203     1.0000 0.43110  0.97992  0.74673  Biso   1.000  N
  H301     1.0000 0.49121  0.98869  0.69981  Biso   1.000  H
  H302     1.0000 0.45869  0.94708  0.67428  Biso   1.000  H
  C305     1.0000 0.63032  0.87083  0.12010  Biso   1.000  C
  C306     1.0000 0.70040  0.88859  0.06851  Biso   1.000  C
  H303     1.0000 0.74279  0.88408  0.96127  Biso   1.000  H
  H304     1.0000 0.73038  0.93577  0.93737  Biso   1.000  H
  N204     1.0000 0.70209  0.92079  0.01783  Biso   1.000  N
  C307     1.0000 0.35277  0.99190  0.77700  Biso   1.000  C
  H305     1.0000 0.37631  0.94250  0.71198  Biso   1.000  H
  O101     1.0000 0.35002  0.90353  0.88886  Biso   1.000  O
  N205     1.0000 0.33917  0.97287  0.83547  Biso   1.000  N
  C308     1.0000 0.42655  0.02643  0.76112  Biso   1.000  C
  O102     1.0000 0.59388  0.85029  0.13435  Biso   1.000  O
  N206     1.0000 0.65061  0.90726  0.15078  Biso   1.000  N
  H306     1.0000 0.72940  0.86868  0.07118  Biso   1.000  H
  C309     1.0000 0.69501  0.92153  0.12403  Biso   1.000  C
  C310     1.0000 0.69983  0.96702  0.03579  Biso   1.000  C
  H307     1.0000 0.32501  0.99637  0.74990  Biso   1.000  H
  N207     1.0000 0.38170  0.03390  0.78035  Biso   1.000  N
  C311     1.0000 0.29788  0.98915  0.86778  Biso   1.000  C
  O103     1.0000 0.45784  0.05662  0.75673  Biso   1.000  O
  C312     1.0000 0.63807  0.91861  0.21282  Biso   1.000  C
  N208     1.0000 0.69377  0.96839  0.09724  Biso   1.000  N
  H308     1.0000 0.72179  0.91797  0.15308  Biso   1.000  H
  O104     1.0000 0.70269  0.00162  0.00231  Biso   1.000  O
  C313     1.0000 0.36190  0.08136  0.78718  Biso   1.000  C
  H309     1.0000 0.27229  0.99528  0.83836  Biso   1.000  H
  H310     1.0000 0.28709  0.96388  0.89538  Biso   1.000  H
  N209     1.0000 0.30619  0.03157  0.90276  Biso   1.000  N
  N210     1.0000 0.61830  0.96610  0.21965  Biso   1.000  N
  H311     1.0000 0.66650  0.91589  0.23852  Biso   1.000  H
  H312     1.0000 0.61478  0.89528  0.22739  Biso   1.000  H
  C314     1.0000 0.70212  0.01085  0.13218  Biso   1.000  C
  N211     1.0000 0.34939  0.09274  0.84918  Biso   1.000  N
  H313     1.0000 0.33350  0.08411  0.76148  Biso   1.000  H
  H314     1.0000 0.38519  0.10468  0.77257  Biso   1.000  H
  C315     1.0000 0.30496  0.07847  0.87592  Biso   1.000  C
  C316     1.0000 0.30013  0.03298  0.96416  Biso   1.000  C
  C317     1.0000 0.57341  0.97354  0.23888  Biso   1.000  C
  C318     1.0000 0.64719  0.00810  0.22295  Biso   1.000  C
  N212     1.0000 0.66079  0.02710  0.16453  Biso   1.000  N
  H315     1.0000 0.72767  0.00469  0.16159  Biso   1.000  H
  H316     1.0000 0.71287  0.03612  0.10462  Biso   1.000  H
  C319     1.0000 0.36968  0.12914  0.87990  Biso   1.000  C
  C320     1.0000 0.29960  0.11141  0.93144  Biso   1.000  C
  H317     1.0000 0.27818  0.08199  0.84687  Biso   1.000  H
  O105     1.0000 0.29731  0.99834  0.99765  Biso   1.000  O
  N213     1.0000 0.29791  0.07917  0.98217  Biso   1.000  N
  O106     1.0000 0.54212  0.94334  0.24327  Biso   1.000  O
  N214     1.0000 0.56890  0.02008  0.25322  Biso   1.000  N
  H318     1.0000 0.67499  0.00359  0.25010  Biso   1.000  H
  C321     1.0000 0.61298  0.04524  0.24788  Biso   1.000  C
  C322     1.0000 0.64205  0.07103  0.15471  Biso   1.000  C
  O107     1.0000 0.40608  0.14971  0.86560  Biso   1.000  O
  N215     1.0000 0.34238  0.13957  0.92932  Biso   1.000  N
  H319     1.0000 0.27060  0.13129  0.92878  Biso   1.000  H
  C323     1.0000 0.28276  0.09232  0.04208  Biso   1.000  C
  C324     1.0000 0.52923  0.03805  0.28829  Biso   1.000  C
  N216     1.0000 0.61291  0.08199  0.20236  Biso   1.000  N
  H320     1.0000 0.62369  0.05750  0.28798  Biso   1.000  H
  O108     1.0000 0.64994  0.09644  0.11109  Biso   1.000  O
  C325     1.0000 0.34868  0.18171  0.96556  Biso   1.000  C
  N217     1.0000 0.32028  0.11169  0.07910  Biso   1.000  N
  H321     1.0000 0.25718  0.11589  0.03869  Biso   1.000  H
  H322     1.0000 0.26958  0.06420  0.06258  Biso   1.000  H
  N218     1.0000 0.50100  0.07230  0.25540  Biso   1.000  N
  H323     1.0000 0.50879  0.01131  0.30019  Biso   1.000  H
  H324     1.0000 0.54128  0.05289  0.32572  Biso   1.000  H
  C326     1.0000 0.59635  0.12949  0.21349  Biso   1.000  C
  H325     1.0000 0.37109  0.20288  0.94479  Biso   1.000  H
  H326     1.0000 0.31810  0.19841  0.96869  Biso   1.000  H
  N219     1.0000 0.36623  0.17188  0.02656  Biso   1.000  N
  C327     1.0000 0.33533  0.16049  0.07634  Biso   1.000  C
  C328     1.0000 0.33660  0.08946  0.13001  Biso   1.000  C
  C329     1.0000 0.45488  0.06356  0.24092  Biso   1.000  C
  C330     1.0000 0.51242  0.12174  0.25259  Biso   1.000  C
  N220     1.0000 0.54575  0.13456  0.20576  Biso   1.000  N
  H327     1.0000 0.61259  0.15130  0.18548  Biso   1.000  H
  H328     1.0000 0.60488  0.13868  0.25531  Biso   1.000  H
  C331     1.0000 0.40975  0.18519  0.04539  Biso   1.000  C
  C332     1.0000 0.36771  0.16560  0.13268  Biso   1.000  C
  H329     1.0000 0.30788  0.18259  0.07828  Biso   1.000  H
  O109     1.0000 0.32511  0.04972  0.14716  Biso   1.000  O
  N221     1.0000 0.36637  0.11948  0.15960  Biso   1.000  N
  N222     1.0000 0.43427  0.10493  0.22399  Biso   1.000  N
  O110     1.0000 0.43526  0.02473  0.24350  Biso   1.000  O
  C333     1.0000 0.46552  0.14478  0.23092  Biso   1.000  C
  H330     1.0000 0.52229  0.13410  0.29300  Biso   1.000  H
  C334     1.0000 0.52627  0.16275  0.16250  Biso   1.000  C
  O111     1.0000 0.44149  0.20066  0.01285  Biso   1.000  O
  N223     1.0000 0.41292  0.17861  0.10684  Biso   1.000  N
  H331     1.0000 0.35580  0.19030  0.16118  Biso   1.000  H
  C335     1.0000 0.38332  0.11018  0.22037  Biso   1.000  C
  N224     1.0000 0.47919  0.16737  0.17426  Biso   1.000  N
  H332     1.0000 0.45319  0.16811  0.26101  Biso   1.000  H
  O112     1.0000 0.54709  0.18157  0.12014  Biso   1.000  O
  C336     1.0000 0.44963  0.20070  0.14268  Biso   1.000  C
  H333     1.0000 0.37349  0.13639  0.24712  Biso   1.000  H
  H334     1.0000 0.36831  0.08100  0.23558  Biso   1.000  H
  H335     1.0000 0.43480  0.22198  0.17268  Biso   1.000  H
  H336     1.0000 0.46957  0.22018  0.11580  Biso   1.000  H
  O113     1.0000 0.85001  0.90353  0.61111  Biso   1.000  O
  C337     1.0000 0.85790  0.92893  0.65469  Biso   1.000  C
  N225     1.0000 0.83915  0.97287  0.66451  Biso   1.000  N
  N226     1.0000 0.88704  0.91797  0.70234  Biso   1.000  N
  C338     1.0000 0.85279  0.99190  0.72293  Biso   1.000  C
  C339     1.0000 0.79786  0.98915  0.63220  Biso   1.000  C
  C340     1.0000 0.88700  0.95476  0.74791  Biso   1.000  C
  C341     1.0000 0.90360  0.87051  0.71347  Biso   1.000  C
  H337     1.0000 0.82499  0.99637  0.75008  Biso   1.000  H
  N227     1.0000 0.88168  0.03390  0.71963  Biso   1.000  N
  H338     1.0000 0.77228  0.99528  0.66157  Biso   1.000  H
  H339     1.0000 0.78708  0.96388  0.60460  Biso   1.000  H
  N228     1.0000 0.80621  0.03157  0.59722  Biso   1.000  N
  N229     1.0000 0.93108  0.97992  0.75325  Biso   1.000  N
  H340     1.0000 0.87629  0.94250  0.78800  Biso   1.000  H
  N230     1.0000 0.95423  0.86544  0.70573  Biso   1.000  N
  H341     1.0000 0.88739  0.84870  0.68551  Biso   1.000  H
  H342     1.0000 0.89507  0.86128  0.75528  Biso   1.000  H
  C342     1.0000 0.86191  0.08136  0.71279  Biso   1.000  C
  C343     1.0000 0.92657  0.02643  0.73886  Biso   1.000  C
  C344     1.0000 0.80494  0.07847  0.62401  Biso   1.000  C
  C345     1.0000 0.80011  0.03298  0.53577  Biso   1.000  C
  C346     1.0000 0.97076  0.96195  0.78827  Biso   1.000  C
  C347     1.0000 0.97371  0.83725  0.66247  Biso   1.000  C
  C348     1.0000 0.98753  0.87826  0.75261  Biso   1.000  C
  N231     1.0000 0.84937  0.09274  0.65080  Biso   1.000  N
  H343     1.0000 0.83348  0.08411  0.73849  Biso   1.000  H
  H344     1.0000 0.88517  0.10468  0.72741  Biso   1.000  H
  O114     1.0000 0.95782  0.05662  0.74325  Biso   1.000  O
  C349     1.0000 0.79958  0.11141  0.56849  Biso   1.000  C
  H345     1.0000 0.77820  0.08199  0.65311  Biso   1.000  H
  O115     1.0000 0.79729  0.99834  0.50233  Biso   1.000  O
  N232     1.0000 0.79789  0.07917  0.51781  Biso   1.000  N
  N233     1.0000 0.99898  0.92770  0.75542  Biso   1.000  N
  H346     1.0000 0.99119  0.98869  0.80017  Biso   1.000  H
  H347     1.0000 0.95867  0.94708  0.82569  Biso   1.000  H
  O116     1.0000 0.95289  0.81843  0.62016  Biso   1.000  O
  N234     1.0000 0.02082  0.83260  0.67424  Biso   1.000  N
  H348     1.0000 0.97770  0.86590  0.79298  Biso   1.000  H
  C350     1.0000 0.03449  0.85522  0.73089  Biso   1.000  C
  C351     1.0000 0.86967  0.12914  0.62007  Biso   1.000  C
  N235     1.0000 0.84236  0.13957  0.57066  Biso   1.000  N
  H349     1.0000 0.77059  0.13129  0.57120  Biso   1.000  H
  C352     1.0000 0.78274  0.09232  0.45789  Biso   1.000  C
  C353     1.0000 0.04514  0.93644  0.74094  Biso   1.000  C
  C354     1.0000 0.05039  0.79930  0.64270  Biso   1.000  C
  N236     1.0000 0.06571  0.89507  0.72397  Biso   1.000  N
  H350     1.0000 0.04679  0.83189  0.76098  Biso   1.000  H
  O117     1.0000 0.90610  0.14971  0.63437  Biso   1.000  O
  C355     1.0000 0.84870  0.18171  0.53437  Biso   1.000  C
  N237     1.0000 0.82027  0.11169  0.42092  Biso   1.000  N
  H351     1.0000 0.75720  0.11589  0.46129  Biso   1.000  H
  H352     1.0000 0.76960  0.06420  0.43740  Biso   1.000  H
  O118     1.0000 0.06473  0.97527  0.74352  Biso   1.000  O
  N238     1.0000 0.08710  0.82136  0.60681  Biso   1.000  N
  H353     1.0000 0.06518  0.77799  0.67270  Biso   1.000  H
  H354     1.0000 0.03041  0.77978  0.61577  Biso   1.000  H
  C356     1.0000 0.11666  0.88982  0.72035  Biso   1.000  C
  N239     1.0000 0.86621  0.17188  0.47346  Biso   1.000  N
  H355     1.0000 0.87108  0.20288  0.55518  Biso   1.000  H
  H356     1.0000 0.81808  0.19841  0.53129  Biso   1.000  H
  C357     1.0000 0.83531  0.16049  0.42368  Biso   1.000  C
  C358     1.0000 0.83662  0.08946  0.36997  Biso   1.000  C
  C359     1.0000 0.09027  0.81481  0.54541  Biso   1.000  C
  C360     1.0000 0.13231  0.83440  0.63270  Biso   1.000  C
  N240     1.0000 0.13361  0.88052  0.65962  Biso   1.000  N
  H357     1.0000 0.12649  0.86357  0.74709  Biso   1.000  H
  H358     1.0000 0.13171  0.91900  0.73560  Biso   1.000  H
  C361     1.0000 0.90973  0.18519  0.45459  Biso   1.000  C
  C362     1.0000 0.86769  0.16560  0.36730  Biso   1.000  C
  H359     1.0000 0.80790  0.18259  0.42169  Biso   1.000  H
  O119     1.0000 0.82509  0.04972  0.35287  Biso   1.000  O
  N241     1.0000 0.86635  0.11948  0.34038  Biso   1.000  N
  O120     1.0000 0.05849  0.79934  0.51283  Biso   1.000  O
  N242     1.0000 0.13375  0.82812  0.52654  Biso   1.000  N
  H360     1.0000 0.14418  0.80970  0.66121  Biso   1.000  H
  C363     1.0000 0.16465  0.83947  0.57632  Biso   1.000  C
  C364     1.0000 0.16338  0.91054  0.62998  Biso   1.000  C
  O121     1.0000 0.94151  0.20066  0.48713  Biso   1.000  O
  N243     1.0000 0.91290  0.17861  0.39314  Biso   1.000  N
  H361     1.0000 0.85578  0.19030  0.33879  Biso   1.000  H
  C365     1.0000 0.88334  0.11018  0.27961  Biso   1.000  C
  C366     1.0000 0.15130  0.81826  0.46559  Biso   1.000  C
  N244     1.0000 0.17973  0.88827  0.57908  Biso   1.000  N
  H362     1.0000 0.19210  0.81738  0.57831  Biso   1.000  H
  O122     1.0000 0.17487  0.95025  0.64713  Biso   1.000  O
  C367     1.0000 0.94961  0.20070  0.35730  Biso   1.000  C
  N245     1.0000 0.93429  0.10493  0.27599  Biso   1.000  N
  H363     1.0000 0.87347  0.13639  0.25291  Biso   1.000  H
  H364     1.0000 0.86829  0.08100  0.26440  Biso   1.000  H
  N246     1.0000 0.15761  0.86040  0.42934  Biso   1.000  N
  H365     1.0000 0.12889  0.79708  0.44477  Biso   1.000  H
  H366     1.0000 0.18188  0.80159  0.46871  Biso   1.000  H
  C368     1.0000 0.21722  0.90768  0.54206  Biso   1.000  C
  N247     1.0000 0.97918  0.16737  0.32572  Biso   1.000  N
  H367     1.0000 0.93478  0.22198  0.32730  Biso   1.000  H
  H368     1.0000 0.96959  0.22018  0.38418  Biso   1.000  H
  C369     1.0000 0.96551  0.14478  0.26911  Biso   1.000  C
  C370     1.0000 0.95486  0.06356  0.25906  Biso   1.000  C
  C371     1.0000 0.13033  0.87083  0.37988  Biso   1.000  C
  C372     1.0000 0.20038  0.88859  0.43147  Biso   1.000  C
  N248     1.0000 0.20207  0.92079  0.48219  Biso   1.000  N
  H369     1.0000 0.24280  0.88408  0.53871  Biso   1.000  H
  H370     1.0000 0.23040  0.93577  0.56260  Biso   1.000  H
  C373     1.0000 0.02625  0.16275  0.33748  Biso   1.000  C
  H371     1.0000 0.95317  0.16811  0.23902  Biso   1.000  H
  C374     1.0000 0.01244  0.12174  0.24739  Biso   1.000  C
  O123     1.0000 0.93527  0.02473  0.25648  Biso   1.000  O
  N249     1.0000 0.00102  0.07230  0.24458  Biso   1.000  N
  O124     1.0000 0.09390  0.85029  0.36563  Biso   1.000  O
  N250     1.0000 0.15063  0.90726  0.34920  Biso   1.000  N
  H372     1.0000 0.22938  0.86868  0.42880  Biso   1.000  H
  C375     1.0000 0.19502  0.92153  0.37594  Biso   1.000  C
  C376     1.0000 0.19985  0.96702  0.46418  Biso   1.000  C
  O125     1.0000 0.04711  0.18157  0.37984  Biso   1.000  O
  N251     1.0000 0.04577  0.13456  0.29422  Biso   1.000  N
  H373     1.0000 0.02230  0.13410  0.20698  Biso   1.000  H
  C377     1.0000 0.02921  0.03805  0.21168  Biso   1.000  C
  C378     1.0000 0.13809  0.91861  0.28721  Biso   1.000  C
  N252     1.0000 0.19379  0.96839  0.40273  Biso   1.000  N
  H374     1.0000 0.22180  0.91797  0.34689  Biso   1.000  H
  O126     1.0000 0.20267  0.00162  0.49767  Biso   1.000  O
  C379     1.0000 0.09637  0.12949  0.28648  Biso   1.000  C
  N253     1.0000 0.06892  0.02008  0.24675  Biso   1.000  N
  H375     1.0000 0.00881  0.01131  0.19978  Biso   1.000  H
  H376     1.0000 0.04130  0.05289  0.17431  Biso   1.000  H
  N254     1.0000 0.11828  0.96610  0.28037  Biso   1.000  N
  H377     1.0000 0.16648  0.91589  0.26151  Biso   1.000  H
  H378     1.0000 0.11480  0.89528  0.27259  Biso   1.000  H
  C380     1.0000 0.20211  0.01085  0.36780  Biso   1.000  C
  N255     1.0000 0.11293  0.08199  0.29762  Biso   1.000  N
  H379     1.0000 0.11261  0.15130  0.31449  Biso   1.000  H
  H380     1.0000 0.10489  0.13868  0.24472  Biso   1.000  H
  C381     1.0000 0.07343  0.97354  0.26114  Biso   1.000  C
  C382     1.0000 0.11296  0.04524  0.25209  Biso   1.000  C
  C383     1.0000 0.14721  0.00810  0.27703  Biso   1.000  C
  N256     1.0000 0.16081  0.02710  0.33549  Biso   1.000  N
  H381     1.0000 0.22769  0.00469  0.33839  Biso   1.000  H
  H382     1.0000 0.21289  0.03612  0.39540  Biso   1.000  H
  C384     1.0000 0.14207  0.07103  0.34531  Biso   1.000  C
  O127     1.0000 0.04214  0.94334  0.25675  Biso   1.000  O
  H383     1.0000 0.12371  0.05750  0.21200  Biso   1.000  H
  H384     1.0000 0.17501  0.00359  0.24988  Biso   1.000  H
  O128     1.0000 0.14996  0.09644  0.38889  Biso   1.000  O
