data_image0
_cell_length_a       28.753
_cell_length_b       36.229
_cell_length_c       14.814
_cell_angle_alpha    90
_cell_angle_beta     90
_cell_angle_gamma    90

_symmetry_space_group_name_H-M    "P 1"
_symmetry_int_tables_number       1

loop_
  _symmetry_equiv_pos_as_xyz
  'x, y, z'

loop_
  _atom_site_label
  _atom_site_occupancy
  _atom_site_fract_x
  _atom_site_fract_y
  _atom_site_fract_z
  _atom_site_thermal_displace_type
  _atom_site_B_iso_or_equiv
  _atom_site_type_symbol
  C1       1.0000 0.44239  0.56110  0.36911  Biso   1.000  C
  C2       1.0000 0.40681  0.57250  0.29540  Biso   1.000  C
  H1       1.0000 0.46979  0.57711  0.36540  Biso   1.000  H
  H2       1.0000 0.42809  0.56361  0.42878  Biso   1.000  H
  H3       1.0000 0.45181  0.53540  0.35952  Biso   1.000  H
  C3       1.0000 0.35968  0.55312  0.31389  Biso   1.000  C
  C4       1.0000 0.39231  0.61271  0.30579  Biso   1.000  C
  C5       1.0000 0.42479  0.56480  0.20460  Biso   1.000  C
  N1       1.0000 0.34355  0.56107  0.40549  Biso   1.000  N
  N2       1.0000 0.32581  0.56386  0.24443  Biso   1.000  N
  H4       1.0000 0.36480  0.52590  0.30896  Biso   1.000  H
  N3       1.0000 0.37572  0.62033  0.39868  Biso   1.000  N
  N4       1.0000 0.35913  0.62290  0.23782  Biso   1.000  N
  H5       1.0000 0.42069  0.62809  0.29580  Biso   1.000  H
  H6       1.0000 0.45261  0.57981  0.19347  Biso   1.000  H
  H7       1.0000 0.43300  0.53860  0.20001  Biso   1.000  H
  H8       1.0000 0.40100  0.57070  0.15958  Biso   1.000  H
  C6       1.0000 0.32049  0.53178  0.45720  Biso   1.000  C
  C7       1.0000 0.35210  0.59419  0.44822  Biso   1.000  C
  C8       1.0000 0.29280  0.53579  0.21088  Biso   1.000  C
  C9       1.0000 0.32630  0.59775  0.20589  Biso   1.000  C
  C10      1.0000 0.38709  0.65599  0.44053  Biso   1.000  C
  C11      1.0000 0.36191  0.65928  0.19441  Biso   1.000  C
  N5       1.0000 0.27201  0.52632  0.43250  Biso   1.000  N
  H9       1.0000 0.32219  0.53791  0.52221  Biso   1.000  H
  H10      1.0000 0.33760  0.50840  0.44782  Biso   1.000  H
  O1       1.0000 0.34031  0.60051  0.52599  Biso   1.000  O
  N6       1.0000 0.25469  0.52947  0.27136  Biso   1.000  N
  H11      1.0000 0.30971  0.51230  0.20143  Biso   1.000  H
  H12      1.0000 0.28039  0.54390  0.15168  Biso   1.000  H
  O2       1.0000 0.29913  0.60609  0.14419  Biso   1.000  O
  N7       1.0000 0.35701  0.68644  0.40833  Biso   1.000  N
  H13      1.0000 0.38389  0.65381  0.50682  Biso   1.000  H
  H14      1.0000 0.41989  0.66220  0.42710  Biso   1.000  H
  N8       1.0000 0.34188  0.68950  0.24693  Biso   1.000  N
  H15      1.0000 0.34570  0.65801  0.13548  Biso   1.000  H
  H16      1.0000 0.39498  0.66499  0.18233  Biso   1.000  H
  C12      1.0000 0.26109  0.50556  0.35088  Biso   1.000  C
  C13      1.0000 0.23789  0.53910  0.49021  Biso   1.000  C
  C14      1.0000 0.21121  0.54269  0.24720  Biso   1.000  C
  C15      1.0000 0.32358  0.69914  0.46692  Biso   1.000  C
  C16      1.0000 0.36831  0.70413  0.32442  Biso   1.000  C
  C17      1.0000 0.29920  0.70303  0.22438  Biso   1.000  C
  C18      1.0000 0.21772  0.48182  0.36628  Biso   1.000  C
  H17      1.0000 0.28780  0.48859  0.33833  Biso   1.000  H
  N9       1.0000 0.19275  0.53242  0.46571  Biso   1.000  N
  O3       1.0000 0.24787  0.55505  0.56089  Biso   1.000  O
  N10      1.0000 0.17487  0.53482  0.30390  Biso   1.000  N
  O4       1.0000 0.20540  0.56088  0.17828  Biso   1.000  O
  N11      1.0000 0.29726  0.72892  0.43769  Biso   1.000  N
  O5       1.0000 0.31597  0.68500  0.54091  Biso   1.000  O
  H18      1.0000 0.40218  0.70041  0.31227  Biso   1.000  H
  C19      1.0000 0.35899  0.74540  0.33178  Biso   1.000  C
  N12      1.0000 0.28167  0.73149  0.27521  Biso   1.000  N
  O6       1.0000 0.27774  0.69102  0.15749  Biso   1.000  O
  C20      1.0000 0.20579  0.45861  0.28041  Biso   1.000  C
  C21      1.0000 0.18071  0.51094  0.38383  Biso   1.000  C
  C22      1.0000 0.22349  0.45621  0.44768  Biso   1.000  C
  C23      1.0000 0.15550  0.54443  0.52471  Biso   1.000  C
  C24      1.0000 0.12840  0.54683  0.27980  Biso   1.000  C
  C25      1.0000 0.26241  0.74421  0.49561  Biso   1.000  C
  C26      1.0000 0.30811  0.74711  0.35068  Biso   1.000  C
  C27      1.0000 0.38869  0.76190  0.40968  Biso   1.000  C
  C28      1.0000 0.37210  0.76671  0.24430  Biso   1.000  C
  C29      1.0000 0.23719  0.74700  0.25091  Biso   1.000  C
  H19      1.0000 0.22909  0.43901  0.27278  Biso   1.000  H
  H20      1.0000 0.17490  0.44760  0.28723  Biso   1.000  H
  H21      1.0000 0.20610  0.47470  0.22722  Biso   1.000  H
  H22      1.0000 0.15049  0.49800  0.39517  Biso   1.000  H
  H23      1.0000 0.22700  0.47100  0.50257  Biso   1.000  H
  H24      1.0000 0.19608  0.44031  0.45322  Biso   1.000  H
  H25      1.0000 0.25131  0.44089  0.43931  Biso   1.000  H
  N13      1.0000 0.13080  0.57724  0.49311  Biso   1.000  N
  H26      1.0000 0.13289  0.52400  0.53132  Biso   1.000  H
  H27      1.0000 0.16861  0.54959  0.58519  Biso   1.000  H
  N14      1.0000 0.11248  0.57862  0.33198  Biso   1.000  N
  H28      1.0000 0.12781  0.55320  0.21480  Biso   1.000  H
  H29      1.0000 0.10649  0.52610  0.28919  Biso   1.000  H
  N15      1.0000 0.21459  0.73560  0.47199  Biso   1.000  N
  H30      1.0000 0.26822  0.73541  0.55778  Biso   1.000  H
  H31      1.0000 0.26599  0.77140  0.49588  Biso   1.000  H
  H32      1.0000 0.29931  0.77369  0.35628  Biso   1.000  H
  H33      1.0000 0.38570  0.74639  0.46348  Biso   1.000  H
  H34      1.0000 0.42142  0.76279  0.39118  Biso   1.000  H
  H35      1.0000 0.37780  0.78691  0.42338  Biso   1.000  H
  H36      1.0000 0.36789  0.79329  0.25408  Biso   1.000  H
  H37      1.0000 0.40469  0.76179  0.22891  Biso   1.000  H
  H38      1.0000 0.35200  0.75859  0.19468  Biso   1.000  H
  N16      1.0000 0.19855  0.73703  0.31153  Biso   1.000  N
  H39      1.0000 0.24011  0.77419  0.24983  Biso   1.000  H
  H40      1.0000 0.22930  0.73880  0.18901  Biso   1.000  H
  C30      1.0000 0.13960  0.61100  0.53362  Biso   1.000  C
  C31      1.0000 0.09422  0.57236  0.42379  Biso   1.000  C
  C32      1.0000 0.11188  0.61285  0.29243  Biso   1.000  C
  C33      1.0000 0.19101  0.70965  0.52363  Biso   1.000  C
  C34      1.0000 0.19261  0.75575  0.39739  Biso   1.000  C
  C35      1.0000 0.16739  0.71087  0.28088  Biso   1.000  C
  N17      1.0000 0.11362  0.64026  0.50412  Biso   1.000  N
  O7       1.0000 0.16784  0.61324  0.59592  Biso   1.000  O
  H41      1.0000 0.08211  0.54650  0.42750  Biso   1.000  H
  C36      1.0000 0.05429  0.59886  0.44357  Biso   1.000  C
  N18      1.0000 0.09550  0.64164  0.34373  Biso   1.000  N
  O8       1.0000 0.12500  0.61738  0.21399  Biso   1.000  O
  N19      1.0000 0.14552  0.70336  0.49912  Biso   1.000  N
  O9       1.0000 0.20940  0.69420  0.58877  Biso   1.000  O
  C37      1.0000 0.14131  0.76146  0.41589  Biso   1.000  C
  H42      1.0000 0.20770  0.78059  0.39287  Biso   1.000  H
  N20      1.0000 0.13014  0.70297  0.33678  Biso   1.000  N
  O10      1.0000 0.17146  0.69585  0.20778  Biso   1.000  O
  C38      1.0000 0.07749  0.63684  0.43398  Biso   1.000  C
  C39      1.0000 0.11940  0.67578  0.54860  Biso   1.000  C
  C40      1.0000 0.03461  0.59267  0.53902  Biso   1.000  C
  C41      1.0000 0.01579  0.59510  0.37357  Biso   1.000  C
  C42      1.0000 0.09390  0.67852  0.30377  Biso   1.000  C
  C43      1.0000 0.12291  0.72199  0.42379  Biso   1.000  C
  C44      1.0000 0.13379  0.78285  0.50473  Biso   1.000  C
  C45      1.0000 0.11679  0.78241  0.34062  Biso   1.000  C
  H43      1.0000 0.05339  0.65619  0.44498  Biso   1.000  H
  H44      1.0000 0.13512  0.67159  0.60720  Biso   1.000  H
  H45      1.0000 0.08820  0.68589  0.56170  Biso   1.000  H
  H46      1.0000 0.02309  0.56731  0.54428  Biso   1.000  H
  H47      1.0000 0.05909  0.59690  0.58377  Biso   1.000  H
  H48      1.0000 0.00890  0.60990  0.54982  Biso   1.000  H
  H49      1.0000 0.02869  0.59919  0.31322  Biso   1.000  H
  H50      1.0000 0.00240  0.57021  0.37687  Biso   1.000  H
  H51      1.0000 0.99151  0.61340  0.38558  Biso   1.000  H
  H52      1.0000 0.06319  0.68970  0.31679  Biso   1.000  H
  H53      1.0000 0.09689  0.67631  0.23741  Biso   1.000  H
  H54      1.0000 0.08879  0.72309  0.43621  Biso   1.000  H
  H55      1.0000 0.10100  0.78150  0.52207  Biso   1.000  H
  H56      1.0000 0.15299  0.77190  0.55238  Biso   1.000  H
  H57      1.0000 0.14270  0.80869  0.49608  Biso   1.000  H
  H58      1.0000 0.11988  0.76869  0.28392  Biso   1.000  H
  H59      1.0000 0.08382  0.78520  0.35561  Biso   1.000  H
  H60      1.0000 0.13101  0.80690  0.33401  Biso   1.000  H
  C46      1.0000 0.55761  0.43890  0.63089  Biso   1.000  C
  C47      1.0000 0.59319  0.42750  0.70460  Biso   1.000  C
  H61      1.0000 0.53021  0.42289  0.63460  Biso   1.000  H
  H62      1.0000 0.57191  0.43639  0.57122  Biso   1.000  H
  H63      1.0000 0.54819  0.46460  0.64048  Biso   1.000  H
  C48      1.0000 0.60769  0.38729  0.69421  Biso   1.000  C
  C49      1.0000 0.64032  0.44688  0.68611  Biso   1.000  C
  C50      1.0000 0.57521  0.43520  0.79540  Biso   1.000  C
  N21      1.0000 0.62428  0.37967  0.60132  Biso   1.000  N
  N22      1.0000 0.64087  0.37710  0.76218  Biso   1.000  N
  H64      1.0000 0.57931  0.37191  0.70420  Biso   1.000  H
  N23      1.0000 0.65645  0.43893  0.59451  Biso   1.000  N
  N24      1.0000 0.67419  0.43614  0.75557  Biso   1.000  N
  H65      1.0000 0.63520  0.47410  0.69097  Biso   1.000  H
  H66      1.0000 0.54739  0.42019  0.80647  Biso   1.000  H
  H67      1.0000 0.56700  0.46140  0.79999  Biso   1.000  H
  H68      1.0000 0.59900  0.42930  0.84042  Biso   1.000  H
  C51      1.0000 0.61291  0.34401  0.55947  Biso   1.000  C
  C52      1.0000 0.64790  0.40581  0.55178  Biso   1.000  C
  C53      1.0000 0.63809  0.34072  0.80559  Biso   1.000  C
  C54      1.0000 0.67370  0.40225  0.79411  Biso   1.000  C
  C55      1.0000 0.67951  0.46822  0.54280  Biso   1.000  C
  C56      1.0000 0.70720  0.46421  0.78912  Biso   1.000  C
  N25      1.0000 0.64299  0.31356  0.59167  Biso   1.000  N
  H69      1.0000 0.61611  0.34619  0.49318  Biso   1.000  H
  H70      1.0000 0.58011  0.33780  0.57290  Biso   1.000  H
  O11      1.0000 0.65969  0.39949  0.47401  Biso   1.000  O
  N26      1.0000 0.65812  0.31050  0.75307  Biso   1.000  N
  H71      1.0000 0.65430  0.34199  0.86452  Biso   1.000  H
  H72      1.0000 0.60502  0.33501  0.81767  Biso   1.000  H
  O12      1.0000 0.70087  0.39391  0.85581  Biso   1.000  O
  N27      1.0000 0.72799  0.47368  0.56750  Biso   1.000  N
  H73      1.0000 0.67781  0.46209  0.47779  Biso   1.000  H
  H74      1.0000 0.66240  0.49160  0.55218  Biso   1.000  H
  N28      1.0000 0.74531  0.47053  0.72857  Biso   1.000  N
  H75      1.0000 0.69029  0.48770  0.79857  Biso   1.000  H
  H76      1.0000 0.71961  0.45610  0.84832  Biso   1.000  H
  C57      1.0000 0.63169  0.29587  0.67558  Biso   1.000  C
  C58      1.0000 0.67642  0.30086  0.53308  Biso   1.000  C
  C59      1.0000 0.70080  0.29697  0.77562  Biso   1.000  C
  C60      1.0000 0.76211  0.46090  0.50979  Biso   1.000  C
  C61      1.0000 0.73891  0.49444  0.64912  Biso   1.000  C
  C62      1.0000 0.78879  0.45731  0.75280  Biso   1.000  C
  C63      1.0000 0.64101  0.25460  0.66822  Biso   1.000  C
  H77      1.0000 0.59782  0.29959  0.68773  Biso   1.000  H
  N29      1.0000 0.70274  0.27108  0.56231  Biso   1.000  N
  O13      1.0000 0.68403  0.31500  0.45909  Biso   1.000  O
  N30      1.0000 0.71833  0.26851  0.72479  Biso   1.000  N
  O14      1.0000 0.72226  0.30898  0.84251  Biso   1.000  O
  N31      1.0000 0.80725  0.46758  0.53429  Biso   1.000  N
  O15      1.0000 0.75213  0.44495  0.43911  Biso   1.000  O
  H78      1.0000 0.71220  0.51141  0.66167  Biso   1.000  H
  C64      1.0000 0.78228  0.51818  0.63372  Biso   1.000  C
  N32      1.0000 0.82513  0.46518  0.69610  Biso   1.000  N
  O16      1.0000 0.79460  0.43912  0.82172  Biso   1.000  O
  C65      1.0000 0.61131  0.23810  0.59032  Biso   1.000  C
  C66      1.0000 0.69189  0.25289  0.64932  Biso   1.000  C
  C67      1.0000 0.62790  0.23329  0.75570  Biso   1.000  C
  C68      1.0000 0.73759  0.25579  0.50439  Biso   1.000  C
  C69      1.0000 0.76281  0.25300  0.74909  Biso   1.000  C
  C70      1.0000 0.81929  0.48906  0.61617  Biso   1.000  C
  C71      1.0000 0.84450  0.45557  0.47529  Biso   1.000  C
  C72      1.0000 0.77651  0.54379  0.55232  Biso   1.000  C
  C73      1.0000 0.79421  0.54139  0.71959  Biso   1.000  C
  C74      1.0000 0.87160  0.45317  0.72020  Biso   1.000  C
  H79      1.0000 0.61430  0.25361  0.53652  Biso   1.000  H
  H80      1.0000 0.57858  0.23721  0.60882  Biso   1.000  H
  H81      1.0000 0.62220  0.21309  0.57662  Biso   1.000  H
  H82      1.0000 0.70069  0.22631  0.64372  Biso   1.000  H
  H83      1.0000 0.63211  0.20671  0.74592  Biso   1.000  H
  H84      1.0000 0.59531  0.23821  0.77109  Biso   1.000  H
  H85      1.0000 0.64800  0.24141  0.80532  Biso   1.000  H
  N33      1.0000 0.78541  0.26440  0.52801  Biso   1.000  N
  H86      1.0000 0.73178  0.26459  0.44222  Biso   1.000  H
  H87      1.0000 0.73401  0.22860  0.50412  Biso   1.000  H
  N34      1.0000 0.80145  0.26297  0.68847  Biso   1.000  N
  H88      1.0000 0.75989  0.22581  0.75017  Biso   1.000  H
  H89      1.0000 0.77070  0.26120  0.81099  Biso   1.000  H
  H90      1.0000 0.84951  0.50200  0.60477  Biso   1.000  H
  N35      1.0000 0.86920  0.42276  0.50689  Biso   1.000  N
  H91      1.0000 0.86711  0.47600  0.46868  Biso   1.000  H
  H92      1.0000 0.83139  0.45041  0.41481  Biso   1.000  H
  H93      1.0000 0.77300  0.52900  0.49737  Biso   1.000  H
  H94      1.0000 0.80392  0.55969  0.54678  Biso   1.000  H
  H95      1.0000 0.74869  0.55911  0.56069  Biso   1.000  H
  H96      1.0000 0.77091  0.56099  0.72722  Biso   1.000  H
  H97      1.0000 0.82510  0.55240  0.71277  Biso   1.000  H
  H98      1.0000 0.79390  0.52530  0.77278  Biso   1.000  H
  N36      1.0000 0.88752  0.42138  0.66802  Biso   1.000  N
  H99      1.0000 0.87219  0.44680  0.78520  Biso   1.000  H
  H100     1.0000 0.89351  0.47390  0.71081  Biso   1.000  H
  C75      1.0000 0.80899  0.29035  0.47637  Biso   1.000  C
  C76      1.0000 0.80739  0.24425  0.60261  Biso   1.000  C
  C77      1.0000 0.83261  0.28913  0.71912  Biso   1.000  C
  C78      1.0000 0.86040  0.38900  0.46638  Biso   1.000  C
  C79      1.0000 0.90578  0.42764  0.57621  Biso   1.000  C
  C80      1.0000 0.88812  0.38715  0.70757  Biso   1.000  C
  N37      1.0000 0.85448  0.29664  0.50088  Biso   1.000  N
  O17      1.0000 0.79060  0.30580  0.41117  Biso   1.000  O
  H101     1.0000 0.79230  0.21941  0.60713  Biso   1.000  H
  C81      1.0000 0.85869  0.23854  0.58411  Biso   1.000  C
  N38      1.0000 0.86986  0.29703  0.66322  Biso   1.000  N
  O18      1.0000 0.82854  0.30415  0.79222  Biso   1.000  O
  N39      1.0000 0.88638  0.35974  0.49588  Biso   1.000  N
  O19      1.0000 0.83216  0.38676  0.40408  Biso   1.000  O
  C82      1.0000 0.94571  0.40114  0.55637  Biso   1.000  C
  H102     1.0000 0.91789  0.45350  0.57250  Biso   1.000  H
  N40      1.0000 0.90450  0.35836  0.65627  Biso   1.000  N
  O20      1.0000 0.87500  0.38262  0.78601  Biso   1.000  O
  C83      1.0000 0.88060  0.32422  0.45140  Biso   1.000  C
  C84      1.0000 0.87709  0.27801  0.57621  Biso   1.000  C
  C85      1.0000 0.86621  0.21715  0.49527  Biso   1.000  C
  C86      1.0000 0.88321  0.21759  0.65938  Biso   1.000  C
  C87      1.0000 0.90610  0.32148  0.69617  Biso   1.000  C
  C88      1.0000 0.92251  0.36316  0.56602  Biso   1.000  C
  C89      1.0000 0.96539  0.40733  0.46098  Biso   1.000  C
  C90      1.0000 0.98421  0.40490  0.62637  Biso   1.000  C
  H103     1.0000 0.86488  0.32841  0.39280  Biso   1.000  H
  H104     1.0000 0.91180  0.31411  0.43830  Biso   1.000  H
  H105     1.0000 0.91121  0.27691  0.56379  Biso   1.000  H
  H106     1.0000 0.89900  0.21850  0.47793  Biso   1.000  H
  H107     1.0000 0.84701  0.22810  0.44762  Biso   1.000  H
  H108     1.0000 0.85730  0.19131  0.50392  Biso   1.000  H
  H109     1.0000 0.88012  0.23131  0.71608  Biso   1.000  H
  H110     1.0000 0.91618  0.21480  0.64439  Biso   1.000  H
  H111     1.0000 0.86899  0.19310  0.66599  Biso   1.000  H
  H112     1.0000 0.93681  0.31030  0.68321  Biso   1.000  H
  H113     1.0000 0.90311  0.32369  0.76259  Biso   1.000  H
  H114     1.0000 0.94661  0.34381  0.55502  Biso   1.000  H
  H115     1.0000 0.97691  0.43269  0.45572  Biso   1.000  H
  H116     1.0000 0.94091  0.40310  0.41623  Biso   1.000  H
  H117     1.0000 0.99110  0.39010  0.45018  Biso   1.000  H
  H118     1.0000 0.97131  0.40081  0.68678  Biso   1.000  H
  H119     1.0000 0.99760  0.42979  0.62313  Biso   1.000  H
  H120     1.0000 0.00849  0.38660  0.61442  Biso   1.000  H
  C91      1.0000 0.42479  0.43520  0.70460  Biso   1.000  C
  C92      1.0000 0.40681  0.42750  0.79540  Biso   1.000  C
  H121     1.0000 0.45261  0.42019  0.69347  Biso   1.000  H
  H122     1.0000 0.43300  0.46140  0.70001  Biso   1.000  H
  H123     1.0000 0.40100  0.42930  0.65958  Biso   1.000  H
  C93      1.0000 0.39231  0.38729  0.80579  Biso   1.000  C
  C94      1.0000 0.35968  0.44688  0.81389  Biso   1.000  C
  C95      1.0000 0.44239  0.43890  0.86911  Biso   1.000  C
  N41      1.0000 0.35913  0.37710  0.73782  Biso   1.000  N
  N42      1.0000 0.37572  0.37967  0.89868  Biso   1.000  N
  H124     1.0000 0.42069  0.37191  0.79580  Biso   1.000  H
  N43      1.0000 0.32581  0.43614  0.74436  Biso   1.000  N
  N44      1.0000 0.34355  0.43893  0.90549  Biso   1.000  N
  H125     1.0000 0.36480  0.47410  0.80896  Biso   1.000  H
  H126     1.0000 0.46979  0.42289  0.86540  Biso   1.000  H
  H127     1.0000 0.42809  0.43639  0.92878  Biso   1.000  H
  H128     1.0000 0.45181  0.46460  0.85952  Biso   1.000  H
  C96      1.0000 0.36191  0.34072  0.69441  Biso   1.000  C
  C97      1.0000 0.32630  0.40225  0.70589  Biso   1.000  C
  C98      1.0000 0.38709  0.34401  0.94046  Biso   1.000  C
  C99      1.0000 0.35210  0.40581  0.94822  Biso   1.000  C
  C100     1.0000 0.29280  0.46421  0.71088  Biso   1.000  C
  C101     1.0000 0.32049  0.46822  0.95720  Biso   1.000  C
  N45      1.0000 0.34188  0.31050  0.74693  Biso   1.000  N
  H129     1.0000 0.34570  0.34199  0.63548  Biso   1.000  H
  H130     1.0000 0.39498  0.33501  0.68233  Biso   1.000  H
  O21      1.0000 0.29913  0.39391  0.64419  Biso   1.000  O
  N46      1.0000 0.35701  0.31356  0.90826  Biso   1.000  N
  H131     1.0000 0.41989  0.33780  0.92710  Biso   1.000  H
  H132     1.0000 0.38389  0.34619  0.00682  Biso   1.000  H
  O22      1.0000 0.34031  0.39949  0.02599  Biso   1.000  O
  N47      1.0000 0.25469  0.47053  0.77136  Biso   1.000  N
  H133     1.0000 0.30971  0.48770  0.70136  Biso   1.000  H
  H134     1.0000 0.28039  0.45610  0.65168  Biso   1.000  H
  N48      1.0000 0.27201  0.47368  0.93250  Biso   1.000  N
  H135     1.0000 0.33760  0.49160  0.94782  Biso   1.000  H
  H136     1.0000 0.32219  0.46209  0.02221  Biso   1.000  H
  C102     1.0000 0.29920  0.29697  0.72438  Biso   1.000  C
  C103     1.0000 0.36831  0.29587  0.82442  Biso   1.000  C
  C104     1.0000 0.32358  0.30086  0.96692  Biso   1.000  C
  C105     1.0000 0.21121  0.45731  0.74720  Biso   1.000  C
  C106     1.0000 0.26109  0.49444  0.85088  Biso   1.000  C
  C107     1.0000 0.23789  0.46090  0.99021  Biso   1.000  C
  O23      1.0000 0.27774  0.30898  0.65749  Biso   1.000  O
  N49      1.0000 0.28167  0.26851  0.77521  Biso   1.000  N
  H137     1.0000 0.40218  0.29959  0.81227  Biso   1.000  H
  C108     1.0000 0.35899  0.25460  0.83178  Biso   1.000  C
  N50      1.0000 0.29726  0.27108  0.93769  Biso   1.000  N
  O24      1.0000 0.31597  0.31500  0.04091  Biso   1.000  O
  N51      1.0000 0.17487  0.46518  0.80390  Biso   1.000  N
  O25      1.0000 0.20540  0.43912  0.67828  Biso   1.000  O
  H138     1.0000 0.28780  0.51141  0.83826  Biso   1.000  H
  C109     1.0000 0.21772  0.51818  0.86628  Biso   1.000  C
  N52      1.0000 0.19275  0.46758  0.96571  Biso   1.000  N
  O26      1.0000 0.24787  0.44495  0.06089  Biso   1.000  O
  C110     1.0000 0.23719  0.25300  0.75091  Biso   1.000  C
  C111     1.0000 0.30811  0.25289  0.85068  Biso   1.000  C
  C112     1.0000 0.38869  0.23810  0.90968  Biso   1.000  C
  C113     1.0000 0.37210  0.23329  0.74430  Biso   1.000  C
  C114     1.0000 0.26241  0.25579  0.99561  Biso   1.000  C
  C115     1.0000 0.18071  0.48906  0.88383  Biso   1.000  C
  C116     1.0000 0.12840  0.45317  0.77980  Biso   1.000  C
  C117     1.0000 0.22349  0.54379  0.94768  Biso   1.000  C
  C118     1.0000 0.20579  0.54139  0.78041  Biso   1.000  C
  C119     1.0000 0.15550  0.45557  0.02471  Biso   1.000  C
  N53      1.0000 0.19855  0.26297  0.81146  Biso   1.000  N
  H139     1.0000 0.24011  0.22581  0.74976  Biso   1.000  H
  H140     1.0000 0.22930  0.26120  0.68901  Biso   1.000  H
  H141     1.0000 0.29931  0.22631  0.85628  Biso   1.000  H
  H142     1.0000 0.38570  0.25361  0.96348  Biso   1.000  H
  H143     1.0000 0.42142  0.23721  0.89118  Biso   1.000  H
  H144     1.0000 0.37780  0.21309  0.92338  Biso   1.000  H
  H145     1.0000 0.36789  0.20671  0.75408  Biso   1.000  H
  H146     1.0000 0.40469  0.23821  0.72891  Biso   1.000  H
  H147     1.0000 0.35200  0.24141  0.69468  Biso   1.000  H
  N54      1.0000 0.21459  0.26440  0.97199  Biso   1.000  N
  H148     1.0000 0.26599  0.22860  0.99588  Biso   1.000  H
  H149     1.0000 0.26822  0.26459  0.05778  Biso   1.000  H
  H150     1.0000 0.15049  0.50200  0.89517  Biso   1.000  H
  N55      1.0000 0.11248  0.42138  0.83198  Biso   1.000  N
  H151     1.0000 0.12781  0.44680  0.71480  Biso   1.000  H
  H152     1.0000 0.10649  0.47390  0.78919  Biso   1.000  H
  H153     1.0000 0.19608  0.55969  0.95322  Biso   1.000  H
  H154     1.0000 0.25131  0.55911  0.93931  Biso   1.000  H
  H155     1.0000 0.22700  0.52900  0.00257  Biso   1.000  H
  H156     1.0000 0.22909  0.56099  0.77278  Biso   1.000  H
  H157     1.0000 0.17490  0.55240  0.78723  Biso   1.000  H
  H158     1.0000 0.20610  0.52530  0.72722  Biso   1.000  H
  N56      1.0000 0.13080  0.42276  0.99311  Biso   1.000  N
  H159     1.0000 0.13289  0.47600  0.03132  Biso   1.000  H
  H160     1.0000 0.16861  0.45041  0.08519  Biso   1.000  H
  C120     1.0000 0.19261  0.24425  0.89739  Biso   1.000  C
  C121     1.0000 0.16739  0.28913  0.78088  Biso   1.000  C
  C122     1.0000 0.19101  0.29035  0.02363  Biso   1.000  C
  C123     1.0000 0.11188  0.38715  0.79243  Biso   1.000  C
  C124     1.0000 0.09422  0.42764  0.92379  Biso   1.000  C
  C125     1.0000 0.13960  0.38900  0.03362  Biso   1.000  C
  H161     1.0000 0.20770  0.21941  0.89287  Biso   1.000  H
  C126     1.0000 0.14131  0.23854  0.91589  Biso   1.000  C
  N57      1.0000 0.13014  0.29703  0.83678  Biso   1.000  N
  O27      1.0000 0.17146  0.30415  0.70778  Biso   1.000  O
  N58      1.0000 0.14552  0.29664  0.99912  Biso   1.000  N
  O28      1.0000 0.20940  0.30580  0.08877  Biso   1.000  O
  N59      1.0000 0.09550  0.35836  0.84366  Biso   1.000  N
  O29      1.0000 0.12500  0.38262  0.71399  Biso   1.000  O
  C127     1.0000 0.05429  0.40114  0.94357  Biso   1.000  C
  H162     1.0000 0.08211  0.45350  0.92750  Biso   1.000  H
  N60      1.0000 0.11362  0.35974  0.00412  Biso   1.000  N
  O30      1.0000 0.16784  0.38676  0.09592  Biso   1.000  O
  C128     1.0000 0.12291  0.27801  0.92379  Biso   1.000  C
  C129     1.0000 0.11679  0.21759  0.84062  Biso   1.000  C
  C130     1.0000 0.13379  0.21715  0.00473  Biso   1.000  C
  C131     1.0000 0.09390  0.32148  0.80377  Biso   1.000  C
  C132     1.0000 0.11940  0.32422  0.04860  Biso   1.000  C
  C133     1.0000 0.07749  0.36316  0.93398  Biso   1.000  C
  C134     1.0000 0.01579  0.40490  0.87357  Biso   1.000  C
  C135     1.0000 0.03461  0.40733  0.03902  Biso   1.000  C
  H163     1.0000 0.08879  0.27691  0.93621  Biso   1.000  H
  H164     1.0000 0.11988  0.23131  0.78392  Biso   1.000  H
  H165     1.0000 0.08382  0.21480  0.85561  Biso   1.000  H
  H166     1.0000 0.13101  0.19310  0.83401  Biso   1.000  H
  H167     1.0000 0.14270  0.19131  0.99608  Biso   1.000  H
  H168     1.0000 0.10100  0.21850  0.02207  Biso   1.000  H
  H169     1.0000 0.15299  0.22810  0.05238  Biso   1.000  H
  H170     1.0000 0.06319  0.31030  0.81679  Biso   1.000  H
  H171     1.0000 0.09689  0.32369  0.73741  Biso   1.000  H
  H172     1.0000 0.13512  0.32841  0.10720  Biso   1.000  H
  H173     1.0000 0.08820  0.31411  0.06170  Biso   1.000  H
  H174     1.0000 0.05339  0.34381  0.94498  Biso   1.000  H
  H175     1.0000 0.02869  0.40081  0.81322  Biso   1.000  H
  H176     1.0000 0.00240  0.42979  0.87687  Biso   1.000  H
  H177     1.0000 0.99151  0.38660  0.88558  Biso   1.000  H
  H178     1.0000 0.02309  0.43269  0.04428  Biso   1.000  H
  H179     1.0000 0.05909  0.40310  0.08377  Biso   1.000  H
  H180     1.0000 0.00890  0.39010  0.04982  Biso   1.000  H
  C136     1.0000 0.57521  0.56480  0.29540  Biso   1.000  C
  C137     1.0000 0.59319  0.57250  0.20460  Biso   1.000  C
  H181     1.0000 0.54739  0.57981  0.30647  Biso   1.000  H
  H182     1.0000 0.56700  0.53860  0.29999  Biso   1.000  H
  H183     1.0000 0.59900  0.57070  0.34042  Biso   1.000  H
  C138     1.0000 0.55761  0.56110  0.13089  Biso   1.000  C
  C139     1.0000 0.64032  0.55312  0.18611  Biso   1.000  C
  C140     1.0000 0.60769  0.61271  0.19421  Biso   1.000  C
  H184     1.0000 0.53021  0.57711  0.13460  Biso   1.000  H
  H185     1.0000 0.57191  0.56361  0.07122  Biso   1.000  H
  H186     1.0000 0.54819  0.53540  0.14048  Biso   1.000  H
  N61      1.0000 0.65645  0.56107  0.09451  Biso   1.000  N
  N62      1.0000 0.67419  0.56386  0.25557  Biso   1.000  N
  H187     1.0000 0.63520  0.52590  0.19097  Biso   1.000  H
  N63      1.0000 0.62428  0.62033  0.10132  Biso   1.000  N
  N64      1.0000 0.64087  0.62290  0.26218  Biso   1.000  N
  H188     1.0000 0.57931  0.62809  0.20420  Biso   1.000  H
  C141     1.0000 0.64790  0.59419  0.05178  Biso   1.000  C
  C142     1.0000 0.67951  0.53178  0.04280  Biso   1.000  C
  C143     1.0000 0.67370  0.59775  0.29411  Biso   1.000  C
  C144     1.0000 0.70720  0.53579  0.28912  Biso   1.000  C
  C145     1.0000 0.61291  0.65599  0.05947  Biso   1.000  C
  C146     1.0000 0.63809  0.65928  0.30559  Biso   1.000  C
  O31      1.0000 0.65969  0.60051  0.97401  Biso   1.000  O
  N65      1.0000 0.72799  0.52632  0.06750  Biso   1.000  N
  H189     1.0000 0.66240  0.50840  0.05218  Biso   1.000  H
  H190     1.0000 0.67781  0.53791  0.97779  Biso   1.000  H
  O32      1.0000 0.70087  0.60609  0.35581  Biso   1.000  O
  N66      1.0000 0.74531  0.52947  0.22857  Biso   1.000  N
  H191     1.0000 0.69029  0.51230  0.29857  Biso   1.000  H
  H192     1.0000 0.71961  0.54390  0.34832  Biso   1.000  H
  N67      1.0000 0.64299  0.68644  0.09167  Biso   1.000  N
  H193     1.0000 0.58011  0.66220  0.07290  Biso   1.000  H
  H194     1.0000 0.61611  0.65381  0.99318  Biso   1.000  H
  N68      1.0000 0.65812  0.68950  0.25307  Biso   1.000  N
  H195     1.0000 0.65430  0.65801  0.36452  Biso   1.000  H
  H196     1.0000 0.60502  0.66499  0.31767  Biso   1.000  H
  C147     1.0000 0.76211  0.53910  0.00979  Biso   1.000  C
  C148     1.0000 0.73891  0.50556  0.14912  Biso   1.000  C
  C149     1.0000 0.78879  0.54269  0.25280  Biso   1.000  C
  C150     1.0000 0.67642  0.69914  0.03308  Biso   1.000  C
  C151     1.0000 0.63169  0.70413  0.17558  Biso   1.000  C
  C152     1.0000 0.70080  0.70303  0.27562  Biso   1.000  C
  N69      1.0000 0.80725  0.53242  0.03429  Biso   1.000  N
  O33      1.0000 0.75213  0.55505  0.93911  Biso   1.000  O
  H197     1.0000 0.71220  0.48859  0.16167  Biso   1.000  H
  C153     1.0000 0.78228  0.48182  0.13372  Biso   1.000  C
  N70      1.0000 0.82513  0.53482  0.19610  Biso   1.000  N
  O34      1.0000 0.79460  0.56088  0.32172  Biso   1.000  O
  N71      1.0000 0.70274  0.72892  0.06231  Biso   1.000  N
  O35      1.0000 0.68403  0.68500  0.95909  Biso   1.000  O
  H198     1.0000 0.59782  0.70041  0.18773  Biso   1.000  H
  C154     1.0000 0.64101  0.74540  0.16822  Biso   1.000  C
  N72      1.0000 0.71833  0.73149  0.22479  Biso   1.000  N
  O36      1.0000 0.72226  0.69102  0.34251  Biso   1.000  O
  C155     1.0000 0.81929  0.51094  0.11617  Biso   1.000  C
  C156     1.0000 0.84450  0.54443  0.97529  Biso   1.000  C
  C157     1.0000 0.77651  0.45621  0.05232  Biso   1.000  C
  C158     1.0000 0.79421  0.45861  0.21959  Biso   1.000  C
  C159     1.0000 0.87160  0.54683  0.22020  Biso   1.000  C
  C160     1.0000 0.73759  0.74421  0.00439  Biso   1.000  C
  C161     1.0000 0.69189  0.74711  0.14932  Biso   1.000  C
  C162     1.0000 0.61131  0.76190  0.09032  Biso   1.000  C
  C163     1.0000 0.62790  0.76671  0.25570  Biso   1.000  C
  C164     1.0000 0.76281  0.74700  0.24909  Biso   1.000  C
  H199     1.0000 0.84951  0.49800  0.10477  Biso   1.000  H
  N73      1.0000 0.86920  0.57724  0.00689  Biso   1.000  N
  H200     1.0000 0.86711  0.52400  0.96868  Biso   1.000  H
  H201     1.0000 0.83139  0.54959  0.91481  Biso   1.000  H
  H202     1.0000 0.80392  0.44031  0.04678  Biso   1.000  H
  H203     1.0000 0.74869  0.44089  0.06069  Biso   1.000  H
  H204     1.0000 0.77300  0.47100  0.99737  Biso   1.000  H
  H205     1.0000 0.77091  0.43901  0.22722  Biso   1.000  H
  H206     1.0000 0.82510  0.44760  0.21277  Biso   1.000  H
  H207     1.0000 0.79390  0.47470  0.27278  Biso   1.000  H
  N74      1.0000 0.88752  0.57862  0.16802  Biso   1.000  N
  H208     1.0000 0.87219  0.55320  0.28520  Biso   1.000  H
  H209     1.0000 0.89351  0.52610  0.21081  Biso   1.000  H
  N75      1.0000 0.78541  0.73560  0.02801  Biso   1.000  N
  H210     1.0000 0.73401  0.77140  0.00412  Biso   1.000  H
  H211     1.0000 0.73178  0.73541  0.94222  Biso   1.000  H
  H212     1.0000 0.70069  0.77369  0.14372  Biso   1.000  H
  H213     1.0000 0.61430  0.74639  0.03652  Biso   1.000  H
  H214     1.0000 0.57858  0.76279  0.10882  Biso   1.000  H
  H215     1.0000 0.62220  0.78691  0.07662  Biso   1.000  H
  H216     1.0000 0.63211  0.79329  0.24592  Biso   1.000  H
  H217     1.0000 0.59531  0.76179  0.27109  Biso   1.000  H
  H218     1.0000 0.64800  0.75859  0.30532  Biso   1.000  H
  N76      1.0000 0.80145  0.73703  0.18847  Biso   1.000  N
  H219     1.0000 0.75989  0.77419  0.25017  Biso   1.000  H
  H220     1.0000 0.77070  0.73880  0.31099  Biso   1.000  H
  C165     1.0000 0.90578  0.57236  0.07621  Biso   1.000  C
  C166     1.0000 0.86040  0.61100  0.96638  Biso   1.000  C
  C167     1.0000 0.88812  0.61285  0.20757  Biso   1.000  C
  C168     1.0000 0.80739  0.75575  0.10261  Biso   1.000  C
  C169     1.0000 0.80899  0.70965  0.97637  Biso   1.000  C
  C170     1.0000 0.83261  0.71087  0.21912  Biso   1.000  C
  H221     1.0000 0.91789  0.54650  0.07250  Biso   1.000  H
  C171     1.0000 0.94571  0.59886  0.05643  Biso   1.000  C
  N77      1.0000 0.88638  0.64026  0.99588  Biso   1.000  N
  O37      1.0000 0.83216  0.61324  0.90408  Biso   1.000  O
  N78      1.0000 0.90450  0.64164  0.15627  Biso   1.000  N
  O38      1.0000 0.87500  0.61738  0.28601  Biso   1.000  O
  H222     1.0000 0.79230  0.78059  0.10713  Biso   1.000  H
  C172     1.0000 0.85869  0.76146  0.08411  Biso   1.000  C
  N79      1.0000 0.85448  0.70336  0.00088  Biso   1.000  N
  O39      1.0000 0.79060  0.69420  0.91123  Biso   1.000  O
  N80      1.0000 0.86986  0.70297  0.16322  Biso   1.000  N
  O40      1.0000 0.82854  0.69585  0.29222  Biso   1.000  O
  C173     1.0000 0.92251  0.63684  0.06602  Biso   1.000  C
  C174     1.0000 0.98421  0.59510  0.12637  Biso   1.000  C
  C175     1.0000 0.96539  0.59267  0.96098  Biso   1.000  C
  C176     1.0000 0.88060  0.67578  0.95140  Biso   1.000  C
  C177     1.0000 0.90610  0.67852  0.19617  Biso   1.000  C
  C178     1.0000 0.87709  0.72199  0.07621  Biso   1.000  C
  C179     1.0000 0.88321  0.78241  0.15938  Biso   1.000  C
  C180     1.0000 0.86621  0.78285  0.99527  Biso   1.000  C
  H223     1.0000 0.94661  0.65619  0.05502  Biso   1.000  H
  H224     1.0000 0.97131  0.59919  0.18678  Biso   1.000  H
  H225     1.0000 0.99760  0.57021  0.12313  Biso   1.000  H
  H226     1.0000 0.00849  0.61340  0.11442  Biso   1.000  H
  H227     1.0000 0.97691  0.56731  0.95572  Biso   1.000  H
  H228     1.0000 0.94091  0.59690  0.91623  Biso   1.000  H
  H229     1.0000 0.99110  0.60990  0.95018  Biso   1.000  H
  H230     1.0000 0.86488  0.67159  0.89280  Biso   1.000  H
  H231     1.0000 0.91180  0.68589  0.93830  Biso   1.000  H
  H232     1.0000 0.93681  0.68970  0.18321  Biso   1.000  H
  H233     1.0000 0.90311  0.67631  0.26259  Biso   1.000  H
  H234     1.0000 0.91121  0.72309  0.06379  Biso   1.000  H
  H235     1.0000 0.88012  0.76869  0.21608  Biso   1.000  H
  H236     1.0000 0.91618  0.78520  0.14439  Biso   1.000  H
  H237     1.0000 0.86899  0.80690  0.16599  Biso   1.000  H
  H238     1.0000 0.85730  0.80869  0.00392  Biso   1.000  H
  H239     1.0000 0.89900  0.78150  0.97793  Biso   1.000  H
  H240     1.0000 0.84701  0.77190  0.94762  Biso   1.000  H
  C181     1.0000 0.36619  0.28284  0.50473  Biso   1.000  C
  C182     1.0000 0.35871  0.26145  0.41589  Biso   1.000  C
  H241     1.0000 0.39898  0.28149  0.52207  Biso   1.000  H
  H242     1.0000 0.34699  0.27191  0.55238  Biso   1.000  H
  H243     1.0000 0.35728  0.30870  0.49608  Biso   1.000  H
  C183     1.0000 0.30741  0.25576  0.39739  Biso   1.000  C
  C184     1.0000 0.37711  0.22198  0.42379  Biso   1.000  C
  C185     1.0000 0.38319  0.28240  0.34062  Biso   1.000  C
  N81      1.0000 0.30143  0.23705  0.31153  Biso   1.000  N
  N82      1.0000 0.28540  0.23558  0.47199  Biso   1.000  N
  H244     1.0000 0.29232  0.28060  0.39287  Biso   1.000  H
  N83      1.0000 0.36984  0.20296  0.33678  Biso   1.000  N
  N84      1.0000 0.35447  0.20335  0.49912  Biso   1.000  N
  H245     1.0000 0.41119  0.22311  0.43621  Biso   1.000  H
  H246     1.0000 0.38010  0.26871  0.28392  Biso   1.000  H
  H247     1.0000 0.41620  0.28521  0.35561  Biso   1.000  H
  H248     1.0000 0.36900  0.30691  0.33401  Biso   1.000  H
  C186     1.0000 0.26279  0.24701  0.25091  Biso   1.000  C
  C187     1.0000 0.33259  0.21085  0.28088  Biso   1.000  C
  C188     1.0000 0.30901  0.20964  0.52363  Biso   1.000  C
  C189     1.0000 0.23761  0.24422  0.49561  Biso   1.000  C
  C190     1.0000 0.40611  0.17853  0.30377  Biso   1.000  C
  C191     1.0000 0.38059  0.17580  0.54860  Biso   1.000  C
  N85      1.0000 0.21834  0.23147  0.27521  Biso   1.000  N
  H249     1.0000 0.25990  0.27420  0.24983  Biso   1.000  H
  H250     1.0000 0.27068  0.23879  0.18901  Biso   1.000  H
  O41      1.0000 0.32856  0.19584  0.20778  Biso   1.000  O
  O42      1.0000 0.29061  0.19421  0.58877  Biso   1.000  O
  N86      1.0000 0.20276  0.22893  0.43769  Biso   1.000  N
  H251     1.0000 0.23180  0.23539  0.55778  Biso   1.000  H
  H252     1.0000 0.23399  0.27141  0.49588  Biso   1.000  H
  N87      1.0000 0.40448  0.14165  0.34373  Biso   1.000  N
  H253     1.0000 0.43679  0.18971  0.31679  Biso   1.000  H
  H254     1.0000 0.40309  0.17630  0.23741  Biso   1.000  H
  N88      1.0000 0.38636  0.14027  0.50412  Biso   1.000  N
  H255     1.0000 0.36490  0.17160  0.60720  Biso   1.000  H
  H256     1.0000 0.41178  0.18590  0.56170  Biso   1.000  H
  C192     1.0000 0.20081  0.20301  0.22438  Biso   1.000  C
  C193     1.0000 0.19191  0.24709  0.35068  Biso   1.000  C
  C194     1.0000 0.17640  0.19912  0.46692  Biso   1.000  C
  C195     1.0000 0.42250  0.13682  0.43398  Biso   1.000  C
  C196     1.0000 0.38810  0.11287  0.29243  Biso   1.000  C
  C197     1.0000 0.36041  0.11099  0.53362  Biso   1.000  C
  N89      1.0000 0.15814  0.18949  0.24693  Biso   1.000  N
  O43      1.0000 0.22227  0.19101  0.15749  Biso   1.000  O
  H257     1.0000 0.20071  0.27370  0.35628  Biso   1.000  H
  C198     1.0000 0.14099  0.24541  0.33178  Biso   1.000  C
  N90      1.0000 0.14301  0.18645  0.40833  Biso   1.000  N
  O44      1.0000 0.18402  0.18502  0.54091  Biso   1.000  O
  H258     1.0000 0.44660  0.15620  0.44498  Biso   1.000  H
  C199     1.0000 0.44569  0.09884  0.44357  Biso   1.000  C
  N91      1.0000 0.38754  0.07864  0.33198  Biso   1.000  N
  O45      1.0000 0.37502  0.11736  0.21399  Biso   1.000  O
  N92      1.0000 0.36921  0.07723  0.49311  Biso   1.000  N
  O46      1.0000 0.33217  0.11325  0.59592  Biso   1.000  O
  C200     1.0000 0.13171  0.20415  0.32442  Biso   1.000  C
  C201     1.0000 0.13811  0.15926  0.19441  Biso   1.000  C
  C202     1.0000 0.11129  0.26189  0.40968  Biso   1.000  C
  C203     1.0000 0.12792  0.26669  0.24430  Biso   1.000  C
  C204     1.0000 0.11289  0.15601  0.44053  Biso   1.000  C
  C205     1.0000 0.40580  0.07237  0.42379  Biso   1.000  C
  C206     1.0000 0.46541  0.09266  0.53902  Biso   1.000  C
  C207     1.0000 0.48419  0.09509  0.37357  Biso   1.000  C
  C208     1.0000 0.37161  0.04681  0.27980  Biso   1.000  C
  C209     1.0000 0.34449  0.04444  0.52471  Biso   1.000  C
  H259     1.0000 0.09780  0.20039  0.31227  Biso   1.000  H
  N93      1.0000 0.14089  0.12291  0.23782  Biso   1.000  N
  H260     1.0000 0.15431  0.15799  0.13548  Biso   1.000  H
  H261     1.0000 0.10500  0.16501  0.18233  Biso   1.000  H
  H262     1.0000 0.11428  0.24640  0.46348  Biso   1.000  H
  H263     1.0000 0.07860  0.26280  0.39118  Biso   1.000  H
  H264     1.0000 0.12221  0.28690  0.42338  Biso   1.000  H
  H265     1.0000 0.13209  0.29330  0.25408  Biso   1.000  H
  H266     1.0000 0.09529  0.26181  0.22891  Biso   1.000  H
  H267     1.0000 0.14798  0.25860  0.19468  Biso   1.000  H
  N94      1.0000 0.12430  0.12035  0.39868  Biso   1.000  N
  H268     1.0000 0.11609  0.15380  0.50682  Biso   1.000  H
  H269     1.0000 0.08010  0.16219  0.42710  Biso   1.000  H
  H270     1.0000 0.41790  0.04651  0.42750  Biso   1.000  H
  H271     1.0000 0.47689  0.06729  0.54428  Biso   1.000  H
  H272     1.0000 0.44089  0.09691  0.58377  Biso   1.000  H
  H273     1.0000 0.49111  0.10991  0.54982  Biso   1.000  H
  H274     1.0000 0.50850  0.11339  0.38558  Biso   1.000  H
  H275     1.0000 0.47129  0.09920  0.31322  Biso   1.000  H
  H276     1.0000 0.49758  0.07019  0.37687  Biso   1.000  H
  N95      1.0000 0.32511  0.03483  0.30390  Biso   1.000  N
  H277     1.0000 0.37220  0.05319  0.21480  Biso   1.000  H
  H278     1.0000 0.39349  0.02611  0.28919  Biso   1.000  H
  N96      1.0000 0.30724  0.03243  0.46571  Biso   1.000  N
  H279     1.0000 0.36709  0.02399  0.53132  Biso   1.000  H
  H280     1.0000 0.33141  0.04960  0.58519  Biso   1.000  H
  C210     1.0000 0.17369  0.09774  0.20589  Biso   1.000  C
  C211     1.0000 0.10771  0.11270  0.30579  Biso   1.000  C
  C212     1.0000 0.14792  0.09418  0.44822  Biso   1.000  C
  C213     1.0000 0.31931  0.01096  0.38383  Biso   1.000  C
  C214     1.0000 0.28880  0.04270  0.24720  Biso   1.000  C
  C215     1.0000 0.26209  0.03908  0.49021  Biso   1.000  C
  N97      1.0000 0.17421  0.06384  0.24443  Biso   1.000  N
  O47      1.0000 0.20085  0.10610  0.14419  Biso   1.000  O
  H281     1.0000 0.07930  0.12810  0.29580  Biso   1.000  H
  C216     1.0000 0.09321  0.07251  0.29540  Biso   1.000  C
  N98      1.0000 0.15644  0.06106  0.40549  Biso   1.000  N
  O48      1.0000 0.15971  0.10050  0.52599  Biso   1.000  O
  H282     1.0000 0.34949  0.99801  0.39517  Biso   1.000  H
  C217     1.0000 0.28230  0.98184  0.36628  Biso   1.000  C
  N99      1.0000 0.24530  0.02945  0.27136  Biso   1.000  N
  O49      1.0000 0.29458  0.06089  0.17828  Biso   1.000  O
  N100     1.0000 0.22801  0.02633  0.43250  Biso   1.000  N
  O50      1.0000 0.25215  0.05504  0.56089  Biso   1.000  O
  C218     1.0000 0.14030  0.05311  0.31389  Biso   1.000  C
  C219     1.0000 0.20721  0.03580  0.21088  Biso   1.000  C
  C220     1.0000 0.05759  0.06111  0.36911  Biso   1.000  C
  C221     1.0000 0.07519  0.06481  0.20460  Biso   1.000  C
  C222     1.0000 0.17949  0.03177  0.45720  Biso   1.000  C
  C223     1.0000 0.23890  0.00555  0.35088  Biso   1.000  C
  C224     1.0000 0.27649  0.95622  0.44768  Biso   1.000  C
  C225     1.0000 0.29420  0.95862  0.28041  Biso   1.000  C
  H283     1.0000 0.13519  0.02589  0.30896  Biso   1.000  H
  H284     1.0000 0.19031  0.01231  0.20143  Biso   1.000  H
  H285     1.0000 0.21959  0.04389  0.15168  Biso   1.000  H
  H286     1.0000 0.03019  0.07709  0.36540  Biso   1.000  H
  H287     1.0000 0.07189  0.06360  0.42878  Biso   1.000  H
  H288     1.0000 0.04820  0.03541  0.35952  Biso   1.000  H
  H289     1.0000 0.04740  0.07980  0.19347  Biso   1.000  H
  H290     1.0000 0.06698  0.03859  0.20001  Biso   1.000  H
  H291     1.0000 0.09902  0.07069  0.15958  Biso   1.000  H
  H292     1.0000 0.17779  0.03790  0.52221  Biso   1.000  H
  H293     1.0000 0.16238  0.00839  0.44782  Biso   1.000  H
  H294     1.0000 0.21219  0.98860  0.33833  Biso   1.000  H
  H295     1.0000 0.27301  0.97099  0.50257  Biso   1.000  H
  H296     1.0000 0.30390  0.94030  0.45322  Biso   1.000  H
  H297     1.0000 0.24870  0.94090  0.43931  Biso   1.000  H
  H298     1.0000 0.27089  0.93900  0.27278  Biso   1.000  H
  H299     1.0000 0.32511  0.94761  0.28723  Biso   1.000  H
  H300     1.0000 0.29392  0.97469  0.22722  Biso   1.000  H
  C226     1.0000 0.63381  0.71716  0.49527  Biso   1.000  C
  C227     1.0000 0.64129  0.73855  0.58411  Biso   1.000  C
  H301     1.0000 0.60102  0.71851  0.47793  Biso   1.000  H
  H302     1.0000 0.65301  0.72809  0.44762  Biso   1.000  H
  H303     1.0000 0.64272  0.69130  0.50392  Biso   1.000  H
  C228     1.0000 0.69259  0.74424  0.60261  Biso   1.000  C
  C229     1.0000 0.62289  0.77802  0.57621  Biso   1.000  C
  C230     1.0000 0.61681  0.71760  0.65938  Biso   1.000  C
  N101     1.0000 0.71460  0.76442  0.52801  Biso   1.000  N
  N102     1.0000 0.69857  0.76295  0.68847  Biso   1.000  N
  H304     1.0000 0.70768  0.71940  0.60713  Biso   1.000  H
  N103     1.0000 0.64553  0.79665  0.50088  Biso   1.000  N
  N104     1.0000 0.63016  0.79704  0.66322  Biso   1.000  N
  H305     1.0000 0.58881  0.77689  0.56379  Biso   1.000  H
  H306     1.0000 0.61990  0.73129  0.71608  Biso   1.000  H
  H307     1.0000 0.58380  0.71479  0.64439  Biso   1.000  H
  H308     1.0000 0.63100  0.69309  0.66599  Biso   1.000  H
  C231     1.0000 0.69099  0.79036  0.47637  Biso   1.000  C
  C232     1.0000 0.76239  0.75578  0.50439  Biso   1.000  C
  C233     1.0000 0.66741  0.78915  0.71912  Biso   1.000  C
  C234     1.0000 0.73721  0.75299  0.74909  Biso   1.000  C
  C235     1.0000 0.61941  0.82420  0.45140  Biso   1.000  C
  C236     1.0000 0.59389  0.82147  0.69617  Biso   1.000  C
  O51      1.0000 0.70939  0.80579  0.41117  Biso   1.000  O
  N105     1.0000 0.79724  0.77107  0.56231  Biso   1.000  N
  H309     1.0000 0.76820  0.76461  0.44222  Biso   1.000  H
  H310     1.0000 0.76601  0.72859  0.50412  Biso   1.000  H
  O52      1.0000 0.67144  0.80416  0.79222  Biso   1.000  O
  N106     1.0000 0.78166  0.76853  0.72479  Biso   1.000  N
  H311     1.0000 0.74010  0.72580  0.75017  Biso   1.000  H
  H312     1.0000 0.72932  0.76121  0.81099  Biso   1.000  H
  N107     1.0000 0.61364  0.85973  0.49588  Biso   1.000  N
  H313     1.0000 0.63510  0.82840  0.39280  Biso   1.000  H
  H314     1.0000 0.58822  0.81410  0.43830  Biso   1.000  H
  N108     1.0000 0.59552  0.85835  0.65627  Biso   1.000  N
  H315     1.0000 0.56321  0.81029  0.68321  Biso   1.000  H
  H316     1.0000 0.59691  0.82370  0.76259  Biso   1.000  H
  C237     1.0000 0.82360  0.80088  0.53308  Biso   1.000  C
  C238     1.0000 0.80809  0.75291  0.64932  Biso   1.000  C
  C239     1.0000 0.79919  0.79699  0.77562  Biso   1.000  C
  C240     1.0000 0.63959  0.88901  0.46638  Biso   1.000  C
  C241     1.0000 0.57750  0.86318  0.56602  Biso   1.000  C
  C242     1.0000 0.61190  0.88713  0.70757  Biso   1.000  C
  N109     1.0000 0.85699  0.81355  0.59167  Biso   1.000  N
  O53      1.0000 0.81598  0.81498  0.45909  Biso   1.000  O
  H317     1.0000 0.79929  0.72630  0.64372  Biso   1.000  H
  C243     1.0000 0.85901  0.75459  0.66822  Biso   1.000  C
  N110     1.0000 0.84186  0.81051  0.75307  Biso   1.000  N
  O54      1.0000 0.77773  0.80899  0.84251  Biso   1.000  O
  N111     1.0000 0.63079  0.92277  0.50689  Biso   1.000  N
  O55      1.0000 0.66783  0.88675  0.40408  Biso   1.000  O
  H318     1.0000 0.55340  0.84380  0.55502  Biso   1.000  H
  C244     1.0000 0.55431  0.90116  0.55637  Biso   1.000  C
  N112     1.0000 0.61246  0.92136  0.66802  Biso   1.000  N
  O56      1.0000 0.62498  0.88264  0.78601  Biso   1.000  O
  C245     1.0000 0.86829  0.79585  0.67558  Biso   1.000  C
  C246     1.0000 0.88711  0.84399  0.55947  Biso   1.000  C
  C247     1.0000 0.88871  0.73811  0.59032  Biso   1.000  C
  C248     1.0000 0.87208  0.73331  0.75570  Biso   1.000  C
  C249     1.0000 0.86189  0.84074  0.80559  Biso   1.000  C
  C250     1.0000 0.65551  0.95556  0.47529  Biso   1.000  C
  C251     1.0000 0.59420  0.92763  0.57621  Biso   1.000  C
  C252     1.0000 0.53459  0.90734  0.46098  Biso   1.000  C
  C253     1.0000 0.51581  0.90491  0.62637  Biso   1.000  C
  C254     1.0000 0.62839  0.95319  0.72020  Biso   1.000  C
  H319     1.0000 0.90220  0.79961  0.68773  Biso   1.000  H
  N113     1.0000 0.87570  0.87965  0.60132  Biso   1.000  N
  H320     1.0000 0.88391  0.84620  0.49318  Biso   1.000  H
  H321     1.0000 0.91990  0.83781  0.57290  Biso   1.000  H
  H322     1.0000 0.88572  0.75360  0.53652  Biso   1.000  H
  H323     1.0000 0.92140  0.73720  0.60882  Biso   1.000  H
  H324     1.0000 0.87779  0.71310  0.57662  Biso   1.000  H
  H325     1.0000 0.86791  0.70670  0.74592  Biso   1.000  H
  H326     1.0000 0.90471  0.73819  0.77109  Biso   1.000  H
  H327     1.0000 0.85202  0.74140  0.80532  Biso   1.000  H
  N114     1.0000 0.85911  0.87709  0.76218  Biso   1.000  N
  H328     1.0000 0.84569  0.84201  0.86452  Biso   1.000  H
  H329     1.0000 0.89500  0.83499  0.81767  Biso   1.000  H
  N115     1.0000 0.69276  0.96757  0.53429  Biso   1.000  N
  H330     1.0000 0.63291  0.97601  0.46868  Biso   1.000  H
  H331     1.0000 0.66859  0.95040  0.41481  Biso   1.000  H
  H332     1.0000 0.58210  0.95349  0.57250  Biso   1.000  H
  H333     1.0000 0.52311  0.93271  0.45572  Biso   1.000  H
  H334     1.0000 0.55911  0.90309  0.41623  Biso   1.000  H
  H335     1.0000 0.50889  0.89009  0.45018  Biso   1.000  H
  H336     1.0000 0.49150  0.88661  0.61442  Biso   1.000  H
  H337     1.0000 0.52871  0.90080  0.68678  Biso   1.000  H
  H338     1.0000 0.50242  0.92981  0.62313  Biso   1.000  H
  N116     1.0000 0.67489  0.96517  0.69610  Biso   1.000  N
  H339     1.0000 0.62780  0.94681  0.78520  Biso   1.000  H
  H340     1.0000 0.60651  0.97389  0.71081  Biso   1.000  H
  C255     1.0000 0.85208  0.90582  0.55178  Biso   1.000  C
  C256     1.0000 0.89229  0.88730  0.69421  Biso   1.000  C
  C257     1.0000 0.82631  0.90226  0.79411  Biso   1.000  C
  C258     1.0000 0.73791  0.96092  0.50979  Biso   1.000  C
  C259     1.0000 0.68069  0.98904  0.61617  Biso   1.000  C
  C260     1.0000 0.71120  0.95730  0.75280  Biso   1.000  C
  N117     1.0000 0.84356  0.93894  0.59451  Biso   1.000  N
  O57      1.0000 0.84029  0.89950  0.47401  Biso   1.000  O
  H341     1.0000 0.92070  0.87190  0.70420  Biso   1.000  H
  C261     1.0000 0.90679  0.92749  0.70460  Biso   1.000  C
  N118     1.0000 0.82579  0.93616  0.75557  Biso   1.000  N
  O58      1.0000 0.79915  0.89390  0.85581  Biso   1.000  O
  N119     1.0000 0.77199  0.97367  0.56750  Biso   1.000  N
  O59      1.0000 0.74785  0.94496  0.43911  Biso   1.000  O
  H342     1.0000 0.65051  0.00199  0.60477  Biso   1.000  H
  C262     1.0000 0.71770  0.01816  0.63372  Biso   1.000  C
  N120     1.0000 0.75470  0.97055  0.72857  Biso   1.000  N
  O60      1.0000 0.70542  0.93911  0.82172  Biso   1.000  O
  C263     1.0000 0.85970  0.94689  0.68611  Biso   1.000  C
  C264     1.0000 0.82051  0.96823  0.54280  Biso   1.000  C
  C265     1.0000 0.94241  0.93889  0.63089  Biso   1.000  C
  C266     1.0000 0.92481  0.93519  0.79540  Biso   1.000  C
  C267     1.0000 0.79279  0.96420  0.78912  Biso   1.000  C
  C268     1.0000 0.76110  0.99445  0.64912  Biso   1.000  C
  C269     1.0000 0.72351  0.04378  0.55232  Biso   1.000  C
  C270     1.0000 0.70580  0.04138  0.71959  Biso   1.000  C
  H343     1.0000 0.86481  0.97411  0.69097  Biso   1.000  H
  H344     1.0000 0.82221  0.96210  0.47779  Biso   1.000  H
  H345     1.0000 0.83762  0.99161  0.55218  Biso   1.000  H
  H346     1.0000 0.96981  0.92291  0.63460  Biso   1.000  H
  H347     1.0000 0.92811  0.93640  0.57122  Biso   1.000  H
  H348     1.0000 0.95180  0.96459  0.64048  Biso   1.000  H
  H349     1.0000 0.95260  0.92020  0.80647  Biso   1.000  H
  H350     1.0000 0.93302  0.96141  0.79999  Biso   1.000  H
  H351     1.0000 0.90098  0.92931  0.84042  Biso   1.000  H
  H352     1.0000 0.80969  0.98769  0.79857  Biso   1.000  H
  H353     1.0000 0.78041  0.95611  0.84832  Biso   1.000  H
  H354     1.0000 0.78781  0.01140  0.66167  Biso   1.000  H
  H355     1.0000 0.72699  0.02901  0.49737  Biso   1.000  H
  H356     1.0000 0.69610  0.05970  0.54678  Biso   1.000  H
  H357     1.0000 0.75130  0.05910  0.56069  Biso   1.000  H
  H358     1.0000 0.72911  0.06100  0.72722  Biso   1.000  H
  H359     1.0000 0.67489  0.05239  0.71277  Biso   1.000  H
  H360     1.0000 0.70608  0.02531  0.77278  Biso   1.000  H
  C271     1.0000 0.38319  0.71760  0.84062  Biso   1.000  C
  C272     1.0000 0.35871  0.73855  0.91589  Biso   1.000  C
  H361     1.0000 0.38010  0.73129  0.78392  Biso   1.000  H
  H362     1.0000 0.41620  0.71479  0.85561  Biso   1.000  H
  H363     1.0000 0.36900  0.69309  0.83401  Biso   1.000  H
  C273     1.0000 0.30741  0.74424  0.89739  Biso   1.000  C
  C274     1.0000 0.37711  0.77802  0.92379  Biso   1.000  C
  C275     1.0000 0.36619  0.71716  0.00473  Biso   1.000  C
  N121     1.0000 0.28540  0.76442  0.97199  Biso   1.000  N
  N122     1.0000 0.30143  0.76295  0.81146  Biso   1.000  N
  H364     1.0000 0.29232  0.71940  0.89287  Biso   1.000  H
  N123     1.0000 0.35447  0.79665  0.99912  Biso   1.000  N
  N124     1.0000 0.36984  0.79704  0.83678  Biso   1.000  N
  H365     1.0000 0.41119  0.77689  0.93621  Biso   1.000  H
  H366     1.0000 0.35728  0.69130  0.99608  Biso   1.000  H
  H367     1.0000 0.39898  0.71851  0.02207  Biso   1.000  H
  H368     1.0000 0.34699  0.72809  0.05238  Biso   1.000  H
  C276     1.0000 0.23761  0.75578  0.99561  Biso   1.000  C
  C277     1.0000 0.30901  0.79036  0.02363  Biso   1.000  C
  C278     1.0000 0.26279  0.75299  0.75091  Biso   1.000  C
  C279     1.0000 0.33259  0.78915  0.78088  Biso   1.000  C
  C280     1.0000 0.38059  0.82420  0.04860  Biso   1.000  C
  C281     1.0000 0.40611  0.82147  0.80377  Biso   1.000  C
  N125     1.0000 0.20276  0.77107  0.93769  Biso   1.000  N
  H369     1.0000 0.23399  0.72859  0.99588  Biso   1.000  H
  H370     1.0000 0.23180  0.76461  0.05778  Biso   1.000  H
  O61      1.0000 0.29061  0.80579  0.08877  Biso   1.000  O
  N126     1.0000 0.21834  0.76853  0.77521  Biso   1.000  N
  H371     1.0000 0.25990  0.72580  0.74976  Biso   1.000  H
  H372     1.0000 0.27068  0.76121  0.68901  Biso   1.000  H
  O62      1.0000 0.32856  0.80416  0.70778  Biso   1.000  O
  N127     1.0000 0.38636  0.85973  0.00412  Biso   1.000  N
  H373     1.0000 0.36490  0.82840  0.10720  Biso   1.000  H
  H374     1.0000 0.41178  0.81410  0.06170  Biso   1.000  H
  N128     1.0000 0.40448  0.85835  0.84366  Biso   1.000  N
  H375     1.0000 0.43679  0.81029  0.81679  Biso   1.000  H
  H376     1.0000 0.40309  0.82370  0.73741  Biso   1.000  H
  C282     1.0000 0.19191  0.75291  0.85068  Biso   1.000  C
  C283     1.0000 0.17640  0.80088  0.96692  Biso   1.000  C
  C284     1.0000 0.20081  0.79699  0.72438  Biso   1.000  C
  C285     1.0000 0.42250  0.86318  0.93398  Biso   1.000  C
  C286     1.0000 0.36041  0.88901  0.03362  Biso   1.000  C
  C287     1.0000 0.38810  0.88713  0.79243  Biso   1.000  C
  C288     1.0000 0.14099  0.75459  0.83178  Biso   1.000  C
  H377     1.0000 0.20071  0.72630  0.85628  Biso   1.000  H
  N129     1.0000 0.14301  0.81355  0.90826  Biso   1.000  N
  O63      1.0000 0.18402  0.81498  0.04091  Biso   1.000  O
  N130     1.0000 0.15814  0.81051  0.74693  Biso   1.000  N
  O64      1.0000 0.22227  0.80899  0.65749  Biso   1.000  O
  H378     1.0000 0.44660  0.84380  0.94498  Biso   1.000  H
  C289     1.0000 0.44569  0.90116  0.94357  Biso   1.000  C
  N131     1.0000 0.36921  0.92277  0.99311  Biso   1.000  N
  O65      1.0000 0.33217  0.88675  0.09592  Biso   1.000  O
  N132     1.0000 0.38754  0.92136  0.83198  Biso   1.000  N
  O66      1.0000 0.37502  0.88264  0.71399  Biso   1.000  O
  C290     1.0000 0.12792  0.73331  0.74430  Biso   1.000  C
  C291     1.0000 0.13171  0.79585  0.82442  Biso   1.000  C
  C292     1.0000 0.11129  0.73811  0.90968  Biso   1.000  C
  C293     1.0000 0.11289  0.84399  0.94046  Biso   1.000  C
  C294     1.0000 0.13811  0.84074  0.69441  Biso   1.000  C
  C295     1.0000 0.40580  0.92763  0.92379  Biso   1.000  C
  C296     1.0000 0.48419  0.90491  0.87357  Biso   1.000  C
  C297     1.0000 0.46541  0.90734  0.03902  Biso   1.000  C
  C298     1.0000 0.34449  0.95556  0.02471  Biso   1.000  C
  C299     1.0000 0.37161  0.95319  0.77980  Biso   1.000  C
  H379     1.0000 0.13209  0.70670  0.75408  Biso   1.000  H
  H380     1.0000 0.09529  0.73819  0.72891  Biso   1.000  H
  H381     1.0000 0.14798  0.74140  0.69468  Biso   1.000  H
  H382     1.0000 0.09780  0.79961  0.81227  Biso   1.000  H
  H383     1.0000 0.11428  0.75360  0.96348  Biso   1.000  H
  H384     1.0000 0.07860  0.73720  0.89118  Biso   1.000  H
  H385     1.0000 0.12221  0.71310  0.92338  Biso   1.000  H
  N133     1.0000 0.12430  0.87965  0.89868  Biso   1.000  N
  H386     1.0000 0.08010  0.83781  0.92710  Biso   1.000  H
  H387     1.0000 0.11609  0.84620  0.00682  Biso   1.000  H
  N134     1.0000 0.14089  0.87709  0.73782  Biso   1.000  N
  H388     1.0000 0.15431  0.84201  0.63548  Biso   1.000  H
  H389     1.0000 0.10500  0.83499  0.68233  Biso   1.000  H
  H390     1.0000 0.41790  0.95349  0.92750  Biso   1.000  H
  H391     1.0000 0.50850  0.88661  0.88558  Biso   1.000  H
  H392     1.0000 0.47129  0.90080  0.81322  Biso   1.000  H
  H393     1.0000 0.49758  0.92981  0.87687  Biso   1.000  H
  H394     1.0000 0.47689  0.93271  0.04428  Biso   1.000  H
  H395     1.0000 0.44089  0.90309  0.08377  Biso   1.000  H
  H396     1.0000 0.49111  0.89009  0.04982  Biso   1.000  H
  N135     1.0000 0.30724  0.96757  0.96571  Biso   1.000  N
  H397     1.0000 0.36709  0.97601  0.03132  Biso   1.000  H
  H398     1.0000 0.33141  0.95040  0.08519  Biso   1.000  H
  N136     1.0000 0.32511  0.96517  0.80390  Biso   1.000  N
  H399     1.0000 0.37220  0.94681  0.71480  Biso   1.000  H
  H400     1.0000 0.39349  0.97389  0.78919  Biso   1.000  H
  C300     1.0000 0.14792  0.90582  0.94822  Biso   1.000  C
  C301     1.0000 0.10771  0.88730  0.80579  Biso   1.000  C
  C302     1.0000 0.17369  0.90226  0.70589  Biso   1.000  C
  C303     1.0000 0.26209  0.96092  0.99021  Biso   1.000  C
  C304     1.0000 0.31931  0.98904  0.88383  Biso   1.000  C
  C305     1.0000 0.28880  0.95730  0.74720  Biso   1.000  C
  N137     1.0000 0.15644  0.93894  0.90549  Biso   1.000  N
  O67      1.0000 0.15971  0.89950  0.02599  Biso   1.000  O
  H401     1.0000 0.07930  0.87190  0.79580  Biso   1.000  H
  C306     1.0000 0.09321  0.92749  0.79540  Biso   1.000  C
  N138     1.0000 0.17421  0.93616  0.74436  Biso   1.000  N
  O68      1.0000 0.20085  0.89390  0.64419  Biso   1.000  O
  N139     1.0000 0.22801  0.97367  0.93250  Biso   1.000  N
  O69      1.0000 0.25215  0.94496  0.06089  Biso   1.000  O
  C307     1.0000 0.28230  0.01816  0.86628  Biso   1.000  C
  H402     1.0000 0.34949  0.00199  0.89517  Biso   1.000  H
  N140     1.0000 0.24530  0.97055  0.77136  Biso   1.000  N
  O70      1.0000 0.29458  0.93911  0.67828  Biso   1.000  O
  C308     1.0000 0.14030  0.94689  0.81389  Biso   1.000  C
  C309     1.0000 0.17949  0.96823  0.95720  Biso   1.000  C
  C310     1.0000 0.05759  0.93889  0.86911  Biso   1.000  C
  C311     1.0000 0.07519  0.93519  0.70460  Biso   1.000  C
  C312     1.0000 0.20721  0.96420  0.71088  Biso   1.000  C
  C313     1.0000 0.23890  0.99445  0.85088  Biso   1.000  C
  C314     1.0000 0.27649  0.04378  0.94768  Biso   1.000  C
  C315     1.0000 0.29420  0.04138  0.78041  Biso   1.000  C
  H403     1.0000 0.13519  0.97411  0.80896  Biso   1.000  H
  H404     1.0000 0.16238  0.99161  0.94782  Biso   1.000  H
  H405     1.0000 0.17779  0.96210  0.02221  Biso   1.000  H
  H406     1.0000 0.03019  0.92291  0.86540  Biso   1.000  H
  H407     1.0000 0.07189  0.93640  0.92878  Biso   1.000  H
  H408     1.0000 0.04820  0.96459  0.85952  Biso   1.000  H
  H409     1.0000 0.04740  0.92020  0.69347  Biso   1.000  H
  H410     1.0000 0.06698  0.96141  0.70001  Biso   1.000  H
  H411     1.0000 0.09902  0.92931  0.65958  Biso   1.000  H
  H412     1.0000 0.19031  0.98769  0.70136  Biso   1.000  H
  H413     1.0000 0.21959  0.95611  0.65168  Biso   1.000  H
  H414     1.0000 0.21219  0.01140  0.83826  Biso   1.000  H
  H415     1.0000 0.30390  0.05970  0.95322  Biso   1.000  H
  H416     1.0000 0.24870  0.05910  0.93931  Biso   1.000  H
  H417     1.0000 0.27301  0.02901  0.00257  Biso   1.000  H
  H418     1.0000 0.27089  0.06100  0.77278  Biso   1.000  H
  H419     1.0000 0.32511  0.05239  0.78723  Biso   1.000  H
  H420     1.0000 0.29392  0.02531  0.72722  Biso   1.000  H
  C316     1.0000 0.61681  0.28240  0.15938  Biso   1.000  C
  C317     1.0000 0.64129  0.26145  0.08411  Biso   1.000  C
  H421     1.0000 0.61990  0.26871  0.21608  Biso   1.000  H
  H422     1.0000 0.58380  0.28521  0.14439  Biso   1.000  H
  H423     1.0000 0.63100  0.30691  0.16599  Biso   1.000  H
  C318     1.0000 0.62289  0.22198  0.07621  Biso   1.000  C
  C319     1.0000 0.69259  0.25576  0.10261  Biso   1.000  C
  C320     1.0000 0.63381  0.28284  0.99527  Biso   1.000  C
  N141     1.0000 0.63016  0.20296  0.16322  Biso   1.000  N
  N142     1.0000 0.64553  0.20335  0.00088  Biso   1.000  N
  H424     1.0000 0.58881  0.22311  0.06379  Biso   1.000  H
  N143     1.0000 0.69857  0.23705  0.18847  Biso   1.000  N
  N144     1.0000 0.71460  0.23558  0.02801  Biso   1.000  N
  H425     1.0000 0.70768  0.28060  0.10713  Biso   1.000  H
  H426     1.0000 0.64272  0.30870  0.00392  Biso   1.000  H
  H427     1.0000 0.60102  0.28149  0.97793  Biso   1.000  H
  H428     1.0000 0.65301  0.27191  0.94762  Biso   1.000  H
  C321     1.0000 0.59389  0.17853  0.19617  Biso   1.000  C
  C322     1.0000 0.66741  0.21085  0.21912  Biso   1.000  C
  C323     1.0000 0.61941  0.17580  0.95140  Biso   1.000  C
  C324     1.0000 0.69099  0.20964  0.97637  Biso   1.000  C
  C325     1.0000 0.73721  0.24701  0.24909  Biso   1.000  C
  C326     1.0000 0.76239  0.24422  0.00439  Biso   1.000  C
  N145     1.0000 0.59552  0.14165  0.15627  Biso   1.000  N
  H429     1.0000 0.56321  0.18971  0.18321  Biso   1.000  H
  H430     1.0000 0.59691  0.17630  0.26259  Biso   1.000  H
  O71      1.0000 0.67144  0.19584  0.29222  Biso   1.000  O
  N146     1.0000 0.61364  0.14027  0.99588  Biso   1.000  N
  H431     1.0000 0.63510  0.17160  0.89280  Biso   1.000  H
  H432     1.0000 0.58822  0.18590  0.93830  Biso   1.000  H
  O72      1.0000 0.70939  0.19421  0.91123  Biso   1.000  O
  N147     1.0000 0.78166  0.23147  0.22479  Biso   1.000  N
  H433     1.0000 0.74010  0.27420  0.25017  Biso   1.000  H
  H434     1.0000 0.72932  0.23879  0.31099  Biso   1.000  H
  N148     1.0000 0.79724  0.22893  0.06231  Biso   1.000  N
  H435     1.0000 0.76601  0.27141  0.00412  Biso   1.000  H
  H436     1.0000 0.76820  0.23539  0.94222  Biso   1.000  H
  C327     1.0000 0.57750  0.13682  0.06602  Biso   1.000  C
  C328     1.0000 0.61190  0.11287  0.20757  Biso   1.000  C
  C329     1.0000 0.63959  0.11099  0.96638  Biso   1.000  C
  C330     1.0000 0.79919  0.20301  0.27562  Biso   1.000  C
  C331     1.0000 0.80809  0.24709  0.14932  Biso   1.000  C
  C332     1.0000 0.82360  0.19912  0.03308  Biso   1.000  C
  C333     1.0000 0.55431  0.09884  0.05643  Biso   1.000  C
  H437     1.0000 0.55340  0.15620  0.05502  Biso   1.000  H
  N149     1.0000 0.61246  0.07864  0.16802  Biso   1.000  N
  O73      1.0000 0.62498  0.11736  0.28601  Biso   1.000  O
  N150     1.0000 0.63079  0.07723  0.00689  Biso   1.000  N
  O74      1.0000 0.66783  0.11325  0.90408  Biso   1.000  O
  N151     1.0000 0.84186  0.18949  0.25307  Biso   1.000  N
  O75      1.0000 0.77773  0.19101  0.34251  Biso   1.000  O
  H438     1.0000 0.79929  0.27370  0.14372  Biso   1.000  H
  C334     1.0000 0.85901  0.24541  0.16822  Biso   1.000  C
  N152     1.0000 0.85699  0.18645  0.09167  Biso   1.000  N
  O76      1.0000 0.81598  0.18502  0.95909  Biso   1.000  O
  C335     1.0000 0.51581  0.09509  0.12637  Biso   1.000  C
  C336     1.0000 0.59420  0.07237  0.07621  Biso   1.000  C
  C337     1.0000 0.53459  0.09266  0.96098  Biso   1.000  C
  C338     1.0000 0.62839  0.04681  0.22020  Biso   1.000  C
  C339     1.0000 0.65551  0.04444  0.97529  Biso   1.000  C
  C340     1.0000 0.86829  0.20415  0.17558  Biso   1.000  C
  C341     1.0000 0.86189  0.15926  0.30559  Biso   1.000  C
  C342     1.0000 0.88871  0.26189  0.09032  Biso   1.000  C
  C343     1.0000 0.87208  0.26669  0.25570  Biso   1.000  C
  C344     1.0000 0.88711  0.15601  0.05947  Biso   1.000  C
  H439     1.0000 0.49150  0.11339  0.11442  Biso   1.000  H
  H440     1.0000 0.52871  0.09920  0.18678  Biso   1.000  H
  H441     1.0000 0.50242  0.07019  0.12313  Biso   1.000  H
  H442     1.0000 0.58210  0.04651  0.07250  Biso   1.000  H
  H443     1.0000 0.52311  0.06729  0.95572  Biso   1.000  H
  H444     1.0000 0.55911  0.09691  0.91623  Biso   1.000  H
  H445     1.0000 0.50889  0.10991  0.95018  Biso   1.000  H
  N153     1.0000 0.67489  0.03483  0.19610  Biso   1.000  N
  H446     1.0000 0.62780  0.05319  0.28520  Biso   1.000  H
  H447     1.0000 0.60651  0.02611  0.21081  Biso   1.000  H
  N154     1.0000 0.69276  0.03243  0.03429  Biso   1.000  N
  H448     1.0000 0.63291  0.02399  0.96868  Biso   1.000  H
  H449     1.0000 0.66859  0.04960  0.91481  Biso   1.000  H
  H450     1.0000 0.90220  0.20039  0.18773  Biso   1.000  H
  N155     1.0000 0.85911  0.12291  0.26218  Biso   1.000  N
  H451     1.0000 0.84569  0.15799  0.36452  Biso   1.000  H
  H452     1.0000 0.89500  0.16501  0.31767  Biso   1.000  H
  H453     1.0000 0.88572  0.24640  0.03652  Biso   1.000  H
  H454     1.0000 0.92140  0.26280  0.10882  Biso   1.000  H
  H455     1.0000 0.87779  0.28690  0.07662  Biso   1.000  H
  H456     1.0000 0.86791  0.29330  0.24592  Biso   1.000  H
  H457     1.0000 0.90471  0.26181  0.27109  Biso   1.000  H
  H458     1.0000 0.85202  0.25860  0.30532  Biso   1.000  H
  N156     1.0000 0.87570  0.12035  0.10132  Biso   1.000  N
  H459     1.0000 0.91990  0.16219  0.07290  Biso   1.000  H
  H460     1.0000 0.88391  0.15380  0.99318  Biso   1.000  H
  C345     1.0000 0.68069  0.01096  0.11617  Biso   1.000  C
  C346     1.0000 0.71120  0.04270  0.25280  Biso   1.000  C
  C347     1.0000 0.73791  0.03908  0.00979  Biso   1.000  C
  C348     1.0000 0.82631  0.09774  0.29411  Biso   1.000  C
  C349     1.0000 0.89229  0.11270  0.19421  Biso   1.000  C
  C350     1.0000 0.85208  0.09418  0.05178  Biso   1.000  C
  H461     1.0000 0.65051  0.99801  0.10477  Biso   1.000  H
  C351     1.0000 0.71770  0.98184  0.13372  Biso   1.000  C
  N157     1.0000 0.75470  0.02945  0.22857  Biso   1.000  N
  O77      1.0000 0.70542  0.06089  0.32172  Biso   1.000  O
  N158     1.0000 0.77199  0.02633  0.06750  Biso   1.000  N
  O78      1.0000 0.74785  0.05504  0.93911  Biso   1.000  O
  N159     1.0000 0.82579  0.06384  0.25557  Biso   1.000  N
  O79      1.0000 0.79915  0.10610  0.35581  Biso   1.000  O
  C352     1.0000 0.90679  0.07251  0.20460  Biso   1.000  C
  H462     1.0000 0.92070  0.12810  0.20420  Biso   1.000  H
  N160     1.0000 0.84356  0.06106  0.09451  Biso   1.000  N
  O80      1.0000 0.84029  0.10050  0.97401  Biso   1.000  O
  C353     1.0000 0.76110  0.00555  0.14912  Biso   1.000  C
  C354     1.0000 0.72351  0.95622  0.05232  Biso   1.000  C
  C355     1.0000 0.70580  0.95862  0.21959  Biso   1.000  C
  C356     1.0000 0.79279  0.03580  0.28912  Biso   1.000  C
  C357     1.0000 0.82051  0.03177  0.04280  Biso   1.000  C
  C358     1.0000 0.85970  0.05311  0.18611  Biso   1.000  C
  C359     1.0000 0.94241  0.06111  0.13089  Biso   1.000  C
  C360     1.0000 0.92481  0.06481  0.29540  Biso   1.000  C
  H463     1.0000 0.78781  0.98860  0.16167  Biso   1.000  H
  H464     1.0000 0.72699  0.97099  0.99737  Biso   1.000  H
  H465     1.0000 0.69610  0.94030  0.04678  Biso   1.000  H
  H466     1.0000 0.75130  0.94090  0.06069  Biso   1.000  H
  H467     1.0000 0.72911  0.93900  0.22722  Biso   1.000  H
  H468     1.0000 0.67489  0.94761  0.21277  Biso   1.000  H
  H469     1.0000 0.70608  0.97469  0.27278  Biso   1.000  H
  H470     1.0000 0.80969  0.01231  0.29857  Biso   1.000  H
  H471     1.0000 0.78041  0.04389  0.34832  Biso   1.000  H
  H472     1.0000 0.83762  0.00839  0.05218  Biso   1.000  H
  H473     1.0000 0.82221  0.03790  0.97779  Biso   1.000  H
  H474     1.0000 0.86481  0.02589  0.19097  Biso   1.000  H
  H475     1.0000 0.96981  0.07709  0.13460  Biso   1.000  H
  H476     1.0000 0.92811  0.06360  0.07122  Biso   1.000  H
  H477     1.0000 0.95180  0.03541  0.14048  Biso   1.000  H
  H478     1.0000 0.95260  0.07980  0.30647  Biso   1.000  H
  H479     1.0000 0.93302  0.03859  0.29999  Biso   1.000  H
  H480     1.0000 0.90098  0.07069  0.34042  Biso   1.000  H
  Ne1      1.0000 0.26411  0.13208  0.37107  Biso   1.000  Ne
  He1      1.0000 0.24240  0.12891  0.56977  Biso   1.000  He
  He2      1.0000 0.28424  0.13326  0.17768  Biso   1.000  He
  Ar1      1.0000 0.26331  0.13112  0.37121  Biso   1.000  Ar
  Ne2      1.0000 0.23589  0.36792  0.87107  Biso   1.000  Ne
  He3      1.0000 0.25769  0.37112  0.07057  Biso   1.000  He
  He4      1.0000 0.21511  0.36664  0.67195  Biso   1.000  He
  Ar2      1.0000 0.23670  0.36880  0.87145  Biso   1.000  Ar
  Ne3      1.0000 0.23589  0.63208  0.37107  Biso   1.000  Ne
  He5      1.0000 0.25801  0.62885  0.57358  Biso   1.000  He
  He6      1.0000 0.21468  0.63343  0.16814  Biso   1.000  He
  Ar3      1.0000 0.23670  0.63120  0.37145  Biso   1.000  Ar
  Ne4      1.0000 0.73589  0.13208  0.12893  Biso   1.000  Ne
  He7      1.0000 0.71555  0.13330  0.32424  Biso   1.000  He
  He8      1.0000 0.75748  0.12892  0.93131  Biso   1.000  He
  Ar4      1.0000 0.73669  0.13119  0.12851  Biso   1.000  Ar
  Ne5      1.0000 0.76411  0.36792  0.62893  Biso   1.000  Ne
  He9      1.0000 0.78594  0.36646  0.83745  Biso   1.000  He
  He10     1.0000 0.74233  0.37112  0.42957  Biso   1.000  He
  Ar5      1.0000 0.76333  0.36887  0.62873  Biso   1.000  Ar
  Ne6      1.0000 0.76411  0.63208  0.12893  Biso   1.000  Ne
  He11     1.0000 0.78417  0.63324  0.32155  Biso   1.000  He
  He12     1.0000 0.74227  0.62887  0.92909  Biso   1.000  He
  Ar6      1.0000 0.76330  0.63120  0.12855  Biso   1.000  Ar
  Ne7      1.0000 0.26411  0.86792  0.87107  Biso   1.000  Ne
  He13     1.0000 0.24150  0.87118  0.07830  Biso   1.000  He
  He14     1.0000 0.28504  0.86660  0.67043  Biso   1.000  He
  Ar7      1.0000 0.26331  0.86888  0.87121  Biso   1.000  Ar
  Ne8      1.0000 0.73589  0.86792  0.62893  Biso   1.000  Ne
  He15     1.0000 0.71508  0.86662  0.82848  Biso   1.000  He
  He16     1.0000 0.75688  0.87103  0.43693  Biso   1.000  He
  Ar8      1.0000 0.73669  0.86881  0.62851  Biso   1.000  Ar
