data_image0
_cell_length_a       13.256
_cell_length_b       18.856
_cell_length_c       28.384
_cell_angle_alpha    90
_cell_angle_beta     90
_cell_angle_gamma    90

_symmetry_space_group_name_H-M    "P 1"
_symmetry_int_tables_number       1

loop_
  _symmetry_equiv_pos_as_xyz
  'x, y, z'

loop_
  _atom_site_label
  _atom_site_occupancy
  _atom_site_fract_x
  _atom_site_fract_y
  _atom_site_fract_z
  _atom_site_thermal_displace_type
  _atom_site_B_iso_or_equiv
  _atom_site_type_symbol
  O1       1.0000 0.62598  0.47348  0.48679  Biso   1.000  O
  C1       1.0000 0.69772  0.42390  0.50528  Biso   1.000  C
  H1       1.0000 0.56782  0.46197  0.49549  Biso   1.000  H
  C2       1.0000 0.79194  0.42931  0.47587  Biso   1.000  C
  C3       1.0000 0.71892  0.43869  0.55641  Biso   1.000  C
  H2       1.0000 0.66958  0.37489  0.50229  Biso   1.000  H
  O2       1.0000 0.76682  0.40348  0.42964  Biso   1.000  O
  H3       1.0000 0.81442  0.47990  0.47389  Biso   1.000  H
  C4       1.0000 0.87643  0.38338  0.49676  Biso   1.000  C
  C5       1.0000 0.80831  0.39611  0.57367  Biso   1.000  C
  H4       1.0000 0.73484  0.49029  0.56000  Biso   1.000  H
  O3       1.0000 0.63300  0.42278  0.58466  Biso   1.000  O
  C6       1.0000 0.80183  0.44039  0.38980  Biso   1.000  C
  H5       1.0000 0.85471  0.33257  0.49641  Biso   1.000  H
  C7       1.0000 0.97903  0.39011  0.47139  Biso   1.000  C
  O4       1.0000 0.89280  0.40544  0.54503  Biso   1.000  O
  H6       1.0000 0.82559  0.41260  0.60622  Biso   1.000  H
  O5       1.0000 0.78063  0.32324  0.57603  Biso   1.000  O
  H7       1.0000 0.62198  0.45651  0.60330  Biso   1.000  H
  C8       1.0000 0.71107  0.46537  0.36122  Biso   1.000  C
  O6       1.0000 0.86640  0.39558  0.36299  Biso   1.000  O
  H8       1.0000 0.84098  0.48282  0.40040  Biso   1.000  H
  H9       1.0000 0.97744  0.43307  0.45142  Biso   1.000  H
  H10      1.0000 0.03214  0.39711  0.49542  Biso   1.000  H
  O7       1.0000 0.00460  0.33581  0.44490  Biso   1.000  O
  C9       1.0000 0.80884  0.28479  0.61806  Biso   1.000  C
  C10      1.0000 0.65540  0.40141  0.34125  Biso   1.000  C
  H11      1.0000 0.73604  0.49480  0.33431  Biso   1.000  H
  O8       1.0000 0.64658  0.50811  0.38976  Biso   1.000  O
  C11      1.0000 0.81503  0.33241  0.34530  Biso   1.000  C
  H12      1.0000 0.99962  0.29821  0.46061  Biso   1.000  H
  C12      1.0000 0.71160  0.26411  0.64339  Biso   1.000  C
  H13      1.0000 0.85124  0.31550  0.63892  Biso   1.000  H
  C13      1.0000 0.86723  0.21807  0.60404  Biso   1.000  C
  C14      1.0000 0.72820  0.35469  0.31430  Biso   1.000  C
  H14      1.0000 0.62583  0.37352  0.36781  Biso   1.000  H
  O9       1.0000 0.57589  0.42660  0.31194  Biso   1.000  O
  H15      1.0000 0.64280  0.49051  0.41689  Biso   1.000  H
  H16      1.0000 0.78810  0.30468  0.37260  Biso   1.000  H
  C15      1.0000 0.89469  0.28962  0.32110  Biso   1.000  C
  C16      1.0000 0.73808  0.21791  0.68514  Biso   1.000  C
  H17      1.0000 0.66868  0.23600  0.62120  Biso   1.000  H
  O10      1.0000 0.65668  0.32409  0.65829  Biso   1.000  O
  H18      1.0000 0.82295  0.18891  0.58311  Biso   1.000  H
  C17      1.0000 0.96273  0.23117  0.57899  Biso   1.000  C
  O11      1.0000 0.88881  0.17750  0.64522  Biso   1.000  O
  O12      1.0000 0.67253  0.29381  0.29961  Biso   1.000  O
  H19      1.0000 0.75438  0.38067  0.28611  Biso   1.000  H
  H20      1.0000 0.54074  0.39218  0.30281  Biso   1.000  H
  H21      1.0000 0.86353  0.24931  0.30411  Biso   1.000  H
  H22      1.0000 0.93090  0.31947  0.29791  Biso   1.000  H
  O13      1.0000 0.96409  0.26368  0.35612  Biso   1.000  O
  C18      1.0000 0.80032  0.15412  0.66858  Biso   1.000  C
  H23      1.0000 0.77859  0.24618  0.70811  Biso   1.000  H
  O14      1.0000 0.64718  0.19241  0.70807  Biso   1.000  O
  H24      1.0000 0.66302  0.35670  0.63832  Biso   1.000  H
  H25      1.0000 0.94833  0.24878  0.54682  Biso   1.000  H
  H26      1.0000 0.00091  0.18631  0.57620  Biso   1.000  H
  O15      1.0000 0.02188  0.28224  0.60379  Biso   1.000  O
  C19      1.0000 0.66800  0.27620  0.25176  Biso   1.000  C
  H27      1.0000 0.00611  0.29561  0.36260  Biso   1.000  H
  O16      1.0000 0.73808  0.11620  0.63733  Biso   1.000  O
  H28      1.0000 0.81872  0.12362  0.69610  Biso   1.000  H
  H29      1.0000 0.61549  0.16578  0.68951  Biso   1.000  H
  C20      1.0000 0.10478  0.30738  0.58181  Biso   1.000  C
  C21      1.0000 0.55967  0.26299  0.23880  Biso   1.000  C
  H30      1.0000 0.69335  0.31741  0.23302  Biso   1.000  H
  O17      1.0000 0.72760  0.21675  0.24116  Biso   1.000  O
  C22      1.0000 0.72360  0.04110  0.64339  Biso   1.000  C
  C23      1.0000 0.14499  0.27927  0.54129  Biso   1.000  C
  C24      1.0000 0.14982  0.36747  0.60284  Biso   1.000  C
  C25      1.0000 0.52014  0.19840  0.26578  Biso   1.000  C
  H31      1.0000 0.55469  0.25387  0.20420  Biso   1.000  H
  O18      1.0000 0.50339  0.32462  0.25025  Biso   1.000  O
  C26      1.0000 0.70247  0.15491  0.26779  Biso   1.000  C
  C27      1.0000 0.61052  0.02832  0.63698  Biso   1.000  C
  C28      1.0000 0.78259  0.00148  0.60566  Biso   1.000  C
  H32      1.0000 0.74570  0.02588  0.67552  Biso   1.000  H
  H33      1.0000 0.11429  0.23902  0.52720  Biso   1.000  H
  C29      1.0000 0.22993  0.30908  0.52075  Biso   1.000  C
  C30      1.0000 0.23340  0.39780  0.58279  Biso   1.000  C
  H34      1.0000 0.12213  0.38688  0.63092  Biso   1.000  H
  O19      1.0000 0.42049  0.18063  0.25166  Biso   1.000  O
  H35      1.0000 0.51901  0.21028  0.30010  Biso   1.000  H
  C31      1.0000 0.59173  0.13582  0.25846  Biso   1.000  C
  H36      1.0000 0.44493  0.32101  0.23911  Biso   1.000  H
  H37      1.0000 0.71394  0.16340  0.30211  Biso   1.000  H
  C32      1.0000 0.77022  0.09652  0.25032  Biso   1.000  C
  C33      1.0000 0.58834  0.95010  0.63469  Biso   1.000  C
  H38      1.0000 0.58894  0.05049  0.60661  Biso   1.000  H
  O20      1.0000 0.55824  0.06226  0.67450  Biso   1.000  O
  O21      1.0000 0.75724  0.92660  0.60809  Biso   1.000  O
  H39      1.0000 0.76109  0.01978  0.57409  Biso   1.000  H
  C34      1.0000 0.89514  0.00811  0.60908  Biso   1.000  C
  H40      1.0000 0.25769  0.28951  0.49281  Biso   1.000  H
  C35      1.0000 0.27391  0.36869  0.54193  Biso   1.000  C
  H41      1.0000 0.26350  0.43848  0.59671  Biso   1.000  H
  H42      1.0000 0.39778  0.14871  0.26931  Biso   1.000  H
  H43      1.0000 0.58449  0.11758  0.22551  Biso   1.000  H
  O22      1.0000 0.56193  0.08125  0.29108  Biso   1.000  O
  H44      1.0000 0.74864  0.05081  0.26430  Biso   1.000  H
  H45      1.0000 0.76381  0.09249  0.21561  Biso   1.000  H
  O23      1.0000 0.87221  0.10951  0.26219  Biso   1.000  O
  C36      1.0000 0.65518  0.91340  0.59854  Biso   1.000  C
  H46      1.0000 0.59980  0.92840  0.66640  Biso   1.000  H
  O24      1.0000 0.48423  0.94108  0.62158  Biso   1.000  O
  H47      1.0000 0.52399  0.03209  0.68930  Biso   1.000  H
  H48      1.0000 0.91513  0.05828  0.60481  Biso   1.000  H
  H49      1.0000 0.92728  0.97979  0.58381  Biso   1.000  H
  O25      1.0000 0.92894  0.98329  0.65421  Biso   1.000  O
  C37      1.0000 0.36112  0.40019  0.52040  Biso   1.000  C
  C38      1.0000 0.52520  0.01718  0.27198  Biso   1.000  C
  H50      1.0000 0.88292  0.09610  0.28999  Biso   1.000  H
  O26      1.0000 0.62681  0.93853  0.55327  Biso   1.000  O
  H51      1.0000 0.64303  0.86111  0.60002  Biso   1.000  H
  H52      1.0000 0.45398  0.91817  0.64272  Biso   1.000  H
  H53      1.0000 0.97382  0.01061  0.66449  Biso   1.000  H
  N1       1.0000 0.43052  0.42310  0.50261  Biso   1.000  N
  H54      1.0000 0.50958  0.02482  0.23792  Biso   1.000  H
  C39      1.0000 0.42750  0.99857  0.29781  Biso   1.000  C
  O27      1.0000 0.59724  0.96319  0.27586  Biso   1.000  O
  C40      1.0000 0.61301  0.88720  0.51723  Biso   1.000  C
  O28      1.0000 0.35818  0.05611  0.29397  Biso   1.000  O
  H55      1.0000 0.39703  0.95577  0.28259  Biso   1.000  H
  C41      1.0000 0.44998  0.98139  0.34900  Biso   1.000  C
  C42      1.0000 0.62447  0.94797  0.32388  Biso   1.000  C
  C43      1.0000 0.50581  0.89669  0.49937  Biso   1.000  C
  C44      1.0000 0.68814  0.89807  0.47752  Biso   1.000  C
  H56      1.0000 0.62123  0.83851  0.53072  Biso   1.000  H
  H57      1.0000 0.36361  0.08241  0.31782  Biso   1.000  H
  H58      1.0000 0.47231  0.02551  0.36549  Biso   1.000  H
  C45      1.0000 0.53282  0.92628  0.35199  Biso   1.000  C
  O29      1.0000 0.35878  0.95598  0.37028  Biso   1.000  O
  H59      1.0000 0.65344  0.99189  0.33822  Biso   1.000  H
  C46      1.0000 0.70572  0.89160  0.32265  Biso   1.000  C
  C47      1.0000 0.48748  0.84350  0.45867  Biso   1.000  C
  H60      1.0000 0.49698  0.94617  0.48742  Biso   1.000  H
  O30      1.0000 0.43339  0.88317  0.53513  Biso   1.000  O
  O31      1.0000 0.66543  0.84631  0.44053  Biso   1.000  O
  H61      1.0000 0.68045  0.94707  0.46459  Biso   1.000  H
  C48      1.0000 0.79798  0.88640  0.49211  Biso   1.000  C
  H62      1.0000 0.50724  0.87951  0.34061  Biso   1.000  H
  O32      1.0000 0.55952  0.92162  0.40107  Biso   1.000  O
  H63      1.0000 0.37228  0.92220  0.38849  Biso   1.000  H
  H64      1.0000 0.76411  0.90899  0.30422  Biso   1.000  H
  H65      1.0000 0.72903  0.88147  0.35509  Biso   1.000  H
  O33      1.0000 0.66755  0.82822  0.30182  Biso   1.000  O
  C49      1.0000 0.56970  0.85368  0.42143  Biso   1.000  C
  H66      1.0000 0.49049  0.79396  0.47122  Biso   1.000  H
  O34      1.0000 0.39167  0.85617  0.43909  Biso   1.000  O
  H67      1.0000 0.45278  0.90146  0.56049  Biso   1.000  H
  H68      1.0000 0.84211  0.89330  0.46431  Biso   1.000  H
  H69      1.0000 0.81691  0.92220  0.51599  Biso   1.000  H
  O35      1.0000 0.81405  0.81847  0.51060  Biso   1.000  O
  H70      1.0000 0.70610  0.79428  0.30820  Biso   1.000  H
  H71      1.0000 0.56058  0.81709  0.39621  Biso   1.000  H
  H72      1.0000 0.36663  0.81756  0.42989  Biso   1.000  H
  H73      1.0000 0.75883  0.79667  0.51212  Biso   1.000  H
  C50      1.0000 0.39514  0.49189  0.39096  Biso   1.000  C
  C51      1.0000 0.28259  0.49852  0.39438  Biso   1.000  C
  H74      1.0000 0.42728  0.52021  0.41622  Biso   1.000  H
  H75      1.0000 0.41513  0.44172  0.39519  Biso   1.000  H
  O36      1.0000 0.42894  0.51671  0.34579  Biso   1.000  O
  C52      1.0000 0.22360  0.45890  0.35661  Biso   1.000  C
  H76      1.0000 0.26109  0.48022  0.42591  Biso   1.000  H
  O37      1.0000 0.25717  0.57335  0.39191  Biso   1.000  O
  H77      1.0000 0.47382  0.48939  0.33551  Biso   1.000  H
  O38      1.0000 0.23808  0.38375  0.36267  Biso   1.000  O
  C53      1.0000 0.11052  0.47168  0.36302  Biso   1.000  C
  H78      1.0000 0.24570  0.47407  0.32451  Biso   1.000  H
  C54      1.0000 0.15518  0.58660  0.40149  Biso   1.000  C
  C55      1.0000 0.30032  0.34588  0.33145  Biso   1.000  C
  C56      1.0000 0.08834  0.54990  0.36531  Biso   1.000  C
  H79      1.0000 0.08887  0.44951  0.39339  Biso   1.000  H
  O39      1.0000 0.05824  0.43774  0.32550  Biso   1.000  O
  H80      1.0000 0.14303  0.63889  0.40001  Biso   1.000  H
  O40      1.0000 0.12681  0.56141  0.44673  Biso   1.000  O
  C57      1.0000 0.23808  0.28209  0.31486  Biso   1.000  C
  H81      1.0000 0.31872  0.37638  0.30390  Biso   1.000  H
  O41      1.0000 0.38881  0.32250  0.35478  Biso   1.000  O
  H82      1.0000 0.09980  0.57160  0.33360  Biso   1.000  H
  O42      1.0000 0.98423  0.55887  0.37842  Biso   1.000  O
  H83      1.0000 0.02399  0.46791  0.31070  Biso   1.000  H
  C58      1.0000 0.11301  0.61280  0.48277  Biso   1.000  C
  H84      1.0000 0.27859  0.25382  0.29189  Biso   1.000  H
  C59      1.0000 0.21160  0.23589  0.35664  Biso   1.000  C
  O43      1.0000 0.14718  0.30759  0.29193  Biso   1.000  O
  C60      1.0000 0.36723  0.28187  0.39600  Biso   1.000  C
  H85      1.0000 0.95398  0.58178  0.35731  Biso   1.000  H
  C61      1.0000 0.00581  0.60331  0.50067  Biso   1.000  C
  H86      1.0000 0.12123  0.66149  0.46931  Biso   1.000  H
  C62      1.0000 0.18807  0.60188  0.52248  Biso   1.000  C
  H87      1.0000 0.16868  0.26400  0.37880  Biso   1.000  H
  C63      1.0000 0.30884  0.21521  0.38194  Biso   1.000  C
  O44      1.0000 0.15668  0.17591  0.34174  Biso   1.000  O
  H88      1.0000 0.11549  0.33422  0.31049  Biso   1.000  H
  H89      1.0000 0.32287  0.31109  0.41689  Biso   1.000  H
  C64      1.0000 0.46273  0.26877  0.42101  Biso   1.000  C
  C65      1.0000 0.98748  0.65650  0.54133  Biso   1.000  C
  H90      1.0000 0.99698  0.55378  0.51261  Biso   1.000  H
  O45      1.0000 0.93339  0.61678  0.46491  Biso   1.000  O
  H91      1.0000 0.18037  0.55287  0.53541  Biso   1.000  H
  C66      1.0000 0.29798  0.61360  0.50789  Biso   1.000  C
  O46      1.0000 0.16543  0.65369  0.55947  Biso   1.000  O
  H92      1.0000 0.35124  0.18450  0.36112  Biso   1.000  H
  O47      1.0000 0.28063  0.17676  0.42397  Biso   1.000  O
  H93      1.0000 0.16302  0.14330  0.36172  Biso   1.000  H
  H94      1.0000 0.50091  0.31369  0.42380  Biso   1.000  H
  H95      1.0000 0.44833  0.25122  0.45321  Biso   1.000  H
  O48      1.0000 0.52188  0.21776  0.39621  Biso   1.000  O
  C67      1.0000 0.06970  0.64627  0.57860  Biso   1.000  C
  H96      1.0000 0.99049  0.70598  0.52882  Biso   1.000  H
  O49      1.0000 0.89175  0.64377  0.56095  Biso   1.000  O
  H97      1.0000 0.95285  0.59848  0.43951  Biso   1.000  H
  H98      1.0000 0.34211  0.60670  0.53569  Biso   1.000  H
  H99      1.0000 0.31691  0.57780  0.48401  Biso   1.000  H
  O50      1.0000 0.31397  0.68148  0.48940  Biso   1.000  O
  C68      1.0000 0.30831  0.10389  0.42633  Biso   1.000  C
  C69      1.0000 0.60478  0.19262  0.41819  Biso   1.000  C
  H100     1.0000 0.06058  0.68291  0.60379  Biso   1.000  H
  O51      1.0000 0.05952  0.57833  0.59893  Biso   1.000  O
  H101     1.0000 0.86663  0.68238  0.57011  Biso   1.000  H
  H102     1.0000 0.25883  0.70328  0.48792  Biso   1.000  H
  H103     1.0000 0.32559  0.08740  0.39381  Biso   1.000  H
  C70      1.0000 0.21892  0.06131  0.44359  Biso   1.000  C
  O52      1.0000 0.39280  0.09456  0.45501  Biso   1.000  O
  C71      1.0000 0.64499  0.22067  0.45874  Biso   1.000  C
  C72      1.0000 0.64982  0.13248  0.39716  Biso   1.000  C
  C73      1.0000 0.03282  0.57372  0.64801  Biso   1.000  C
  H104     1.0000 0.23484  0.00971  0.44000  Biso   1.000  H
  C74      1.0000 0.19772  0.07610  0.49472  Biso   1.000  C
  O53      1.0000 0.13300  0.07722  0.41534  Biso   1.000  O
  C75      1.0000 0.37643  0.11662  0.50328  Biso   1.000  C
  H105     1.0000 0.61429  0.26098  0.47280  Biso   1.000  H
  C76      1.0000 0.72993  0.19092  0.47925  Biso   1.000  C
  C77      1.0000 0.73340  0.10220  0.41721  Biso   1.000  C
  H106     1.0000 0.62213  0.11312  0.36912  Biso   1.000  H
  H107     1.0000 0.00717  0.62049  0.65942  Biso   1.000  H
  C78      1.0000 0.12447  0.55197  0.67616  Biso   1.000  C
  C79      1.0000 0.94998  0.51861  0.65100  Biso   1.000  C
  H108     1.0000 0.16958  0.12511  0.49771  Biso   1.000  H
  C80      1.0000 0.29187  0.07069  0.52413  Biso   1.000  C
  O54      1.0000 0.12598  0.02652  0.51321  Biso   1.000  O
  H109     1.0000 0.12198  0.04349  0.39670  Biso   1.000  H
  H110     1.0000 0.35471  0.16737  0.50359  Biso   1.000  H
  C81      1.0000 0.47903  0.10989  0.52861  Biso   1.000  C
  H111     1.0000 0.75769  0.21049  0.50722  Biso   1.000  H
  C82      1.0000 0.77391  0.13131  0.45807  Biso   1.000  C
  H112     1.0000 0.76350  0.06152  0.40329  Biso   1.000  H
  H113     1.0000 0.15344  0.50811  0.66182  Biso   1.000  H
  C83      1.0000 0.20572  0.60840  0.67735  Biso   1.000  C
  O55      1.0000 0.09724  0.53681  0.72414  Biso   1.000  O
  C84      1.0000 0.92750  0.50138  0.70223  Biso   1.000  C
  H114     1.0000 0.97231  0.47449  0.63451  Biso   1.000  H
  O56      1.0000 0.85878  0.54402  0.62972  Biso   1.000  O
  H115     1.0000 0.31442  0.02010  0.52611  Biso   1.000  H
  O57      1.0000 0.26682  0.09652  0.57036  Biso   1.000  O
  H116     1.0000 0.06782  0.03803  0.50451  Biso   1.000  H
  H117     1.0000 0.47744  0.06688  0.54862  Biso   1.000  H
  H118     1.0000 0.53214  0.10289  0.50462  Biso   1.000  H
  O58      1.0000 0.50460  0.16419  0.55510  Biso   1.000  O
  C85      1.0000 0.86112  0.09981  0.47960  Biso   1.000  C
  H119     1.0000 0.26411  0.59101  0.69581  Biso   1.000  H
  H120     1.0000 0.22903  0.61848  0.64491  Biso   1.000  H
  O59      1.0000 0.16747  0.67172  0.69821  Biso   1.000  O
  C86      1.0000 0.02520  0.48282  0.72802  Biso   1.000  C
  H121     1.0000 0.89703  0.54418  0.71741  Biso   1.000  H
  O60      1.0000 0.85818  0.44384  0.70603  Biso   1.000  O
  H122     1.0000 0.87228  0.57780  0.61151  Biso   1.000  H
  C87      1.0000 0.30183  0.05961  0.61020  Biso   1.000  C
  H123     1.0000 0.49962  0.20179  0.53939  Biso   1.000  H
  N2       1.0000 0.93052  0.07690  0.49739  Biso   1.000  N
  H124     1.0000 0.20610  0.70566  0.69180  Biso   1.000  H
  H125     1.0000 0.00958  0.47518  0.76212  Biso   1.000  H
  O61      1.0000 0.06193  0.41875  0.70892  Biso   1.000  O
  H126     1.0000 0.86361  0.41759  0.68222  Biso   1.000  H
  H127     1.0000 0.34098  0.01718  0.59960  Biso   1.000  H
  C88      1.0000 0.21107  0.03458  0.63881  Biso   1.000  C
  O62      1.0000 0.36640  0.10442  0.63705  Biso   1.000  O
  C89      1.0000 0.09173  0.36418  0.74154  Biso   1.000  C
  H128     1.0000 0.23597  0.00520  0.66569  Biso   1.000  H
  C90      1.0000 0.15540  0.09859  0.65875  Biso   1.000  C
  O63      1.0000 0.14658  0.99183  0.61027  Biso   1.000  O
  C91      1.0000 0.31503  0.16759  0.65470  Biso   1.000  C
  C92      1.0000 0.02007  0.30160  0.73425  Biso   1.000  C
  C93      1.0000 0.20247  0.34509  0.73221  Biso   1.000  C
  H129     1.0000 0.08449  0.38237  0.77452  Biso   1.000  H
  H130     1.0000 0.12583  0.12648  0.63222  Biso   1.000  H
  C94      1.0000 0.22820  0.14531  0.68570  Biso   1.000  C
  O64      1.0000 0.07589  0.07340  0.68806  Biso   1.000  O
  H131     1.0000 0.14280  0.00949  0.58311  Biso   1.000  H
  H132     1.0000 0.28810  0.19532  0.62740  Biso   1.000  H
  C95      1.0000 0.39469  0.21038  0.67890  Biso   1.000  C
  C96      1.0000 0.05967  0.23701  0.76120  Biso   1.000  C
  H133     1.0000 0.01901  0.28967  0.69990  Biso   1.000  H
  O65      1.0000 0.92049  0.31931  0.74834  Biso   1.000  O
  O66      1.0000 0.22760  0.28325  0.75884  Biso   1.000  O
  H134     1.0000 0.21394  0.33660  0.69789  Biso   1.000  H
  C97      1.0000 0.27022  0.40348  0.74972  Biso   1.000  C
  H135     1.0000 0.25438  0.11927  0.71392  Biso   1.000  H
  O67      1.0000 0.17253  0.20619  0.70039  Biso   1.000  O
  H136     1.0000 0.04074  0.10782  0.69722  Biso   1.000  H
  H137     1.0000 0.36353  0.25069  0.69592  Biso   1.000  H
  H138     1.0000 0.43090  0.18047  0.70212  Biso   1.000  H
  O68      1.0000 0.46409  0.23632  0.64392  Biso   1.000  O
  C98      1.0000 0.16800  0.22380  0.74827  Biso   1.000  C
  H139     1.0000 0.05469  0.24608  0.79580  Biso   1.000  H
  O69      1.0000 0.00339  0.17538  0.74975  Biso   1.000  O
  H140     1.0000 0.89778  0.35129  0.73069  Biso   1.000  H
  H141     1.0000 0.24857  0.44919  0.73570  Biso   1.000  H
  H142     1.0000 0.26381  0.40751  0.78442  Biso   1.000  H
  O70      1.0000 0.37221  0.39049  0.73781  Biso   1.000  O
  H143     1.0000 0.50611  0.20439  0.63740  Biso   1.000  H
  H144     1.0000 0.19327  0.18259  0.76702  Biso   1.000  H
  H145     1.0000 0.94493  0.17899  0.76092  Biso   1.000  H
  H146     1.0000 0.38292  0.40390  0.71001  Biso   1.000  H
  C99      1.0000 0.47480  0.51718  0.22802  Biso   1.000  C
  O71      1.0000 0.40284  0.46319  0.22414  Biso   1.000  O
  C100     1.0000 0.57250  0.49857  0.20223  Biso   1.000  C
  H147     1.0000 0.49042  0.52477  0.26212  Biso   1.000  H
  O72      1.0000 0.43814  0.58125  0.20892  Biso   1.000  O
  C101     1.0000 0.37553  0.44797  0.17616  Biso   1.000  C
  C102     1.0000 0.55002  0.48139  0.15100  Biso   1.000  C
  H148     1.0000 0.60297  0.45577  0.21741  Biso   1.000  H
  O73      1.0000 0.64182  0.55611  0.20603  Biso   1.000  O
  C103     1.0000 0.40834  0.63577  0.24154  Biso   1.000  C
  C104     1.0000 0.29428  0.39160  0.17735  Biso   1.000  C
  C105     1.0000 0.46718  0.42628  0.14801  Biso   1.000  C
  H149     1.0000 0.34664  0.49189  0.16182  Biso   1.000  H
  H150     1.0000 0.52769  0.52551  0.13451  Biso   1.000  H
  O74      1.0000 0.64122  0.45598  0.12972  Biso   1.000  O
  H151     1.0000 0.63639  0.58241  0.18222  Biso   1.000  H
  C106     1.0000 0.47993  0.69840  0.23422  Biso   1.000  C
  H152     1.0000 0.41551  0.61758  0.27449  Biso   1.000  H
  C107     1.0000 0.29753  0.65491  0.23221  Biso   1.000  C
  O75      1.0000 0.33253  0.32822  0.19818  Biso   1.000  O
  H153     1.0000 0.23589  0.40899  0.19581  Biso   1.000  H
  H154     1.0000 0.27097  0.38147  0.14491  Biso   1.000  H
  H155     1.0000 0.49283  0.37951  0.15939  Biso   1.000  H
  O76      1.0000 0.44048  0.42167  0.09893  Biso   1.000  O
  H156     1.0000 0.62772  0.42220  0.11151  Biso   1.000  H
  C108     1.0000 0.44033  0.76299  0.26120  Biso   1.000  C
  H157     1.0000 0.48099  0.71028  0.19990  Biso   1.000  H
  O77      1.0000 0.57951  0.68063  0.24834  Biso   1.000  O
  H158     1.0000 0.28613  0.66340  0.19789  Biso   1.000  H
  C109     1.0000 0.22978  0.59647  0.24972  Biso   1.000  C
  O78      1.0000 0.27240  0.71675  0.25884  Biso   1.000  O
  H159     1.0000 0.29390  0.29428  0.19180  Biso   1.000  H
  C110     1.0000 0.43030  0.35368  0.07857  Biso   1.000  C
  C111     1.0000 0.33200  0.77620  0.24824  Biso   1.000  C
  H160     1.0000 0.44531  0.75387  0.29580  Biso   1.000  H
  O79      1.0000 0.49661  0.82457  0.24975  Biso   1.000  O
  H161     1.0000 0.60222  0.64871  0.23069  Biso   1.000  H
  H162     1.0000 0.25143  0.55081  0.23570  Biso   1.000  H
  H163     1.0000 0.23619  0.59249  0.28439  Biso   1.000  H
  O80      1.0000 0.12779  0.60951  0.23781  Biso   1.000  O
  H164     1.0000 0.43942  0.31709  0.10379  Biso   1.000  H
  C112     1.0000 0.51252  0.34350  0.04133  Biso   1.000  C
  O81      1.0000 0.33464  0.34631  0.05947  Biso   1.000  O
  H165     1.0000 0.30673  0.81741  0.26702  Biso   1.000  H
  O82      1.0000 0.32747  0.79381  0.20039  Biso   1.000  O
  H166     1.0000 0.55514  0.82101  0.26089  Biso   1.000  H
  H167     1.0000 0.11708  0.59610  0.21001  Biso   1.000  H
  H168     1.0000 0.50951  0.29402  0.02878  Biso   1.000  H
  C113     1.0000 0.49419  0.39669  0.00063  Biso   1.000  C
  O83      1.0000 0.60833  0.35617  0.06091  Biso   1.000  O
  C114     1.0000 0.31193  0.39807  0.02248  Biso   1.000  C
  C115     1.0000 0.27180  0.85469  0.18570  Biso   1.000  C
  H169     1.0000 0.50302  0.44617  0.01261  Biso   1.000  H
  C116     1.0000 0.38699  0.38720  0.98277  Biso   1.000  C
  O84      1.0000 0.56661  0.38322  0.96491  Biso   1.000  O
  H170     1.0000 0.63337  0.31762  0.07011  Biso   1.000  H
  H171     1.0000 0.31963  0.44707  0.03541  Biso   1.000  H
  C117     1.0000 0.20202  0.38640  0.00789  Biso   1.000  C
  C118     1.0000 0.34460  0.90141  0.15875  Biso   1.000  C
  H172     1.0000 0.24562  0.88067  0.21389  Biso   1.000  H
  C119     1.0000 0.18497  0.83236  0.15470  Biso   1.000  C
  H173     1.0000 0.37877  0.33851  0.96931  Biso   1.000  H
  O85      1.0000 0.37319  0.43853  0.94673  Biso   1.000  O
  H174     1.0000 0.54722  0.40152  0.93951  Biso   1.000  H
  H175     1.0000 0.15789  0.39330  0.03569  Biso   1.000  H
  H176     1.0000 0.18309  0.42220  0.98401  Biso   1.000  H
  O86      1.0000 0.18603  0.31852  0.98940  Biso   1.000  O
  C120     1.0000 0.28893  0.96537  0.13878  Biso   1.000  C
  H177     1.0000 0.37417  0.87346  0.13219  Biso   1.000  H
  O87      1.0000 0.42411  0.92660  0.18806  Biso   1.000  O
  H178     1.0000 0.21190  0.80468  0.12740  Biso   1.000  H
  C121     1.0000 0.10531  0.78956  0.17890  Biso   1.000  C
  O88      1.0000 0.13360  0.89558  0.13705  Biso   1.000  O
  C122     1.0000 0.34482  0.41340  0.90149  Biso   1.000  C
  H179     1.0000 0.24117  0.29667  0.98792  Biso   1.000  H
  C123     1.0000 0.19817  0.94039  0.11020  Biso   1.000  C
  H180     1.0000 0.26403  0.99480  0.16569  Biso   1.000  H
  O89      1.0000 0.35342  0.00811  0.11024  Biso   1.000  O
  H181     1.0000 0.45934  0.89218  0.19719  Biso   1.000  H
  H182     1.0000 0.13647  0.74931  0.19589  Biso   1.000  H
  H183     1.0000 0.06910  0.81947  0.20209  Biso   1.000  H
  O90      1.0000 0.03591  0.76368  0.14392  Biso   1.000  O
  H184     1.0000 0.35697  0.36111  0.90001  Biso   1.000  H
  C124     1.0000 0.41174  0.45010  0.86535  Biso   1.000  C
  O91      1.0000 0.24283  0.42665  0.89191  Biso   1.000  O
  H185     1.0000 0.15902  0.98276  0.09960  Biso   1.000  H
  O92      1.0000 0.23318  0.90348  0.07036  Biso   1.000  O
  H186     1.0000 0.35720  0.99051  0.08311  Biso   1.000  H
  H187     1.0000 0.99389  0.79561  0.13740  Biso   1.000  H
  H188     1.0000 0.40020  0.42840  0.83360  Biso   1.000  H
  C125     1.0000 0.38948  0.52827  0.86306  Biso   1.000  C
  O93      1.0000 0.51584  0.44113  0.87842  Biso   1.000  O
  C126     1.0000 0.21741  0.50148  0.89438  Biso   1.000  C
  C127     1.0000 0.20813  0.92931  0.02413  Biso   1.000  C
  H189     1.0000 0.41113  0.55049  0.89343  Biso   1.000  H
  C128     1.0000 0.27640  0.54110  0.85664  Biso   1.000  C
  O94      1.0000 0.44184  0.56226  0.82554  Biso   1.000  O
  H190     1.0000 0.54602  0.41817  0.85731  Biso   1.000  H
  H191     1.0000 0.23891  0.51978  0.92591  Biso   1.000  H
  C129     1.0000 0.10493  0.50811  0.89096  Biso   1.000  C
  H192     1.0000 0.18558  0.97990  0.02611  Biso   1.000  H
  C130     1.0000 0.12357  0.88338  0.00328  Biso   1.000  C
  C131     1.0000 0.30228  0.92390  0.99472  Biso   1.000  C
  H193     1.0000 0.25430  0.52588  0.82451  Biso   1.000  H
  O95      1.0000 0.26192  0.61620  0.86267  Biso   1.000  O
  H194     1.0000 0.47601  0.53209  0.81070  Biso   1.000  H
  H195     1.0000 0.07272  0.47979  0.91622  Biso   1.000  H
  H196     1.0000 0.08487  0.55828  0.89522  Biso   1.000  H
  O96      1.0000 0.07114  0.48329  0.84579  Biso   1.000  O
  H197     1.0000 0.14529  0.83257  0.00359  Biso   1.000  H
  C132     1.0000 0.02097  0.89006  0.02861  Biso   1.000  C
  O97      1.0000 0.10720  0.90544  0.95501  Biso   1.000  O
  O98      1.0000 0.37402  0.97348  0.01321  Biso   1.000  O
  C133     1.0000 0.28108  0.93869  0.94359  Biso   1.000  C
  H198     1.0000 0.33042  0.87489  0.99771  Biso   1.000  H
  C134     1.0000 0.19968  0.65412  0.83145  Biso   1.000  C
  H199     1.0000 0.02618  0.51061  0.83551  Biso   1.000  H
  H200     1.0000 0.02263  0.93307  0.04858  Biso   1.000  H
  H201     1.0000 0.96794  0.89706  0.00462  Biso   1.000  H
  O99      1.0000 0.99540  0.83581  0.05510  Biso   1.000  O
  C135     1.0000 0.19169  0.89611  0.92633  Biso   1.000  C
  H202     1.0000 0.43218  0.96197  0.00451  Biso   1.000  H
  H203     1.0000 0.26524  0.99029  0.94000  Biso   1.000  H
  O100     1.0000 0.36700  0.92278  0.91534  Biso   1.000  O
  H204     1.0000 0.18128  0.62357  0.80390  Biso   1.000  H
  C136     1.0000 0.26192  0.71791  0.81490  Biso   1.000  C
  O101     1.0000 0.11119  0.67750  0.85478  Biso   1.000  O
  H205     1.0000 0.00038  0.79821  0.03939  Biso   1.000  H
  O102     1.0000 0.21937  0.82324  0.92397  Biso   1.000  O
  H206     1.0000 0.17441  0.91260  0.89381  Biso   1.000  H
  H207     1.0000 0.37802  0.95646  0.89670  Biso   1.000  H
  H208     1.0000 0.22141  0.74618  0.79193  Biso   1.000  H
  C137     1.0000 0.28840  0.76411  0.85664  Biso   1.000  C
  O103     1.0000 0.35282  0.69241  0.79193  Biso   1.000  O
  C138     1.0000 0.13277  0.71807  0.89600  Biso   1.000  C
  C139     1.0000 0.19123  0.78479  0.88194  Biso   1.000  C
  H209     1.0000 0.33132  0.73600  0.87880  Biso   1.000  H
  O104     1.0000 0.34332  0.82409  0.84174  Biso   1.000  O
  H210     1.0000 0.38451  0.66578  0.81049  Biso   1.000  H
  H211     1.0000 0.17713  0.68891  0.91693  Biso   1.000  H
  C140     1.0000 0.03727  0.73117  0.92101  Biso   1.000  C
  H212     1.0000 0.14884  0.81550  0.86112  Biso   1.000  H
  H213     1.0000 0.33698  0.85670  0.86172  Biso   1.000  H
  H214     1.0000 0.99909  0.68631  0.92380  Biso   1.000  H
  O105     1.0000 0.97812  0.78224  0.89624  Biso   1.000  O
  H215     1.0000 0.05167  0.74878  0.95321  Biso   1.000  H
  C141     1.0000 0.89522  0.80738  0.91819  Biso   1.000  C
  C142     1.0000 0.85501  0.77927  0.95874  Biso   1.000  C
  C143     1.0000 0.85018  0.86747  0.89716  Biso   1.000  C
  H216     1.0000 0.88571  0.73897  0.97280  Biso   1.000  H
  C144     1.0000 0.77014  0.80908  0.97925  Biso   1.000  C
  C145     1.0000 0.76660  0.89780  0.91721  Biso   1.000  C
  H217     1.0000 0.87794  0.88688  0.86912  Biso   1.000  H
  C146     1.0000 0.72609  0.86869  0.95807  Biso   1.000  C
  H218     1.0000 0.74231  0.78951  0.00719  Biso   1.000  H
  H219     1.0000 0.73650  0.93848  0.90333  Biso   1.000  H
  C147     1.0000 0.63888  0.90019  0.97960  Biso   1.000  C
  N3       1.0000 0.56948  0.92310  0.99743  Biso   1.000  N
  C148     1.0000 0.83200  0.72380  0.75176  Biso   1.000  C
  H220     1.0000 0.80673  0.68259  0.73302  Biso   1.000  H
  C149     1.0000 0.94033  0.73701  0.73883  Biso   1.000  C
  O106     1.0000 0.82755  0.70619  0.79961  Biso   1.000  O
  O107     1.0000 0.77240  0.78325  0.74116  Biso   1.000  O
  H221     1.0000 0.94531  0.74608  0.70420  Biso   1.000  H
  C150     1.0000 0.97993  0.80160  0.76578  Biso   1.000  C
  O108     1.0000 0.99661  0.67538  0.75025  Biso   1.000  O
  C151     1.0000 0.77180  0.64531  0.81430  Biso   1.000  C
  C152     1.0000 0.79753  0.84509  0.76779  Biso   1.000  C
  H222     1.0000 0.98099  0.78967  0.80010  Biso   1.000  H
  C153     1.0000 0.90834  0.86418  0.75846  Biso   1.000  C
  O109     1.0000 0.07951  0.81931  0.75166  Biso   1.000  O
  H223     1.0000 0.05507  0.67899  0.73911  Biso   1.000  H
  C154     1.0000 0.84460  0.59859  0.84128  Biso   1.000  C
  H224     1.0000 0.74562  0.61927  0.78611  Biso   1.000  H
  C155     1.0000 0.68497  0.66759  0.84530  Biso   1.000  C
  H225     1.0000 0.78613  0.83660  0.80211  Biso   1.000  H
  C156     1.0000 0.72978  0.90348  0.75032  Biso   1.000  C
  H226     1.0000 0.91551  0.88237  0.72551  Biso   1.000  H
  O110     1.0000 0.93814  0.91875  0.79111  Biso   1.000  O
  H227     1.0000 0.10222  0.85129  0.76931  Biso   1.000  H
  C157     1.0000 0.78893  0.53458  0.86122  Biso   1.000  C
  H228     1.0000 0.87425  0.62648  0.86781  Biso   1.000  H
  O111     1.0000 0.92411  0.57340  0.81197  Biso   1.000  O
  H229     1.0000 0.71190  0.69527  0.87260  Biso   1.000  H
  C158     1.0000 0.60531  0.71038  0.82110  Biso   1.000  C
  O112     1.0000 0.63360  0.60442  0.86299  Biso   1.000  O
  H230     1.0000 0.75143  0.94919  0.76430  Biso   1.000  H
  H231     1.0000 0.73619  0.90751  0.71561  Biso   1.000  H
  O113     1.0000 0.62779  0.89049  0.76223  Biso   1.000  O
  C159     1.0000 0.97480  0.98276  0.77198  Biso   1.000  C
  C160     1.0000 0.69817  0.55961  0.88980  Biso   1.000  C
  H232     1.0000 0.76403  0.50520  0.83431  Biso   1.000  H
  O114     1.0000 0.85342  0.49189  0.88976  Biso   1.000  O
  H233     1.0000 0.95934  0.60776  0.80281  Biso   1.000  H
  H234     1.0000 0.63654  0.75069  0.80411  Biso   1.000  H
  H235     1.0000 0.56910  0.68047  0.79791  Biso   1.000  H
  O115     1.0000 0.53591  0.73626  0.85612  Biso   1.000  O
  H236     1.0000 0.61708  0.90390  0.79002  Biso   1.000  H
  H237     1.0000 0.99042  0.97518  0.73792  Biso   1.000  H
  O116     1.0000 0.90284  0.03681  0.77589  Biso   1.000  O
  C161     1.0000 0.07250  0.00138  0.79781  Biso   1.000  C
  H238     1.0000 0.65902  0.51718  0.90040  Biso   1.000  H
  O117     1.0000 0.73318  0.59652  0.92964  Biso   1.000  O
  H239     1.0000 0.85720  0.50949  0.91693  Biso   1.000  H
  H240     1.0000 0.49389  0.70439  0.86260  Biso   1.000  H
  C162     1.0000 0.87553  0.05197  0.82388  Biso   1.000  C
  O118     1.0000 0.14182  0.94384  0.79400  Biso   1.000  O
  H241     1.0000 0.10297  0.04418  0.78262  Biso   1.000  H
  C163     1.0000 0.05002  0.01861  0.84903  Biso   1.000  C
  C164     1.0000 0.70813  0.57069  0.97587  Biso   1.000  C
  C165     1.0000 0.96718  0.07372  0.85199  Biso   1.000  C
  H242     1.0000 0.84664  0.00811  0.83822  Biso   1.000  H
  C166     1.0000 0.79428  0.10840  0.82268  Biso   1.000  C
  H243     1.0000 0.13639  0.91759  0.81782  Biso   1.000  H
  H244     1.0000 0.02769  0.97449  0.86552  Biso   1.000  H
  O119     1.0000 0.14122  0.04402  0.87031  Biso   1.000  O
  H245     1.0000 0.68558  0.52010  0.97389  Biso   1.000  H
  C167     1.0000 0.62364  0.61657  0.99676  Biso   1.000  C
  C168     1.0000 0.80228  0.57610  0.00528  Biso   1.000  C
  H246     1.0000 0.99283  0.12049  0.84061  Biso   1.000  H
  O120     1.0000 0.94048  0.07833  0.90107  Biso   1.000  O
  H247     1.0000 0.73589  0.09101  0.80422  Biso   1.000  H
  H248     1.0000 0.77105  0.11848  0.85509  Biso   1.000  H
  O121     1.0000 0.83253  0.17172  0.80182  Biso   1.000  O
  H249     1.0000 0.12772  0.07780  0.88849  Biso   1.000  H
  H250     1.0000 0.64529  0.66737  0.99641  Biso   1.000  H
  C169     1.0000 0.52097  0.60989  0.97143  Biso   1.000  C
  O122     1.0000 0.60720  0.59456  0.04503  Biso   1.000  O
  O123     1.0000 0.87402  0.52652  0.98679  Biso   1.000  O
  C170     1.0000 0.78108  0.56131  0.05641  Biso   1.000  C
  H251     1.0000 0.83042  0.62511  0.00229  Biso   1.000  H
  C171     1.0000 0.93030  0.14632  0.92143  Biso   1.000  C
  H252     1.0000 0.79390  0.20572  0.80820  Biso   1.000  H
  H253     1.0000 0.52263  0.56688  0.95142  Biso   1.000  H
  H254     1.0000 0.46794  0.60289  0.99542  Biso   1.000  H
  O124     1.0000 0.49540  0.66419  0.94490  Biso   1.000  O
  C172     1.0000 0.69169  0.60389  0.07367  Biso   1.000  C
  H255     1.0000 0.93218  0.53797  0.99553  Biso   1.000  H
  H256     1.0000 0.76524  0.50971  0.06000  Biso   1.000  H
  O125     1.0000 0.86700  0.57722  0.08466  Biso   1.000  O
  H257     1.0000 0.93942  0.18291  0.89621  Biso   1.000  H
  O126     1.0000 0.83464  0.15369  0.94053  Biso   1.000  O
  C173     1.0000 0.01252  0.15650  0.95867  Biso   1.000  C
  H258     1.0000 0.50038  0.70179  0.96061  Biso   1.000  H
  H259     1.0000 0.67441  0.58740  0.10619  Biso   1.000  H
  O127     1.0000 0.71945  0.67676  0.07603  Biso   1.000  O
  H260     1.0000 0.87802  0.54349  0.10330  Biso   1.000  H
  C174     1.0000 0.81193  0.10188  0.97756  Biso   1.000  C
  C175     1.0000 0.99419  0.10331  0.99937  Biso   1.000  C
  H261     1.0000 0.00951  0.20598  0.97122  Biso   1.000  H
  O128     1.0000 0.10833  0.14377  0.93909  Biso   1.000  O
  C176     1.0000 0.69123  0.71521  0.11806  Biso   1.000  C
  H262     1.0000 0.81963  0.05287  0.96459  Biso   1.000  H
  C177     1.0000 0.70202  0.11360  0.99211  Biso   1.000  C
  C178     1.0000 0.88699  0.11280  0.01723  Biso   1.000  C
  H263     1.0000 0.00302  0.05378  0.98742  Biso   1.000  H
  O129     1.0000 0.06661  0.11678  0.03513  Biso   1.000  O
  H264     1.0000 0.13337  0.18238  0.92993  Biso   1.000  H
  C179     1.0000 0.78840  0.73589  0.14336  Biso   1.000  C
  H265     1.0000 0.64884  0.68450  0.13892  Biso   1.000  H
  C180     1.0000 0.63285  0.78187  0.10404  Biso   1.000  C
  H266     1.0000 0.65789  0.10670  0.96431  Biso   1.000  H
  H267     1.0000 0.68309  0.07780  0.01599  Biso   1.000  H
  O130     1.0000 0.68603  0.18148  0.01060  Biso   1.000  O
  H268     1.0000 0.87885  0.16149  0.03069  Biso   1.000  H
  O131     1.0000 0.87319  0.06141  0.05327  Biso   1.000  O
  H269     1.0000 0.04722  0.09848  0.06049  Biso   1.000  H
  C181     1.0000 0.76192  0.78209  0.18514  Biso   1.000  C
  H270     1.0000 0.83132  0.76400  0.12120  Biso   1.000  H
  O132     1.0000 0.84332  0.67591  0.15826  Biso   1.000  O
  H271     1.0000 0.67713  0.81109  0.08311  Biso   1.000  H
  C182     1.0000 0.53734  0.76877  0.07899  Biso   1.000  C
  O133     1.0000 0.61119  0.82244  0.14522  Biso   1.000  O
  H272     1.0000 0.74117  0.20328  0.01208  Biso   1.000  H
  C183     1.0000 0.84482  0.08660  0.09851  Biso   1.000  C
  C184     1.0000 0.69968  0.84588  0.16855  Biso   1.000  C
  H273     1.0000 0.72141  0.75377  0.20811  Biso   1.000  H
  O134     1.0000 0.85282  0.80759  0.20807  Biso   1.000  O
  H274     1.0000 0.83698  0.64330  0.13832  Biso   1.000  H
  H275     1.0000 0.49909  0.81369  0.07620  Biso   1.000  H
  H276     1.0000 0.55167  0.75117  0.04679  Biso   1.000  H
  O135     1.0000 0.47812  0.71770  0.10379  Biso   1.000  O
  H277     1.0000 0.85705  0.13889  0.09999  Biso   1.000  H
  C185     1.0000 0.91174  0.04990  0.13469  Biso   1.000  C
  O136     1.0000 0.74283  0.07335  0.10809  Biso   1.000  O
  H278     1.0000 0.68128  0.87638  0.19610  Biso   1.000  H
  O137     1.0000 0.76192  0.88375  0.13733  Biso   1.000  O
  H279     1.0000 0.88451  0.83416  0.18951  Biso   1.000  H
  C186     1.0000 0.39522  0.69256  0.08181  Biso   1.000  C
  C187     1.0000 0.88948  0.97168  0.13698  Biso   1.000  C
  H280     1.0000 0.90020  0.07160  0.16640  Biso   1.000  H
  O138     1.0000 0.01577  0.05887  0.12158  Biso   1.000  O
  C188     1.0000 0.71741  0.99846  0.10566  Biso   1.000  C
  C189     1.0000 0.77640  0.95890  0.14339  Biso   1.000  C
  C190     1.0000 0.35501  0.72067  0.04126  Biso   1.000  C
  C191     1.0000 0.35018  0.63248  0.10284  Biso   1.000  C
  H281     1.0000 0.91113  0.94946  0.10661  Biso   1.000  H
  O139     1.0000 0.94184  0.93769  0.17450  Biso   1.000  O
  H282     1.0000 0.04602  0.08178  0.14269  Biso   1.000  H
  H283     1.0000 0.73891  0.98017  0.07409  Biso   1.000  H
  C192     1.0000 0.60493  0.99189  0.10908  Biso   1.000  C
  H284     1.0000 0.75430  0.97407  0.17549  Biso   1.000  H
  H285     1.0000 0.38571  0.76098  0.02720  Biso   1.000  H
  C193     1.0000 0.27007  0.69087  0.02075  Biso   1.000  C
  C194     1.0000 0.26660  0.60220  0.08279  Biso   1.000  C
  H286     1.0000 0.37794  0.61307  0.13092  Biso   1.000  H
  H287     1.0000 0.97601  0.96786  0.18930  Biso   1.000  H
  H288     1.0000 0.58494  0.94166  0.10481  Biso   1.000  H
  H289     1.0000 0.57272  0.02021  0.08381  Biso   1.000  H
  O140     1.0000 0.57114  0.01671  0.15421  Biso   1.000  O
  H290     1.0000 0.24231  0.71049  0.99281  Biso   1.000  H
  C195     1.0000 0.22609  0.63131  0.04193  Biso   1.000  C
  H291     1.0000 0.23650  0.56147  0.09671  Biso   1.000  H
  H292     1.0000 0.52618  0.98939  0.16449  Biso   1.000  H
  C196     1.0000 0.13888  0.59981  0.02040  Biso   1.000  C
  N4       1.0000 0.06948  0.57690  0.00261  Biso   1.000  N
  Ne1      1.0000 0.23346  0.33434  0.53733  Biso   1.000  Ne
  He1      1.0000 0.26430  0.35799  0.54609  Biso   1.000  He
  He2      1.0000 0.00494  0.32272  0.51951  Biso   1.000  He
  Ar1      1.0000 0.04074  0.32958  0.52285  Biso   1.000  Ar
  Ne2      1.0000 0.26655  0.66564  0.03733  Biso   1.000  Ne
  He3      1.0000 0.08136  0.59663  0.04657  Biso   1.000  He
  He4      1.0000 0.30978  0.65662  0.03989  Biso   1.000  He
  Ar2      1.0000 0.28262  0.65124  0.04218  Biso   1.000  Ar
  Ne3      1.0000 0.73347  0.16564  0.46268  Biso   1.000  Ne
  He5      1.0000 0.69195  0.15630  0.46000  Biso   1.000  He
  He6      1.0000 0.82232  0.12425  0.45466  Biso   1.000  He
  Ar3      1.0000 0.71905  0.15148  0.45785  Biso   1.000  Ar
  Ne4      1.0000 0.76655  0.83434  0.96268  Biso   1.000  Ne
  He7      1.0000 0.79756  0.84573  0.95910  Biso   1.000  He
  He8      1.0000 0.60725  0.89745  0.95380  Biso   1.000  He
  Ar4      1.0000 0.78205  0.84880  0.95779  Biso   1.000  Ar
