data_image0
_cell_length_a       20.852
_cell_length_b       14.75
_cell_length_c       30.387
_cell_angle_alpha    90
_cell_angle_beta     92.45
_cell_angle_gamma    90

_symmetry_space_group_name_H-M    "P 1"
_symmetry_int_tables_number       1

loop_
  _symmetry_equiv_pos_as_xyz
  'x, y, z'

loop_
  _atom_site_label
  _atom_site_occupancy
  _atom_site_fract_x
  _atom_site_fract_y
  _atom_site_fract_z
  _atom_site_thermal_displace_type
  _atom_site_B_iso_or_equiv
  _atom_site_type_symbol
  C1       1.0000 0.44002  0.61037  0.48914  Biso   1.000  C
  C2       1.0000 0.40756  0.61437  0.44840  Biso   1.000  C
  H1       1.0000 0.47602  0.64881  0.49491  Biso   1.000  H
  C3       1.0000 0.42090  0.55139  0.52162  Biso   1.000  C
  C4       1.0000 0.43169  0.68068  0.41384  Biso   1.000  C
  C5       1.0000 0.35417  0.55858  0.44049  Biso   1.000  C
  C6       1.0000 0.36827  0.49458  0.51358  Biso   1.000  C
  O1       1.0000 0.45086  0.54312  0.56227  Biso   1.000  O
  C7       1.0000 0.39241  0.67722  0.36990  Biso   1.000  C
  C8       1.0000 0.50241  0.66102  0.40442  Biso   1.000  C
  C9       1.0000 0.42730  0.77769  0.43275  Biso   1.000  C
  C10      1.0000 0.33450  0.49973  0.47350  Biso   1.000  C
  H2       1.0000 0.33125  0.56061  0.41279  Biso   1.000  H
  O2       1.0000 0.35113  0.42671  0.54250  Biso   1.000  O
  C11      1.0000 0.50869  0.59498  0.57063  Biso   1.000  C
  C12      1.0000 0.41753  0.74658  0.33660  Biso   1.000  C
  H3       1.0000 0.39493  0.61539  0.35729  Biso   1.000  H
  H4       1.0000 0.34675  0.69017  0.37521  Biso   1.000  H
  C13      1.0000 0.52774  0.73051  0.37290  Biso   1.000  C
  H5       1.0000 0.50597  0.59973  0.39151  Biso   1.000  H
  H6       1.0000 0.52866  0.66237  0.43229  Biso   1.000  H
  C14      1.0000 0.45243  0.84942  0.40116  Biso   1.000  C
  H7       1.0000 0.45252  0.78081  0.46111  Biso   1.000  H
  H8       1.0000 0.38207  0.79139  0.43871  Biso   1.000  H
  O3       1.0000 0.28331  0.44190  0.46849  Biso   1.000  O
  C15      1.0000 0.33640  0.45329  0.58638  Biso   1.000  C
  H9       1.0000 0.49893  0.65980  0.56790  Biso   1.000  H
  H10      1.0000 0.52604  0.58210  0.60051  Biso   1.000  H
  H11      1.0000 0.54045  0.57831  0.54919  Biso   1.000  H
  C16      1.0000 0.37660  0.74502  0.29401  Biso   1.000  C
  C17      1.0000 0.48884  0.72651  0.32899  Biso   1.000  C
  C18      1.0000 0.41368  0.84197  0.35726  Biso   1.000  C
  H12      1.0000 0.57373  0.71668  0.36760  Biso   1.000  H
  C19      1.0000 0.52309  0.82529  0.39293  Biso   1.000  C
  C20      1.0000 0.44763  0.94508  0.41961  Biso   1.000  C
  C21      1.0000 0.24277  0.45071  0.42969  Biso   1.000  C
  C22      1.0000 0.28196  0.51519  0.58852  Biso   1.000  C
  H13      1.0000 0.32721  0.39817  0.60361  Biso   1.000  H
  H14      1.0000 0.37474  0.48278  0.60051  Biso   1.000  H
  C23      1.0000 0.31094  0.76271  0.29457  Biso   1.000  C
  C24      1.0000 0.40346  0.73193  0.25330  Biso   1.000  C
  H15      1.0000 0.50578  0.77159  0.30831  Biso   1.000  H
  H16      1.0000 0.49295  0.66563  0.31569  Biso   1.000  H
  H17      1.0000 0.36823  0.85668  0.36210  Biso   1.000  H
  H18      1.0000 0.43008  0.88712  0.33641  Biso   1.000  H
  H19      1.0000 0.54863  0.82759  0.42109  Biso   1.000  H
  H20      1.0000 0.54096  0.87037  0.37270  Biso   1.000  H
  C25      1.0000 0.42733  0.95993  0.46240  Biso   1.000  C
  C26      1.0000 0.46309  0.01912  0.39438  Biso   1.000  C
  H21      1.0000 0.26786  0.43912  0.40370  Biso   1.000  H
  H22      1.0000 0.20753  0.40678  0.43061  Biso   1.000  H
  H23      1.0000 0.22516  0.51227  0.42811  Biso   1.000  H
  C27      1.0000 0.23872  0.56603  0.59494  Biso   1.000  C
  C28      1.0000 0.27314  0.76427  0.25594  Biso   1.000  C
  H24      1.0000 0.29187  0.77390  0.32191  Biso   1.000  H
  C29      1.0000 0.36598  0.73539  0.21437  Biso   1.000  C
  H25      1.0000 0.44818  0.72027  0.25211  Biso   1.000  H
  H26      1.0000 0.41465  0.91003  0.47979  Biso   1.000  H
  C30      1.0000 0.42571  0.04732  0.47952  Biso   1.000  C
  H27      1.0000 0.47525  0.01017  0.36490  Biso   1.000  H
  C31      1.0000 0.46108  0.10631  0.41144  Biso   1.000  C
  C32      1.0000 0.18901  0.62163  0.60680  Biso   1.000  C
  C33      1.0000 0.30060  0.74902  0.21559  Biso   1.000  C
  O4       1.0000 0.20849  0.78217  0.25360  Biso   1.000  O
  O5       1.0000 0.39489  0.72102  0.17491  Biso   1.000  O
  C34      1.0000 0.44406  0.12027  0.45459  Biso   1.000  C
  O6       1.0000 0.40587  0.06766  0.52050  Biso   1.000  O
  O7       1.0000 0.47699  0.18224  0.38809  Biso   1.000  O
  C35      1.0000 0.14880  0.66807  0.62182  Biso   1.000  C
  O8       1.0000 0.26245  0.75207  0.17751  Biso   1.000  O
  C36      1.0000 0.18304  0.82820  0.29009  Biso   1.000  C
  C37      1.0000 0.39347  0.79722  0.14592  Biso   1.000  C
  O9       1.0000 0.44687  0.20719  0.47198  Biso   1.000  O
  C38      1.0000 0.38381  0.99559  0.54682  Biso   1.000  C
  C39      1.0000 0.45857  0.18020  0.34187  Biso   1.000  C
  C40      1.0000 0.10292  0.71973  0.64679  Biso   1.000  C
  C41      1.0000 0.25476  0.66529  0.15643  Biso   1.000  C
  H28      1.0000 0.20924  0.88183  0.29721  Biso   1.000  H
  H29      1.0000 0.13874  0.84692  0.28258  Biso   1.000  H
  H30      1.0000 0.18348  0.78759  0.31559  Biso   1.000  H
  H31      1.0000 0.41226  0.84990  0.16130  Biso   1.000  H
  H32      1.0000 0.41819  0.78339  0.12010  Biso   1.000  H
  H33      1.0000 0.34900  0.81071  0.13650  Biso   1.000  H
  C42      1.0000 0.38502  0.24807  0.47607  Biso   1.000  C
  H34      1.0000 0.41842  0.95139  0.55189  Biso   1.000  H
  H35      1.0000 0.34704  0.96603  0.53160  Biso   1.000  H
  H36      1.0000 0.37061  0.01959  0.57511  Biso   1.000  H
  H37      1.0000 0.41497  0.15573  0.33799  Biso   1.000  H
  H38      1.0000 0.45964  0.24190  0.32988  Biso   1.000  H
  H39      1.0000 0.48843  0.14169  0.32629  Biso   1.000  H
  O10      1.0000 0.09438  0.81173  0.63134  Biso   1.000  O
  H40      1.0000 0.11792  0.72088  0.67811  Biso   1.000  H
  H41      1.0000 0.06104  0.68827  0.64491  Biso   1.000  H
  C43      1.0000 0.21760  0.60393  0.18268  Biso   1.000  C
  H42      1.0000 0.23288  0.67329  0.12711  Biso   1.000  H
  H43      1.0000 0.29760  0.63851  0.15201  Biso   1.000  H
  C44      1.0000 0.34913  0.25593  0.43423  Biso   1.000  C
  H44      1.0000 0.35991  0.21153  0.49649  Biso   1.000  H
  H45      1.0000 0.39072  0.30929  0.48911  Biso   1.000  H
  C45      1.0000 0.07356  0.81993  0.58812  Biso   1.000  C
  C46      1.0000 0.18425  0.55512  0.20402  Biso   1.000  C
  C47      1.0000 0.31615  0.25980  0.40067  Biso   1.000  C
  C48      1.0000 0.11085  0.86861  0.55930  Biso   1.000  C
  C49      1.0000 0.01372  0.78780  0.57281  Biso   1.000  C
  C50      1.0000 0.14309  0.50183  0.22682  Biso   1.000  C
  C51      1.0000 0.27584  0.26258  0.36328  Biso   1.000  C
  C52      1.0000 0.08978  0.88231  0.51586  Biso   1.000  C
  O11      1.0000 0.16667  0.90258  0.57765  Biso   1.000  O
  C53      1.0000 0.99321  0.80129  0.52923  Biso   1.000  C
  O12      1.0000 0.97882  0.74563  0.60390  Biso   1.000  O
  C54      1.0000 0.10529  0.45580  0.24516  Biso   1.000  C
  C55      1.0000 0.23954  0.26278  0.33242  Biso   1.000  C
  C56      1.0000 0.03182  0.84692  0.50001  Biso   1.000  C
  H46      1.0000 0.11545  0.91641  0.49678  Biso   1.000  H
  C57      1.0000 0.20110  0.96678  0.55298  Biso   1.000  C
  H47      1.0000 0.95234  0.77932  0.51908  Biso   1.000  H
  C58      1.0000 0.91280  0.72929  0.59415  Biso   1.000  C
  C59      1.0000 0.05557  0.40190  0.26536  Biso   1.000  C
  C60      1.0000 0.19358  0.25858  0.29444  Biso   1.000  C
  C61      1.0000 0.01123  0.85308  0.45120  Biso   1.000  C
  H48      1.0000 0.23602  0.99261  0.57159  Biso   1.000  H
  H49      1.0000 0.21903  0.93668  0.52748  Biso   1.000  H
  H50      1.0000 0.17203  0.01539  0.54280  Biso   1.000  H
  H51      1.0000 0.90803  0.68780  0.56909  Biso   1.000  H
  H52      1.0000 0.89340  0.70217  0.61991  Biso   1.000  H
  H53      1.0000 0.89125  0.78671  0.58681  Biso   1.000  H
  H54      1.0000 0.06045  0.33769  0.25669  Biso   1.000  H
  H55      1.0000 0.01299  0.42271  0.25389  Biso   1.000  H
  O13      1.0000 0.05778  0.40780  0.31236  Biso   1.000  O
  O14      1.0000 0.18537  0.16759  0.27889  Biso   1.000  O
  H56      1.0000 0.20906  0.29702  0.27040  Biso   1.000  H
  H57      1.0000 0.15167  0.28292  0.30301  Biso   1.000  H
  C62      1.0000 0.02281  0.75980  0.42998  Biso   1.000  C
  C63      1.0000 0.05017  0.92427  0.42666  Biso   1.000  C
  C64      1.0000 0.93971  0.87742  0.44487  Biso   1.000  C
  C65      1.0000 0.04479  0.49390  0.32787  Biso   1.000  C
  C66      1.0000 0.14758  0.11410  0.30515  Biso   1.000  C
  C67      1.0000 0.00277  0.75939  0.38005  Biso   1.000  C
  H58      1.0000 0.06884  0.74400  0.43371  Biso   1.000  H
  H59      1.0000 0.99786  0.71308  0.44520  Biso   1.000  H
  C68      1.0000 0.03050  0.92868  0.37728  Biso   1.000  C
  H60      1.0000 0.04372  0.98461  0.44010  Biso   1.000  H
  H61      1.0000 0.09647  0.90929  0.42998  Biso   1.000  H
  C69      1.0000 0.92015  0.87817  0.39570  Biso   1.000  C
  H62      1.0000 0.93183  0.93783  0.45769  Biso   1.000  H
  H63      1.0000 0.91353  0.83241  0.46029  Biso   1.000  H
  C70      1.0000 0.09348  0.54922  0.34438  Biso   1.000  C
  C71      1.0000 0.98154  0.52597  0.32718  Biso   1.000  C
  C72      1.0000 0.17603  0.05268  0.33449  Biso   1.000  C
  C73      1.0000 0.08143  0.11620  0.29951  Biso   1.000  C
  C74      1.0000 0.01735  0.66617  0.36091  Biso   1.000  C
  C75      1.0000 0.04212  0.83288  0.35735  Biso   1.000  C
  C76      1.0000 0.93185  0.78563  0.37557  Biso   1.000  C
  C77      1.0000 0.07197  0.99688  0.35320  Biso   1.000  C
  C78      1.0000 0.95873  0.94963  0.37218  Biso   1.000  C
  H64      1.0000 0.87346  0.89322  0.39210  Biso   1.000  H
  C79      1.0000 0.08042  0.63417  0.36104  Biso   1.000  C
  O15      1.0000 0.15485  0.51322  0.34415  Biso   1.000  O
  C80      1.0000 0.96830  0.61058  0.34329  Biso   1.000  C
  O16      1.0000 0.93635  0.46875  0.30860  Biso   1.000  O
  C81      1.0000 0.13834  0.99559  0.35841  Biso   1.000  C
  O17      1.0000 0.24194  0.05247  0.33631  Biso   1.000  O
  C82      1.0000 0.04386  0.05892  0.32382  Biso   1.000  C
  O18      1.0000 0.05701  0.17769  0.26924  Biso   1.000  O
  H65      1.0000 0.08836  0.81783  0.36071  Biso   1.000  H
  H66      1.0000 0.03006  0.83383  0.32550  Biso   1.000  H
  H67      1.0000 0.90587  0.73959  0.39049  Biso   1.000  H
  H68      1.0000 0.91794  0.78651  0.34401  Biso   1.000  H
  H69      1.0000 0.94534  0.95078  0.34049  Biso   1.000  H
  H70      1.0000 0.95016  0.01010  0.38479  Biso   1.000  H
  H71      1.0000 0.11458  0.67098  0.37270  Biso   1.000  H
  C83      1.0000 0.20426  0.57600  0.33436  Biso   1.000  C
  H72      1.0000 0.92527  0.63173  0.34240  Biso   1.000  H
  C84      1.0000 0.87208  0.50190  0.30455  Biso   1.000  C
  H73      1.0000 0.15827  0.95458  0.37890  Biso   1.000  H
  C85      1.0000 0.27341  0.01620  0.37504  Biso   1.000  C
  H74      1.0000 0.99838  0.06210  0.32040  Biso   1.000  H
  C86      1.0000 0.98878  0.18007  0.26256  Biso   1.000  C
  H75      1.0000 0.21147  0.61749  0.35920  Biso   1.000  H
  H76      1.0000 0.24403  0.54278  0.32919  Biso   1.000  H
  H77      1.0000 0.19135  0.61058  0.30791  Biso   1.000  H
  H78      1.0000 0.87055  0.55532  0.28538  Biso   1.000  H
  H79      1.0000 0.84405  0.45458  0.29181  Biso   1.000  H
  H80      1.0000 0.85754  0.51837  0.33370  Biso   1.000  H
  H81      1.0000 0.26633  0.95051  0.37610  Biso   1.000  H
  H82      1.0000 0.31956  0.02847  0.37448  Biso   1.000  H
  H83      1.0000 0.25595  0.04447  0.40110  Biso   1.000  H
  H84      1.0000 0.96917  0.19512  0.29039  Biso   1.000  H
  H85      1.0000 0.97709  0.22617  0.24039  Biso   1.000  H
  H86      1.0000 0.97337  0.12068  0.25231  Biso   1.000  H
  O19      1.0000 0.54899  0.45688  0.43773  Biso   1.000  O
  C87      1.0000 0.49116  0.40502  0.42936  Biso   1.000  C
  C88      1.0000 0.57896  0.44861  0.47837  Biso   1.000  C
  H87      1.0000 0.50092  0.34020  0.43209  Biso   1.000  H
  H88      1.0000 0.47386  0.41790  0.39948  Biso   1.000  H
  H89      1.0000 0.45946  0.42169  0.45080  Biso   1.000  H
  C89      1.0000 0.55988  0.38963  0.51085  Biso   1.000  C
  C90      1.0000 0.63159  0.50542  0.48641  Biso   1.000  C
  C91      1.0000 0.59229  0.38563  0.55160  Biso   1.000  C
  H90      1.0000 0.52384  0.35119  0.50509  Biso   1.000  H
  C92      1.0000 0.66535  0.50027  0.52650  Biso   1.000  C
  O20      1.0000 0.64878  0.57329  0.45749  Biso   1.000  O
  C93      1.0000 0.56821  0.31932  0.58615  Biso   1.000  C
  C94      1.0000 0.64568  0.44142  0.55950  Biso   1.000  C
  O21      1.0000 0.71659  0.55810  0.53150  Biso   1.000  O
  C95      1.0000 0.66350  0.54671  0.41361  Biso   1.000  C
  C96      1.0000 0.49744  0.33898  0.59560  Biso   1.000  C
  C97      1.0000 0.57255  0.22231  0.56724  Biso   1.000  C
  C98      1.0000 0.60745  0.32278  0.63012  Biso   1.000  C
  H91      1.0000 0.66861  0.43939  0.58720  Biso   1.000  H
  C99      1.0000 0.75709  0.54929  0.57030  Biso   1.000  C
  C100     1.0000 0.71789  0.48481  0.41147  Biso   1.000  C
  H92      1.0000 0.67264  0.60183  0.39639  Biso   1.000  H
  H93      1.0000 0.62516  0.51722  0.39948  Biso   1.000  H
  C101     1.0000 0.47212  0.26949  0.62712  Biso   1.000  C
  H94      1.0000 0.49393  0.40027  0.60851  Biso   1.000  H
  H95      1.0000 0.47125  0.33763  0.56770  Biso   1.000  H
  H96      1.0000 0.54734  0.21919  0.53891  Biso   1.000  H
  H97      1.0000 0.61784  0.20861  0.56131  Biso   1.000  H
  C102     1.0000 0.54742  0.15058  0.59883  Biso   1.000  C
  C103     1.0000 0.58238  0.25342  0.66339  Biso   1.000  C
  H98      1.0000 0.60492  0.38461  0.64270  Biso   1.000  H
  H99      1.0000 0.65311  0.30983  0.62479  Biso   1.000  H
  H100     1.0000 0.73204  0.56088  0.59629  Biso   1.000  H
  H101     1.0000 0.79233  0.59322  0.56938  Biso   1.000  H
  H102     1.0000 0.77474  0.48773  0.57189  Biso   1.000  H
  C104     1.0000 0.76114  0.43403  0.40508  Biso   1.000  C
  H103     1.0000 0.42612  0.28332  0.63239  Biso   1.000  H
  C105     1.0000 0.47682  0.17471  0.60706  Biso   1.000  C
  C106     1.0000 0.51101  0.27349  0.67100  Biso   1.000  C
  C107     1.0000 0.58617  0.15803  0.64274  Biso   1.000  C
  C108     1.0000 0.55222  0.05492  0.58038  Biso   1.000  C
  C109     1.0000 0.62330  0.25498  0.70601  Biso   1.000  C
  C110     1.0000 0.81085  0.37837  0.39319  Biso   1.000  C
  H104     1.0000 0.45123  0.17241  0.57890  Biso   1.000  H
  H105     1.0000 0.45894  0.12963  0.62729  Biso   1.000  H
  H106     1.0000 0.49412  0.22841  0.69168  Biso   1.000  H
  H107     1.0000 0.50690  0.33437  0.68431  Biso   1.000  H
  H108     1.0000 0.63162  0.14332  0.63790  Biso   1.000  H
  H109     1.0000 0.56982  0.11288  0.66359  Biso   1.000  H
  C111     1.0000 0.57253  0.04007  0.53760  Biso   1.000  C
  C112     1.0000 0.53677  0.98088  0.60561  Biso   1.000  C
  C113     1.0000 0.68892  0.23729  0.70545  Biso   1.000  C
  C114     1.0000 0.59639  0.26807  0.74669  Biso   1.000  C
  C115     1.0000 0.85106  0.33193  0.37817  Biso   1.000  C
  H110     1.0000 0.58525  0.09003  0.52020  Biso   1.000  H
  C116     1.0000 0.57415  0.95268  0.52047  Biso   1.000  C
  H111     1.0000 0.52460  0.98983  0.63510  Biso   1.000  H
  C117     1.0000 0.53877  0.89369  0.58855  Biso   1.000  C
  H112     1.0000 0.70803  0.22610  0.67811  Biso   1.000  H
  C118     1.0000 0.72677  0.23573  0.74409  Biso   1.000  C
  C119     1.0000 0.63392  0.26461  0.78563  Biso   1.000  C
  H113     1.0000 0.55172  0.27973  0.74791  Biso   1.000  H
  C120     1.0000 0.89693  0.28027  0.35320  Biso   1.000  C
  C121     1.0000 0.55580  0.87973  0.54540  Biso   1.000  C
  O22      1.0000 0.59399  0.93234  0.47949  Biso   1.000  O
  O23      1.0000 0.52287  0.81776  0.61191  Biso   1.000  O
  C122     1.0000 0.69926  0.25098  0.78444  Biso   1.000  C
  O24      1.0000 0.79137  0.21783  0.74640  Biso   1.000  O
  O25      1.0000 0.60497  0.27898  0.82509  Biso   1.000  O
  H114     1.0000 0.88194  0.27912  0.32191  Biso   1.000  H
  H115     1.0000 0.93887  0.31173  0.35511  Biso   1.000  H
  O26      1.0000 0.90547  0.18827  0.36865  Biso   1.000  O
  O27      1.0000 0.55303  0.79281  0.52801  Biso   1.000  O
  C123     1.0000 0.61604  0.00441  0.45317  Biso   1.000  C
  C124     1.0000 0.54133  0.81980  0.65812  Biso   1.000  C
  O28      1.0000 0.73745  0.24793  0.82248  Biso   1.000  O
  C125     1.0000 0.81681  0.17180  0.70993  Biso   1.000  C
  C126     1.0000 0.60639  0.20278  0.85407  Biso   1.000  C
  C127     1.0000 0.92629  0.18007  0.41187  Biso   1.000  C
  C128     1.0000 0.61484  0.75193  0.52393  Biso   1.000  C
  H116     1.0000 0.58143  0.04861  0.44810  Biso   1.000  H
  H117     1.0000 0.65286  0.03403  0.46839  Biso   1.000  H
  H118     1.0000 0.62924  0.98041  0.42491  Biso   1.000  H
  H119     1.0000 0.58493  0.84427  0.66201  Biso   1.000  H
  H120     1.0000 0.54021  0.75810  0.67011  Biso   1.000  H
  H121     1.0000 0.51142  0.85831  0.67370  Biso   1.000  H
  C129     1.0000 0.74510  0.33471  0.84357  Biso   1.000  C
  H122     1.0000 0.79061  0.11817  0.70278  Biso   1.000  H
  H123     1.0000 0.86111  0.15308  0.71741  Biso   1.000  H
  H124     1.0000 0.81642  0.21241  0.68440  Biso   1.000  H
  H125     1.0000 0.58759  0.15010  0.83869  Biso   1.000  H
  H126     1.0000 0.58167  0.21661  0.87990  Biso   1.000  H
  H127     1.0000 0.65090  0.18929  0.86349  Biso   1.000  H
  C130     1.0000 0.98618  0.21220  0.42718  Biso   1.000  C
  C131     1.0000 0.88900  0.13139  0.44069  Biso   1.000  C
  C132     1.0000 0.65072  0.74407  0.56576  Biso   1.000  C
  H128     1.0000 0.63994  0.78847  0.50350  Biso   1.000  H
  H129     1.0000 0.60913  0.69071  0.51088  Biso   1.000  H
  C133     1.0000 0.78231  0.39607  0.81731  Biso   1.000  C
  H130     1.0000 0.76697  0.32671  0.87288  Biso   1.000  H
  H131     1.0000 0.70231  0.36149  0.84801  Biso   1.000  H
  C134     1.0000 0.00669  0.19871  0.47076  Biso   1.000  C
  O29      1.0000 0.02103  0.25437  0.39609  Biso   1.000  O
  C135     1.0000 0.91007  0.11769  0.48414  Biso   1.000  C
  O30      1.0000 0.83319  0.09742  0.42234  Biso   1.000  O
  C136     1.0000 0.68370  0.74020  0.59932  Biso   1.000  C
  C137     1.0000 0.81560  0.44488  0.79597  Biso   1.000  C
  C138     1.0000 0.96808  0.15308  0.49998  Biso   1.000  C
  H132     1.0000 0.04756  0.22068  0.48091  Biso   1.000  H
  C139     1.0000 0.08705  0.27071  0.40584  Biso   1.000  C
  H133     1.0000 0.88445  0.08359  0.50321  Biso   1.000  H
  C140     1.0000 0.79876  0.03322  0.44701  Biso   1.000  C
  C141     1.0000 0.72401  0.73742  0.63671  Biso   1.000  C
  C142     1.0000 0.85682  0.49817  0.77318  Biso   1.000  C
  C143     1.0000 0.98868  0.14692  0.54880  Biso   1.000  C
  H134     1.0000 0.09183  0.31220  0.43091  Biso   1.000  H
  H135     1.0000 0.10645  0.29783  0.38008  Biso   1.000  H
  H136     1.0000 0.10866  0.21329  0.41319  Biso   1.000  H
  H137     1.0000 0.76383  0.00739  0.42840  Biso   1.000  H
  H138     1.0000 0.78083  0.06332  0.47251  Biso   1.000  H
  H139     1.0000 0.82783  0.98461  0.45719  Biso   1.000  H
  C144     1.0000 0.76032  0.73722  0.66757  Biso   1.000  C
  C145     1.0000 0.89461  0.54420  0.75483  Biso   1.000  C
  C146     1.0000 0.94968  0.07573  0.57333  Biso   1.000  C
  C147     1.0000 0.97710  0.24020  0.57001  Biso   1.000  C
  C148     1.0000 0.06014  0.12258  0.55512  Biso   1.000  C
  C149     1.0000 0.80633  0.74142  0.70555  Biso   1.000  C
  C150     1.0000 0.94429  0.59810  0.73464  Biso   1.000  C
  H140     1.0000 0.95613  0.01539  0.55990  Biso   1.000  H
  H141     1.0000 0.90343  0.09071  0.57001  Biso   1.000  H
  C151     1.0000 0.96935  0.07132  0.62274  Biso   1.000  C
  C152     1.0000 0.99709  0.24061  0.61994  Biso   1.000  C
  H142     1.0000 0.93102  0.25600  0.56629  Biso   1.000  H
  H143     1.0000 0.00205  0.28692  0.55479  Biso   1.000  H
  C153     1.0000 0.07970  0.12183  0.60430  Biso   1.000  C
  H144     1.0000 0.06802  0.06217  0.54231  Biso   1.000  H
  H145     1.0000 0.08633  0.16759  0.53970  Biso   1.000  H
  H146     1.0000 0.79080  0.70298  0.72960  Biso   1.000  H
  H147     1.0000 0.84823  0.71708  0.69699  Biso   1.000  H
  O31      1.0000 0.81454  0.83241  0.72113  Biso   1.000  O
  H148     1.0000 0.93941  0.66231  0.74330  Biso   1.000  H
  H149     1.0000 0.98692  0.57729  0.74610  Biso   1.000  H
  O32      1.0000 0.94208  0.59220  0.68763  Biso   1.000  O
  C154     1.0000 0.95779  0.16712  0.64264  Biso   1.000  C
  C155     1.0000 0.92788  0.00312  0.64682  Biso   1.000  C
  C156     1.0000 0.04112  0.05037  0.62782  Biso   1.000  C
  C157     1.0000 0.98250  0.33383  0.63911  Biso   1.000  C
  C158     1.0000 0.06801  0.21437  0.62442  Biso   1.000  C
  H150     1.0000 0.12644  0.10678  0.60789  Biso   1.000  H
  C159     1.0000 0.85227  0.88590  0.69485  Biso   1.000  C
  C160     1.0000 0.95507  0.50610  0.67215  Biso   1.000  C
  H151     1.0000 0.91154  0.18217  0.63931  Biso   1.000  H
  H152     1.0000 0.96979  0.16617  0.67449  Biso   1.000  H
  C161     1.0000 0.86152  0.00441  0.64158  Biso   1.000  C
  C162     1.0000 0.95604  0.94108  0.67617  Biso   1.000  C
  H153     1.0000 0.04974  0.98990  0.61520  Biso   1.000  H
  H154     1.0000 0.05451  0.04922  0.65950  Biso   1.000  H
  C163     1.0000 0.91943  0.36583  0.63895  Biso   1.000  C
  C164     1.0000 0.03156  0.38942  0.65670  Biso   1.000  C
  H155     1.0000 0.09403  0.26041  0.60950  Biso   1.000  H
  H156     1.0000 0.08192  0.21349  0.65601  Biso   1.000  H
  C165     1.0000 0.82383  0.94732  0.66550  Biso   1.000  C
  C166     1.0000 0.91842  0.88380  0.70051  Biso   1.000  C
  C167     1.0000 0.90637  0.45078  0.65562  Biso   1.000  C
  C168     1.0000 0.01832  0.47403  0.67281  Biso   1.000  C
  H157     1.0000 0.84164  0.04542  0.62110  Biso   1.000  H
  H158     1.0000 0.00152  0.93790  0.67960  Biso   1.000  H
  H159     1.0000 0.88533  0.32902  0.62729  Biso   1.000  H
  H160     1.0000 0.07463  0.36827  0.65759  Biso   1.000  H
  O33      1.0000 0.75797  0.94753  0.66369  Biso   1.000  O
  O34      1.0000 0.94285  0.82231  0.73075  Biso   1.000  O
  O35      1.0000 0.84500  0.48678  0.65585  Biso   1.000  O
  O36      1.0000 0.06355  0.53125  0.69139  Biso   1.000  O
  C169     1.0000 0.72649  0.98380  0.62495  Biso   1.000  C
  C170     1.0000 0.01107  0.81993  0.73744  Biso   1.000  C
  C171     1.0000 0.79564  0.42400  0.66563  Biso   1.000  C
  C172     1.0000 0.12777  0.49810  0.69544  Biso   1.000  C
  H161     1.0000 0.73352  0.04949  0.62390  Biso   1.000  H
  H162     1.0000 0.68034  0.97153  0.62551  Biso   1.000  H
  H163     1.0000 0.74391  0.95553  0.59890  Biso   1.000  H
  H164     1.0000 0.03073  0.80488  0.70960  Biso   1.000  H
  H165     1.0000 0.02281  0.77383  0.75960  Biso   1.000  H
  H166     1.0000 0.02648  0.87932  0.74771  Biso   1.000  H
  H167     1.0000 0.78843  0.38251  0.64079  Biso   1.000  H
  H168     1.0000 0.75582  0.45722  0.67080  Biso   1.000  H
  H169     1.0000 0.80851  0.38942  0.69211  Biso   1.000  H
  H170     1.0000 0.12930  0.44468  0.71461  Biso   1.000  H
  H171     1.0000 0.15581  0.54542  0.70819  Biso   1.000  H
  H172     1.0000 0.14231  0.48163  0.66629  Biso   1.000  H
  C173     1.0000 0.60646  0.29722  0.35406  Biso   1.000  C
  O37      1.0000 0.60504  0.22102  0.32507  Biso   1.000  O
  H173     1.0000 0.58766  0.34990  0.33871  Biso   1.000  H
  H174     1.0000 0.58174  0.28339  0.37988  Biso   1.000  H
  H175     1.0000 0.65098  0.31071  0.36351  Biso   1.000  H
  C174     1.0000 0.63394  0.23539  0.28561  Biso   1.000  C
  C175     1.0000 0.59646  0.23193  0.24671  Biso   1.000  C
  C176     1.0000 0.69933  0.24902  0.28443  Biso   1.000  C
  C177     1.0000 0.62337  0.24502  0.20600  Biso   1.000  C
  H176     1.0000 0.55175  0.22027  0.24790  Biso   1.000  H
  C178     1.0000 0.72679  0.26427  0.24408  Biso   1.000  C
  O38      1.0000 0.73748  0.25207  0.32247  Biso   1.000  O
  C179     1.0000 0.58240  0.24658  0.16338  Biso   1.000  C
  C180     1.0000 0.68899  0.26271  0.20544  Biso   1.000  C
  O39      1.0000 0.79144  0.28217  0.24638  Biso   1.000  O
  C181     1.0000 0.74517  0.16529  0.34359  Biso   1.000  C
  C182     1.0000 0.51108  0.22651  0.17099  Biso   1.000  C
  C183     1.0000 0.58625  0.34197  0.14272  Biso   1.000  C
  C184     1.0000 0.60752  0.17722  0.13011  Biso   1.000  C
  H177     1.0000 0.70805  0.27390  0.17810  Biso   1.000  H
  C185     1.0000 0.81688  0.32820  0.20992  Biso   1.000  C
  C186     1.0000 0.78238  0.10393  0.31733  Biso   1.000  C
  H178     1.0000 0.76704  0.17329  0.37290  Biso   1.000  H
  H179     1.0000 0.70233  0.13851  0.34800  Biso   1.000  H
  C187     1.0000 0.47219  0.23051  0.12711  Biso   1.000  C
  H180     1.0000 0.49420  0.27159  0.19170  Biso   1.000  H
  H181     1.0000 0.50697  0.16563  0.18429  Biso   1.000  H
  C188     1.0000 0.54749  0.34942  0.09882  Biso   1.000  C
  H182     1.0000 0.63170  0.35668  0.13792  Biso   1.000  H
  H183     1.0000 0.56990  0.38712  0.16361  Biso   1.000  H
  C189     1.0000 0.56824  0.18068  0.08614  Biso   1.000  C
  H184     1.0000 0.60499  0.11539  0.14269  Biso   1.000  H
  H185     1.0000 0.65318  0.19017  0.12481  Biso   1.000  H
  H186     1.0000 0.79069  0.38183  0.20280  Biso   1.000  H
  H187     1.0000 0.86118  0.34692  0.21740  Biso   1.000  H
  H188     1.0000 0.81649  0.28759  0.18439  Biso   1.000  H
  C190     1.0000 0.81567  0.05512  0.29596  Biso   1.000  C
  H189     1.0000 0.42619  0.21668  0.13241  Biso   1.000  H
  C191     1.0000 0.49751  0.16102  0.09559  Biso   1.000  C
  C192     1.0000 0.47689  0.32529  0.10705  Biso   1.000  C
  C193     1.0000 0.57262  0.27769  0.06723  Biso   1.000  C
  C194     1.0000 0.55229  0.44508  0.08037  Biso   1.000  C
  C195     1.0000 0.59237  0.11437  0.05158  Biso   1.000  C
  C196     1.0000 0.85689  0.00183  0.27320  Biso   1.000  C
  H190     1.0000 0.49400  0.09973  0.10850  Biso   1.000  H
  H191     1.0000 0.47127  0.16237  0.06769  Biso   1.000  H
  H192     1.0000 0.45130  0.32759  0.07889  Biso   1.000  H
  H193     1.0000 0.45897  0.37037  0.12731  Biso   1.000  H
  H194     1.0000 0.54741  0.28081  0.03890  Biso   1.000  H
  H195     1.0000 0.61791  0.29139  0.06130  Biso   1.000  H
  C197     1.0000 0.53684  0.51912  0.10564  Biso   1.000  C
  C198     1.0000 0.57260  0.45993  0.03762  Biso   1.000  C
  C199     1.0000 0.55990  0.11037  0.01087  Biso   1.000  C
  C200     1.0000 0.64576  0.05858  0.05952  Biso   1.000  C
  C201     1.0000 0.89469  0.95580  0.25482  Biso   1.000  C
  H196     1.0000 0.52467  0.51017  0.13512  Biso   1.000  H
  C202     1.0000 0.53885  0.60631  0.08854  Biso   1.000  C
  C203     1.0000 0.57422  0.54732  0.02046  Biso   1.000  C
  H197     1.0000 0.58528  0.40997  0.02019  Biso   1.000  H
  H198     1.0000 0.52391  0.14881  0.00511  Biso   1.000  H
  C204     1.0000 0.57889  0.05139  0.97839  Biso   1.000  C
  H199     1.0000 0.66868  0.06061  0.08719  Biso   1.000  H
  C205     1.0000 0.66543  0.99973  0.02652  Biso   1.000  C
  C206     1.0000 0.94436  0.90190  0.23462  Biso   1.000  C
  C207     1.0000 0.55587  0.62027  0.04542  Biso   1.000  C
  O40      1.0000 0.52294  0.68224  0.11189  Biso   1.000  O
  O41      1.0000 0.59392  0.56766  0.97951  Biso   1.000  O
  C208     1.0000 0.63151  0.99458  0.98640  Biso   1.000  C
  O42      1.0000 0.54892  0.04312  0.93775  Biso   1.000  O
  O43      1.0000 0.71662  0.94190  0.03152  Biso   1.000  O
  H200     1.0000 0.93948  0.83769  0.24329  Biso   1.000  H
  H201     1.0000 0.98699  0.92271  0.24609  Biso   1.000  H
  O44      1.0000 0.94215  0.90780  0.18765  Biso   1.000  O
  O45      1.0000 0.55306  0.70719  0.02803  Biso   1.000  O
  C209     1.0000 0.54136  0.68020  0.15811  Biso   1.000  C
  C210     1.0000 0.61597  0.49559  0.95319  Biso   1.000  C
  O46      1.0000 0.64870  0.92671  0.95748  Biso   1.000  O
  C211     1.0000 0.49109  0.09498  0.92938  Biso   1.000  C
  C212     1.0000 0.75716  0.95071  0.07032  Biso   1.000  C
  C213     1.0000 0.95514  0.99390  0.17214  Biso   1.000  C
  C214     1.0000 0.61491  0.74807  0.02391  Biso   1.000  C
  H202     1.0000 0.58500  0.65573  0.16199  Biso   1.000  H
  H203     1.0000 0.54028  0.74190  0.17010  Biso   1.000  H
  H204     1.0000 0.51149  0.64169  0.17369  Biso   1.000  H
  H205     1.0000 0.58136  0.45139  0.94809  Biso   1.000  H
  H206     1.0000 0.62917  0.51959  0.92490  Biso   1.000  H
  H207     1.0000 0.65274  0.46597  0.96841  Biso   1.000  H
  C215     1.0000 0.66338  0.95329  0.91363  Biso   1.000  C
  H208     1.0000 0.50085  0.15980  0.93211  Biso   1.000  H
  H209     1.0000 0.47379  0.08210  0.89950  Biso   1.000  H
  H210     1.0000 0.45938  0.07831  0.95079  Biso   1.000  H
  H211     1.0000 0.77481  0.01227  0.07191  Biso   1.000  H
  H212     1.0000 0.73207  0.93912  0.09631  Biso   1.000  H
  H213     1.0000 0.79240  0.90678  0.06940  Biso   1.000  H
  C216     1.0000 0.90644  0.04922  0.15560  Biso   1.000  C
  C217     1.0000 0.01839  0.02597  0.17283  Biso   1.000  C
  C218     1.0000 0.65080  0.75593  0.06578  Biso   1.000  C
  H214     1.0000 0.64001  0.71153  0.00349  Biso   1.000  H
  H215     1.0000 0.60921  0.80929  0.01090  Biso   1.000  H
  H216     1.0000 0.67257  0.89817  0.89641  Biso   1.000  H
  H217     1.0000 0.62505  0.98278  0.89950  Biso   1.000  H
  C219     1.0000 0.71782  0.01519  0.91146  Biso   1.000  C
  C220     1.0000 0.91950  0.13417  0.13894  Biso   1.000  C
  O47      1.0000 0.84507  0.01322  0.15583  Biso   1.000  O
  O48      1.0000 0.06357  0.96875  0.19141  Biso   1.000  O
  C221     1.0000 0.03163  0.11058  0.15672  Biso   1.000  C
  C222     1.0000 0.68377  0.75980  0.09934  Biso   1.000  C
  C223     1.0000 0.76106  0.06597  0.90507  Biso   1.000  C
  C224     1.0000 0.98258  0.16617  0.13910  Biso   1.000  C
  H218     1.0000 0.88540  0.17098  0.12731  Biso   1.000  H
  C225     1.0000 0.79566  0.07600  0.16562  Biso   1.000  C
  C226     1.0000 0.12785  0.00190  0.19546  Biso   1.000  C
  H219     1.0000 0.07470  0.13173  0.15761  Biso   1.000  H
  C227     1.0000 0.72408  0.76258  0.13670  Biso   1.000  C
  C228     1.0000 0.81077  0.12163  0.89318  Biso   1.000  C
  C229     1.0000 0.99716  0.25939  0.11996  Biso   1.000  C
  H220     1.0000 0.78851  0.11749  0.14081  Biso   1.000  H
  H221     1.0000 0.75589  0.04278  0.17079  Biso   1.000  H
  H222     1.0000 0.80858  0.11058  0.19210  Biso   1.000  H
  H223     1.0000 0.15588  0.95458  0.20821  Biso   1.000  H
  H224     1.0000 0.12938  0.05532  0.21460  Biso   1.000  H
  H225     1.0000 0.14239  0.01837  0.16631  Biso   1.000  H
  C230     1.0000 0.76039  0.76278  0.16759  Biso   1.000  C
  C231     1.0000 0.85099  0.16807  0.87819  Biso   1.000  C
  C232     1.0000 0.95786  0.33288  0.14263  Biso   1.000  C
  C233     1.0000 0.97712  0.25980  0.07003  Biso   1.000  C
  C234     1.0000 0.06808  0.28563  0.12441  Biso   1.000  C
  C235     1.0000 0.80635  0.75858  0.20557  Biso   1.000  C
  C236     1.0000 0.89686  0.21973  0.85322  Biso   1.000  C
  C237     1.0000 0.96942  0.42868  0.12273  Biso   1.000  C
  H226     1.0000 0.91156  0.31783  0.13930  Biso   1.000  H
  H227     1.0000 0.96987  0.33383  0.17451  Biso   1.000  H
  C238     1.0000 0.98875  0.35308  0.04882  Biso   1.000  C
  H228     1.0000 0.93109  0.24400  0.06631  Biso   1.000  H
  H229     1.0000 0.00207  0.21308  0.05481  Biso   1.000  H
  C239     1.0000 0.07978  0.37817  0.10432  Biso   1.000  C
  H230     1.0000 0.09410  0.23959  0.10949  Biso   1.000  H
  H231     1.0000 0.08199  0.28651  0.15600  Biso   1.000  H
  H232     1.0000 0.79087  0.79702  0.22958  Biso   1.000  H
  H233     1.0000 0.84826  0.78292  0.19701  Biso   1.000  H
  O49      1.0000 0.81461  0.66759  0.22112  Biso   1.000  O
  H234     1.0000 0.88187  0.22088  0.82190  Biso   1.000  H
  H235     1.0000 0.93880  0.18827  0.85510  Biso   1.000  H
  O50      1.0000 0.90540  0.31173  0.86864  Biso   1.000  O
  C240     1.0000 0.92795  0.49688  0.14681  Biso   1.000  C
  C241     1.0000 0.94975  0.42427  0.07335  Biso   1.000  C
  C242     1.0000 0.04120  0.44963  0.12780  Biso   1.000  C
  C243     1.0000 0.96796  0.34692  0.99997  Biso   1.000  C
  C244     1.0000 0.06022  0.37742  0.05514  Biso   1.000  C
  H236     1.0000 0.12647  0.39322  0.10791  Biso   1.000  H
  C245     1.0000 0.85234  0.61410  0.19483  Biso   1.000  C
  C246     1.0000 0.92622  0.31993  0.91186  Biso   1.000  C
  C247     1.0000 0.86159  0.49559  0.14157  Biso   1.000  C
  C248     1.0000 0.95611  0.55892  0.17616  Biso   1.000  C
  H237     1.0000 0.95621  0.48461  0.05992  Biso   1.000  H
  H238     1.0000 0.90351  0.40929  0.07000  Biso   1.000  H
  H239     1.0000 0.05458  0.45078  0.15949  Biso   1.000  H
  H240     1.0000 0.04976  0.51010  0.11519  Biso   1.000  H
  C249     1.0000 0.00657  0.30129  0.97078  Biso   1.000  C
  C250     1.0000 0.91000  0.38231  0.98412  Biso   1.000  C
  H241     1.0000 0.06810  0.43783  0.04229  Biso   1.000  H
  H242     1.0000 0.08640  0.33241  0.03969  Biso   1.000  H
  C251     1.0000 0.82390  0.55268  0.16552  Biso   1.000  C
  C252     1.0000 0.91849  0.61620  0.20050  Biso   1.000  C
  C253     1.0000 0.98606  0.28780  0.92717  Biso   1.000  C
  C254     1.0000 0.88893  0.36861  0.94068  Biso   1.000  C
  H243     1.0000 0.84171  0.45458  0.12108  Biso   1.000  H
  H244     1.0000 0.00160  0.56210  0.17958  Biso   1.000  H
  H245     1.0000 0.04744  0.27932  0.98090  Biso   1.000  H
  H246     1.0000 0.88448  0.41641  0.00320  Biso   1.000  H
  O51      1.0000 0.75804  0.55247  0.16371  Biso   1.000  O
  O52      1.0000 0.94292  0.67769  0.23074  Biso   1.000  O
  O53      1.0000 0.02096  0.24563  0.89611  Biso   1.000  O
  O54      1.0000 0.83312  0.40258  0.92236  Biso   1.000  O
  C255     1.0000 0.72651  0.51620  0.12494  Biso   1.000  C
  C256     1.0000 0.01115  0.68007  0.23742  Biso   1.000  C
  C257     1.0000 0.08698  0.22929  0.90583  Biso   1.000  C
  C258     1.0000 0.79869  0.46678  0.94703  Biso   1.000  C
  H247     1.0000 0.73359  0.45051  0.12388  Biso   1.000  H
  H248     1.0000 0.68037  0.52847  0.12550  Biso   1.000  H
  H249     1.0000 0.74398  0.54447  0.09892  Biso   1.000  H
  H250     1.0000 0.03075  0.69512  0.20959  Biso   1.000  H
  H251     1.0000 0.02289  0.72617  0.25959  Biso   1.000  H
  H252     1.0000 0.02656  0.62068  0.24770  Biso   1.000  H
  H253     1.0000 0.09175  0.18780  0.93089  Biso   1.000  H
  H254     1.0000 0.10638  0.20217  0.88010  Biso   1.000  H
  H255     1.0000 0.10859  0.28671  0.91321  Biso   1.000  H
  H256     1.0000 0.82776  0.51539  0.95721  Biso   1.000  H
  H257     1.0000 0.76376  0.49261  0.92839  Biso   1.000  H
  H258     1.0000 0.78075  0.43668  0.97250  Biso   1.000  H
  C259     1.0000 0.39344  0.70278  0.64593  Biso   1.000  C
  H259     1.0000 0.41224  0.65010  0.66128  Biso   1.000  H
  H260     1.0000 0.41811  0.71661  0.62011  Biso   1.000  H
  H261     1.0000 0.34893  0.68929  0.63651  Biso   1.000  H
  O55      1.0000 0.39482  0.77898  0.67492  Biso   1.000  O
  C260     1.0000 0.36591  0.76461  0.71438  Biso   1.000  C
  C261     1.0000 0.30052  0.75098  0.71557  Biso   1.000  C
  C262     1.0000 0.40339  0.76807  0.75328  Biso   1.000  C
  C263     1.0000 0.27306  0.73573  0.75592  Biso   1.000  C
  O56      1.0000 0.26238  0.74793  0.67752  Biso   1.000  O
  C264     1.0000 0.37653  0.75498  0.79399  Biso   1.000  C
  H262     1.0000 0.44811  0.77973  0.75209  Biso   1.000  H
  C265     1.0000 0.31091  0.73729  0.79455  Biso   1.000  C
  O57      1.0000 0.20842  0.71783  0.75361  Biso   1.000  O
  C266     1.0000 0.25473  0.83471  0.65641  Biso   1.000  C
  C267     1.0000 0.41745  0.75342  0.83662  Biso   1.000  C
  H263     1.0000 0.29180  0.72610  0.82189  Biso   1.000  H
  C268     1.0000 0.18302  0.67180  0.79007  Biso   1.000  C
  C269     1.0000 0.21752  0.89607  0.68269  Biso   1.000  C
  H264     1.0000 0.23281  0.82671  0.62709  Biso   1.000  H
  H265     1.0000 0.29752  0.86149  0.65199  Biso   1.000  H
  C270     1.0000 0.48877  0.77349  0.82901  Biso   1.000  C
  C271     1.0000 0.41361  0.65803  0.85727  Biso   1.000  C
  C272     1.0000 0.39233  0.82278  0.86988  Biso   1.000  C
  H266     1.0000 0.20921  0.61817  0.79719  Biso   1.000  H
  H267     1.0000 0.13872  0.65308  0.78260  Biso   1.000  H
  H268     1.0000 0.18341  0.71241  0.81560  Biso   1.000  H
  C273     1.0000 0.18423  0.94488  0.70404  Biso   1.000  C
  C274     1.0000 0.52766  0.76949  0.87288  Biso   1.000  C
  H269     1.0000 0.50570  0.72841  0.80829  Biso   1.000  H
  H270     1.0000 0.49288  0.83437  0.81570  Biso   1.000  H
  C275     1.0000 0.45236  0.65058  0.90118  Biso   1.000  C
  H271     1.0000 0.36821  0.64332  0.86211  Biso   1.000  H
  H272     1.0000 0.43000  0.61288  0.83639  Biso   1.000  H
  C276     1.0000 0.43162  0.81932  0.91386  Biso   1.000  C
  H273     1.0000 0.39491  0.88461  0.85730  Biso   1.000  H
  H274     1.0000 0.34667  0.80983  0.87519  Biso   1.000  H
  C277     1.0000 0.14301  0.99817  0.72683  Biso   1.000  C
  H275     1.0000 0.57371  0.78332  0.86761  Biso   1.000  H
  C278     1.0000 0.50234  0.83898  0.90440  Biso   1.000  C
  C279     1.0000 0.52301  0.67471  0.89294  Biso   1.000  C
  C280     1.0000 0.42723  0.72231  0.93276  Biso   1.000  C
  C281     1.0000 0.44756  0.55492  0.91962  Biso   1.000  C
  C282     1.0000 0.40754  0.88563  0.94841  Biso   1.000  C
  C283     1.0000 0.10522  0.04420  0.74518  Biso   1.000  C
  H276     1.0000 0.50590  0.90027  0.89149  Biso   1.000  H
  H277     1.0000 0.52858  0.83763  0.93230  Biso   1.000  H
  H278     1.0000 0.54860  0.67241  0.92110  Biso   1.000  H
  H279     1.0000 0.54089  0.62963  0.87268  Biso   1.000  H
  H280     1.0000 0.45250  0.71919  0.96109  Biso   1.000  H
  H281     1.0000 0.38199  0.70861  0.93869  Biso   1.000  H
  C284     1.0000 0.46301  0.48088  0.89439  Biso   1.000  C
  C285     1.0000 0.42730  0.54007  0.96241  Biso   1.000  C
  C286     1.0000 0.43995  0.88963  0.98912  Biso   1.000  C
  C287     1.0000 0.35415  0.94142  0.94047  Biso   1.000  C
  C288     1.0000 0.05550  0.09810  0.76537  Biso   1.000  C
  H282     1.0000 0.47518  0.48983  0.86491  Biso   1.000  H
  C289     1.0000 0.46101  0.39369  0.91145  Biso   1.000  C
  C290     1.0000 0.42569  0.45268  0.97954  Biso   1.000  C
  H283     1.0000 0.41458  0.59003  0.97980  Biso   1.000  H
  H284     1.0000 0.47599  0.85119  0.99489  Biso   1.000  H
  C291     1.0000 0.42097  0.94861  0.02160  Biso   1.000  C
  H285     1.0000 0.33118  0.93939  0.91280  Biso   1.000  H
  C292     1.0000 0.33443  0.00027  0.97348  Biso   1.000  C
  H286     1.0000 0.06042  0.16231  0.75671  Biso   1.000  H
  H287     1.0000 0.01291  0.07729  0.75391  Biso   1.000  H
  O58      1.0000 0.05770  0.09220  0.81237  Biso   1.000  O
  C293     1.0000 0.44398  0.37973  0.95457  Biso   1.000  C
  O59      1.0000 0.47696  0.31776  0.88810  Biso   1.000  O
  O60      1.0000 0.40594  0.43234  0.02048  Biso   1.000  O
  O61      1.0000 0.45093  0.95688  0.06225  Biso   1.000  O
  C294     1.0000 0.36839  0.00542  0.01360  Biso   1.000  C
  O62      1.0000 0.28323  0.05810  0.96847  Biso   1.000  O
  C295     1.0000 0.04471  0.00610  0.82785  Biso   1.000  C
  O63      1.0000 0.44679  0.29281  0.97196  Biso   1.000  O
  C296     1.0000 0.45850  0.31980  0.84189  Biso   1.000  C
  C297     1.0000 0.38393  0.50441  0.04683  Biso   1.000  C
  C298     1.0000 0.50876  0.90502  0.07061  Biso   1.000  C
  O64      1.0000 0.35120  0.07329  0.04252  Biso   1.000  O
  C299     1.0000 0.24274  0.04929  0.92967  Biso   1.000  C
  C300     1.0000 0.09341  0.95078  0.84439  Biso   1.000  C
  C301     1.0000 0.98146  0.97403  0.82716  Biso   1.000  C
  C302     1.0000 0.38499  0.25193  0.97608  Biso   1.000  C
  H288     1.0000 0.41490  0.34427  0.83800  Biso   1.000  H
  H289     1.0000 0.45957  0.25810  0.82990  Biso   1.000  H
  H290     1.0000 0.48841  0.35831  0.82631  Biso   1.000  H
  H291     1.0000 0.41849  0.54861  0.05190  Biso   1.000  H
  H292     1.0000 0.37068  0.48041  0.07509  Biso   1.000  H
  H293     1.0000 0.34711  0.53403  0.03158  Biso   1.000  H
  H294     1.0000 0.49900  0.84020  0.06788  Biso   1.000  H
  H295     1.0000 0.52611  0.91790  0.10049  Biso   1.000  H
  H296     1.0000 0.54052  0.92169  0.04920  Biso   1.000  H
  C303     1.0000 0.33648  0.04671  0.08639  Biso   1.000  C
  H297     1.0000 0.22509  0.98773  0.92809  Biso   1.000  H
  H298     1.0000 0.26779  0.06088  0.90371  Biso   1.000  H
  H299     1.0000 0.20750  0.09322  0.93059  Biso   1.000  H
  C304     1.0000 0.08040  0.86583  0.86106  Biso   1.000  C
  O65      1.0000 0.15478  0.98678  0.84416  Biso   1.000  O
  C305     1.0000 0.96822  0.88942  0.84327  Biso   1.000  C
  O66      1.0000 0.93628  0.03125  0.80858  Biso   1.000  O
  C306     1.0000 0.34910  0.24407  0.93421  Biso   1.000  C
  H300     1.0000 0.35989  0.28847  0.99650  Biso   1.000  H
  H301     1.0000 0.39070  0.19071  0.98909  Biso   1.000  H
  C307     1.0000 0.28203  0.98481  0.08853  Biso   1.000  C
  H302     1.0000 0.32728  0.10183  0.10359  Biso   1.000  H
  H303     1.0000 0.37481  0.01722  0.10049  Biso   1.000  H
  C308     1.0000 0.01733  0.83383  0.86089  Biso   1.000  C
  H304     1.0000 0.11450  0.82902  0.87268  Biso   1.000  H
  C309     1.0000 0.20419  0.92400  0.83438  Biso   1.000  C
  H305     1.0000 0.92520  0.86827  0.84241  Biso   1.000  H
  C310     1.0000 0.87201  0.99810  0.80453  Biso   1.000  C
  C311     1.0000 0.31608  0.24020  0.90068  Biso   1.000  C
  C312     1.0000 0.23879  0.93403  0.09492  Biso   1.000  C
  C313     1.0000 0.00274  0.74061  0.88006  Biso   1.000  C
  H306     1.0000 0.21140  0.88251  0.85921  Biso   1.000  H
  H307     1.0000 0.24401  0.95722  0.82920  Biso   1.000  H
  H308     1.0000 0.19127  0.88942  0.80789  Biso   1.000  H
  H309     1.0000 0.87048  0.94468  0.78540  Biso   1.000  H
  H310     1.0000 0.85752  0.98163  0.83368  Biso   1.000  H
  H311     1.0000 0.84402  0.04542  0.79179  Biso   1.000  H
  C314     1.0000 0.27577  0.23742  0.86330  Biso   1.000  C
  C315     1.0000 0.18908  0.87837  0.10681  Biso   1.000  C
  C316     1.0000 0.04204  0.66712  0.85737  Biso   1.000  C
  C317     1.0000 0.02273  0.74020  0.92996  Biso   1.000  C
  C318     1.0000 0.93177  0.71437  0.87558  Biso   1.000  C
  C319     1.0000 0.23951  0.23722  0.83243  Biso   1.000  C
  C320     1.0000 0.14892  0.83193  0.12180  Biso   1.000  C
  C321     1.0000 0.03048  0.57132  0.87726  Biso   1.000  C
  H312     1.0000 0.08829  0.68217  0.86069  Biso   1.000  H
  H313     1.0000 0.02999  0.66617  0.82548  Biso   1.000  H
  C322     1.0000 0.01115  0.64692  0.95121  Biso   1.000  C
  H314     1.0000 0.06876  0.75600  0.93369  Biso   1.000  H
  H315     1.0000 0.99778  0.78692  0.94518  Biso   1.000  H
  C323     1.0000 0.92008  0.62183  0.89568  Biso   1.000  C
  H316     1.0000 0.90580  0.76041  0.89050  Biso   1.000  H
  H317     1.0000 0.91791  0.71349  0.84399  Biso   1.000  H
  C324     1.0000 0.19350  0.24142  0.79442  Biso   1.000  C
  C325     1.0000 0.10300  0.78027  0.14680  Biso   1.000  C
  C326     1.0000 0.05010  0.57573  0.92664  Biso   1.000  C
  C327     1.0000 0.07195  0.50312  0.85318  Biso   1.000  C
  C328     1.0000 0.95871  0.55037  0.87219  Biso   1.000  C
  C329     1.0000 0.93969  0.62258  0.94485  Biso   1.000  C
  C330     1.0000 0.03189  0.65308  0.00003  Biso   1.000  C
  H318     1.0000 0.87338  0.60678  0.89208  Biso   1.000  H
  H319     1.0000 0.20898  0.20298  0.77041  Biso   1.000  H
  H320     1.0000 0.15159  0.21708  0.80298  Biso   1.000  H
  O67      1.0000 0.18529  0.33241  0.77887  Biso   1.000  O
  H321     1.0000 0.11799  0.77912  0.17809  Biso   1.000  H
  H322     1.0000 0.06111  0.81173  0.14489  Biso   1.000  H
  O68      1.0000 0.09446  0.68827  0.13135  Biso   1.000  O
  H323     1.0000 0.04370  0.51539  0.94011  Biso   1.000  H
  H324     1.0000 0.09640  0.59071  0.93000  Biso   1.000  H
  C331     1.0000 0.13826  0.50441  0.85842  Biso   1.000  C
  C332     1.0000 0.04379  0.44108  0.82384  Biso   1.000  C
  H325     1.0000 0.94527  0.54922  0.84050  Biso   1.000  H
  H326     1.0000 0.95009  0.48990  0.88481  Biso   1.000  H
  H327     1.0000 0.93176  0.56217  0.95770  Biso   1.000  H
  H328     1.0000 0.91346  0.66759  0.96030  Biso   1.000  H
  C333     1.0000 0.99328  0.69871  0.02921  Biso   1.000  C
  C334     1.0000 0.08985  0.61769  0.01587  Biso   1.000  C
  C335     1.0000 0.14751  0.38590  0.80516  Biso   1.000  C
  C336     1.0000 0.07364  0.68007  0.08814  Biso   1.000  C
  H329     1.0000 0.15819  0.54542  0.87891  Biso   1.000  H
  C337     1.0000 0.17595  0.44732  0.83447  Biso   1.000  C
  C338     1.0000 0.08141  0.38380  0.79949  Biso   1.000  C
  H330     1.0000 0.99831  0.43790  0.82041  Biso   1.000  H
  H331     1.0000 0.95242  0.72068  0.01910  Biso   1.000  H
  C339     1.0000 0.01379  0.71220  0.07282  Biso   1.000  C
  H332     1.0000 0.11538  0.58359  0.99680  Biso   1.000  H
  C340     1.0000 0.11093  0.63139  0.05932  Biso   1.000  C
  O69      1.0000 0.24186  0.44753  0.83629  Biso   1.000  O
  O70      1.0000 0.05694  0.32231  0.76926  Biso   1.000  O
  O71      1.0000 0.97889  0.75437  0.10388  Biso   1.000  O
  O72      1.0000 0.16674  0.59742  0.07763  Biso   1.000  O
  C341     1.0000 0.27334  0.48380  0.87506  Biso   1.000  C
  C342     1.0000 0.98876  0.31993  0.76257  Biso   1.000  C
  C343     1.0000 0.91292  0.77071  0.09417  Biso   1.000  C
  C344     1.0000 0.20122  0.53322  0.05296  Biso   1.000  C
  H333     1.0000 0.26631  0.54949  0.87611  Biso   1.000  H
  H334     1.0000 0.31949  0.47153  0.87450  Biso   1.000  H
  H335     1.0000 0.25588  0.45553  0.90111  Biso   1.000  H
  H336     1.0000 0.96910  0.30488  0.79040  Biso   1.000  H
  H337     1.0000 0.97702  0.27383  0.74040  Biso   1.000  H
  H338     1.0000 0.97330  0.37932  0.75229  Biso   1.000  H
  H339     1.0000 0.90810  0.81220  0.06910  Biso   1.000  H
  H340     1.0000 0.89352  0.79783  0.11989  Biso   1.000  H
  H341     1.0000 0.89132  0.71329  0.08679  Biso   1.000  H
  H342     1.0000 0.17210  0.48461  0.04278  Biso   1.000  H
  H343     1.0000 0.23609  0.50739  0.07160  Biso   1.000  H
  H344     1.0000 0.21910  0.56332  0.02750  Biso   1.000  H
