data_image0
_cell_length_a       16.65
_cell_length_b       20.442
_cell_length_c       20.043
_cell_angle_alpha    90
_cell_angle_beta     99
_cell_angle_gamma    90

_symmetry_space_group_name_H-M    "P 1"
_symmetry_int_tables_number       1

loop_
  _symmetry_equiv_pos_as_xyz
  'x, y, z'

loop_
  _atom_site_label
  _atom_site_occupancy
  _atom_site_fract_x
  _atom_site_fract_y
  _atom_site_fract_z
  _atom_site_thermal_displace_type
  _atom_site_B_iso_or_equiv
  _atom_site_type_symbol
  O1       1.0000 0.97415  0.18041  0.15230  Biso   1.000  O
  C1       1.0000 0.04662  0.16378  0.19559  Biso   1.000  C
  C2       1.0000 0.04663  0.16378  0.19564  Biso   1.000  C
  C3       1.0000 0.92132  0.22258  0.18433  Biso   1.000  C
  C4       1.0000 0.94503  0.24782  0.14952  Biso   1.000  C
  C5       1.0000 0.11630  0.18848  0.18670  Biso   1.000  C
  C6       1.0000 0.04174  0.11418  0.24272  Biso   1.000  C
  O2       1.0000 0.97409  0.18041  0.15230  Biso   1.000  O
  H1       1.0000 0.88902  0.19680  0.21090  Biso   1.000  H
  C7       1.0000 0.86521  0.25961  0.12780  Biso   1.000  C
  H2       1.0000 0.95354  0.25350  0.21413  Biso   1.000  H
  H3       1.0000 0.93682  0.26250  0.19393  Biso   1.000  H
  H4       1.0000 0.98400  0.27659  0.13321  Biso   1.000  H
  C8       1.0000 0.86219  0.24758  0.09931  Biso   1.000  C
  C9       1.0000 0.18941  0.16539  0.22090  Biso   1.000  C
  O3       1.0000 0.11391  0.24278  0.14341  Biso   1.000  O
  C10      1.0000 0.11342  0.09030  0.28081  Biso   1.000  C
  O4       1.0000 0.96691  0.09432  0.25389  Biso   1.000  O
  O5       1.0000 0.96692  0.09432  0.25394  Biso   1.000  O
  H5       1.0000 0.85482  0.30349  0.14280  Biso   1.000  H
  C11      1.0000 0.78550  0.22219  0.11088  Biso   1.000  C
  H6       1.0000 0.89145  0.26299  0.08790  Biso   1.000  H
  C12      1.0000 0.78551  0.22219  0.11093  Biso   1.000  C
  H7       1.0000 0.83698  0.29048  0.09749  Biso   1.000  H
  C13      1.0000 0.80809  0.19651  0.12750  Biso   1.000  C
  H8       1.0000 0.87091  0.23569  0.05410  Biso   1.000  H
  C14      1.0000 0.18592  0.11789  0.26682  Biso   1.000  C
  C15      1.0000 0.26852  0.19602  0.20378  Biso   1.000  C
  C16      1.0000 0.26853  0.19602  0.20383  Biso   1.000  C
  C17      1.0000 0.12778  0.23031  0.07769  Biso   1.000  C
  C18      1.0000 0.12785  0.23031  0.07774  Biso   1.000  C
  C19      1.0000 0.11103  0.03708  0.33001  Biso   1.000  C
  C20      1.0000 0.94233  0.03610  0.22353  Biso   1.000  C
  H9       1.0000 0.74291  0.24469  0.12962  Biso   1.000  H
  C21      1.0000 0.76271  0.21749  0.03319  Biso   1.000  C
  H10      1.0000 0.79151  0.17870  0.13033  Biso   1.000  H
  C22      1.0000 0.76272  0.21749  0.03324  Biso   1.000  C
  H11      1.0000 0.78183  0.21549  0.16281  Biso   1.000  H
  C23      1.0000 0.74322  0.17469  0.06622  Biso   1.000  C
  H12      1.0000 0.84042  0.15928  0.14609  Biso   1.000  H
  H13      1.0000 0.23462  0.10239  0.29071  Biso   1.000  H
  H14      1.0000 0.25738  0.24141  0.18988  Biso   1.000  H
  C24      1.0000 0.33329  0.19558  0.27020  Biso   1.000  C
  H15      1.0000 0.25745  0.24141  0.18994  Biso   1.000  H
  C25      1.0000 0.33335  0.19558  0.27020  Biso   1.000  C
  C26      1.0000 0.29144  0.15801  0.14402  Biso   1.000  C
  O6       1.0000 0.21070  0.23579  0.06991  Biso   1.000  O
  H16      1.0000 0.09607  0.26079  0.04708  Biso   1.000  H
  H17      1.0000 0.10898  0.18648  0.06491  Biso   1.000  H
  H18      1.0000 0.09614  0.26079  0.04713  Biso   1.000  H
  H19      1.0000 0.10904  0.18648  0.06491  Biso   1.000  H
  H20      1.0000 0.05854  0.04119  0.34592  Biso   1.000  H
  C27      1.0000 0.17571  0.04070  0.39341  Biso   1.000  C
  C28      1.0000 0.10840  0.97290  0.29339  Biso   1.000  C
  C29      1.0000 0.10841  0.97290  0.29344  Biso   1.000  C
  O7       1.0000 0.96223  0.98019  0.26510  Biso   1.000  O
  H21      1.0000 0.96704  0.03141  0.18312  Biso   1.000  H
  H22      1.0000 0.88383  0.03742  0.20979  Biso   1.000  H
  H23      1.0000 0.88384  0.03742  0.20984  Biso   1.000  H
  H24      1.0000 0.78988  0.25159  0.01162  Biso   1.000  H
  O8       1.0000 0.78849  0.15341  0.01318  Biso   1.000  O
  H25      1.0000 0.70455  0.22248  0.02000  Biso   1.000  H
  H26      1.0000 0.78994  0.25159  0.01162  Biso   1.000  H
  O9       1.0000 0.78850  0.15341  0.01323  Biso   1.000  O
  H27      1.0000 0.70759  0.21089  0.05051  Biso   1.000  H
  H28      1.0000 0.71043  0.13908  0.07931  Biso   1.000  H
  H29      1.0000 0.34969  0.15111  0.28268  Biso   1.000  H
  C30      1.0000 0.40458  0.23452  0.25429  Biso   1.000  C
  H30      1.0000 0.31091  0.21539  0.30733  Biso   1.000  H
  H31      1.0000 0.34976  0.15111  0.28273  Biso   1.000  H
  C31      1.0000 0.40465  0.23452  0.25434  Biso   1.000  C
  C32      1.0000 0.34021  0.10209  0.14912  Biso   1.000  C
  C33      1.0000 0.25479  0.17841  0.07820  Biso   1.000  C
  C34      1.0000 0.25485  0.17841  0.07820  Biso   1.000  C
  H32      1.0000 0.22895  0.03840  0.37952  Biso   1.000  H
  C35      1.0000 0.17291  0.10058  0.43630  Biso   1.000  C
  H33      1.0000 0.16991  0.00259  0.42099  Biso   1.000  H
  H34      1.0000 0.16992  0.00259  0.42104  Biso   1.000  H
  C36      1.0000 0.03341  0.94648  0.25909  Biso   1.000  C
  C37      1.0000 0.17890  0.93870  0.28409  Biso   1.000  C
  C38      1.0000 0.03342  0.94648  0.25914  Biso   1.000  C
  C39      1.0000 0.74353  0.12900  0.95302  Biso   1.000  C
  H35      1.0000 0.38561  0.27238  0.22721  Biso   1.000  H
  H36      1.0000 0.43740  0.20791  0.22888  Biso   1.000  H
  C40      1.0000 0.45688  0.25702  0.32279  Biso   1.000  C
  H37      1.0000 0.43741  0.20791  0.22893  Biso   1.000  H
  C41      1.0000 0.45695  0.25702  0.32284  Biso   1.000  C
  H38      1.0000 0.36270  0.08781  0.19201  Biso   1.000  H
  C42      1.0000 0.35685  0.06731  0.09522  Biso   1.000  C
  C43      1.0000 0.27075  0.14260  0.02581  Biso   1.000  C
  C44      1.0000 0.10009  0.10381  0.47059  Biso   1.000  C
  H39      1.0000 0.22135  0.10160  0.47024  Biso   1.000  H
  H40      1.0000 0.17385  0.13908  0.40811  Biso   1.000  H
  C45      1.0000 0.10016  0.10381  0.47064  Biso   1.000  C
  C46      1.0000 0.03223  0.89380  0.22408  Biso   1.000  C
  C47      1.0000 0.03224  0.89380  0.22413  Biso   1.000  C
  H41      1.0000 0.22880  0.95592  0.30349  Biso   1.000  H
  C48      1.0000 0.17944  0.88078  0.24772  Biso   1.000  C
  H42      1.0000 0.22881  0.95592  0.30354  Biso   1.000  H
  C49      1.0000 0.69301  0.08052  0.95459  Biso   1.000  C
  C50      1.0000 0.75834  0.15649  0.89362  Biso   1.000  C
  C51      1.0000 0.69302  0.08052  0.95464  Biso   1.000  C
  C52      1.0000 0.43612  0.31298  0.35572  Biso   1.000  C
  C53      1.0000 0.52511  0.22102  0.34991  Biso   1.000  C
  C54      1.0000 0.40598  0.00558  0.10098  Biso   1.000  C
  C55      1.0000 0.31834  0.09109  0.03071  Biso   1.000  C
  C56      1.0000 0.40605  0.00558  0.10103  Biso   1.000  C
  O10      1.0000 0.22363  0.15400  0.96120  Biso   1.000  O
  C57      1.0000 0.02689  0.13130  0.44069  Biso   1.000  C
  C58      1.0000 0.02696  0.13130  0.44074  Biso   1.000  C
  C59      1.0000 0.10633  0.07509  0.53404  Biso   1.000  C
  O11      1.0000 0.95903  0.87262  0.18589  Biso   1.000  O
  C60      1.0000 0.09909  0.85911  0.21651  Biso   1.000  C
  C61      1.0000 0.09915  0.85911  0.21651  Biso   1.000  C
  C62      1.0000 0.25334  0.84551  0.23510  Biso   1.000  C
  O12      1.0000 0.81082  0.21030  0.89291  Biso   1.000  O
  C63      1.0000 0.72211  0.12880  0.83229  Biso   1.000  C
  C64      1.0000 0.65098  0.05161  0.89660  Biso   1.000  C
  C65      1.0000 0.65104  0.05161  0.89660  Biso   1.000  C
  O13      1.0000 0.67629  0.05772  0.01859  Biso   1.000  O
  O14      1.0000 0.67630  0.05772  0.01864  Biso   1.000  O
  H43      1.0000 0.39054  0.33700  0.33759  Biso   1.000  H
  C66      1.0000 0.48353  0.33289  0.41548  Biso   1.000  C
  H44      1.0000 0.39055  0.33700  0.33764  Biso   1.000  H
  C67      1.0000 0.48354  0.33289  0.41553  Biso   1.000  C
  C68      1.0000 0.57253  0.24102  0.40972  Biso   1.000  C
  H45      1.0000 0.53898  0.18359  0.32789  Biso   1.000  H
  H46      1.0000 0.53905  0.18359  0.32794  Biso   1.000  H
  O15      1.0000 0.33334  0.05469  0.97292  Biso   1.000  O
  H47      1.0000 0.42903  0.00142  0.05910  Biso   1.000  H
  C69      1.0000 0.34902  0.94839  0.10340  Biso   1.000  C
  C70      1.0000 0.47755  0.00362  0.15953  Biso   1.000  C
  C71      1.0000 0.23769  0.21642  0.92680  Biso   1.000  C
  H48      1.0000 0.02274  0.15052  0.39821  Biso   1.000  H
  C72      1.0000 0.95994  0.12998  0.47428  Biso   1.000  C
  C73      1.0000 0.95995  0.12998  0.47433  Biso   1.000  C
  C74      1.0000 0.03933  0.07382  0.56763  Biso   1.000  C
  H49      1.0000 0.15532  0.05670  0.55404  Biso   1.000  H
  C75      1.0000 0.90230  0.84101  0.22782  Biso   1.000  C
  O16      1.0000 0.09511  0.80041  0.17943  Biso   1.000  O
  H50      1.0000 0.23918  0.79909  0.22878  Biso   1.000  H
  C76      1.0000 0.32451  0.85070  0.29440  Biso   1.000  C
  C77      1.0000 0.27789  0.87120  0.16771  Biso   1.000  C
  H51      1.0000 0.23925  0.79909  0.22883  Biso   1.000  H
  C78      1.0000 0.27795  0.87120  0.16771  Biso   1.000  C
  C79      1.0000 0.89060  0.19631  0.88533  Biso   1.000  C
  C80      1.0000 0.67147  0.07739  0.83638  Biso   1.000  C
  C81      1.0000 0.74672  0.15449  0.76490  Biso   1.000  C
  C82      1.0000 0.67154  0.07739  0.83643  Biso   1.000  C
  C83      1.0000 0.59402  0.99442  0.89902  Biso   1.000  C
  C84      1.0000 0.71342  0.99878  0.04258  Biso   1.000  C
  C85      1.0000 0.71343  0.99878  0.04263  Biso   1.000  C
  C86      1.0000 0.55174  0.29689  0.44251  Biso   1.000  C
  H52      1.0000 0.46960  0.37041  0.43751  Biso   1.000  H
  H53      1.0000 0.46966  0.37041  0.43751  Biso   1.000  H
  H54      1.0000 0.61822  0.21691  0.42781  Biso   1.000  H
  C87      1.0000 0.28664  0.00122  0.95742  Biso   1.000  C
  C88      1.0000 0.32853  0.92261  0.16362  Biso   1.000  C
  C89      1.0000 0.30705  0.91948  0.04541  Biso   1.000  C
  C90      1.0000 0.54481  0.04911  0.14483  Biso   1.000  C
  H55      1.0000 0.49824  0.95930  0.16544  Biso   1.000  H
  H56      1.0000 0.45899  0.01688  0.20100  Biso   1.000  H
  H57      1.0000 0.45905  0.01688  0.20100  Biso   1.000  H
  C91      1.0000 0.16532  0.21808  0.86432  Biso   1.000  C
  H58      1.0000 0.23481  0.25350  0.95651  Biso   1.000  H
  H59      1.0000 0.29018  0.21642  0.91150  Biso   1.000  H
  H60      1.0000 0.29024  0.21642  0.91150  Biso   1.000  H
  H61      1.0000 0.91089  0.14842  0.45428  Biso   1.000  H
  H62      1.0000 0.91096  0.14842  0.45433  Biso   1.000  H
  C92      1.0000 0.96613  0.10131  0.53773  Biso   1.000  C
  H63      1.0000 0.04354  0.05459  0.61012  Biso   1.000  H
  H64      1.0000 0.92340  0.79880  0.24449  Biso   1.000  H
  C93      1.0000 0.81949  0.83250  0.18069  Biso   1.000  C
  H65      1.0000 0.89606  0.86841  0.26611  Biso   1.000  H
  H66      1.0000 0.92341  0.79880  0.24454  Biso   1.000  H
  C94      1.0000 0.81956  0.83250  0.18074  Biso   1.000  C
  C95      1.0000 0.10941  0.80369  0.11472  Biso   1.000  C
  H67      1.0000 0.34470  0.89531  0.29799  Biso   1.000  H
  H68      1.0000 0.30569  0.83950  0.33638  Biso   1.000  H
  C96      1.0000 0.39193  0.80501  0.28278  Biso   1.000  C
  H69      1.0000 0.34471  0.89531  0.29804  Biso   1.000  H
  H70      1.0000 0.30576  0.83950  0.33643  Biso   1.000  H
  C97      1.0000 0.39194  0.80501  0.28283  Biso   1.000  C
  C98      1.0000 0.24172  0.84351  0.10638  Biso   1.000  C
  C99      1.0000 0.24172  0.84351  0.10643  Biso   1.000  C
  O17      1.0000 0.90490  0.19959  0.82062  Biso   1.000  O
  H71      1.0000 0.92659  0.22669  0.91251  Biso   1.000  H
  H72      1.0000 0.90404  0.15258  0.90251  Biso   1.000  H
  H73      1.0000 0.64839  0.05772  0.79612  Biso   1.000  H
  C100     1.0000 0.82056  0.11922  0.75228  Biso   1.000  C
  H74      1.0000 0.76082  0.20091  0.77122  Biso   1.000  H
  C101     1.0000 0.67549  0.14930  0.70560  Biso   1.000  C
  C102     1.0000 0.82063  0.11922  0.75233  Biso   1.000  C
  C103     1.0000 0.64321  0.93269  0.90478  Biso   1.000  C
  H75      1.0000 0.57097  0.99858  0.94090  Biso   1.000  H
  C104     1.0000 0.64322  0.93269  0.90483  Biso   1.000  C
  H76      1.0000 0.57103  0.99858  0.94090  Biso   1.000  H
  C105     1.0000 0.52252  0.99638  0.84053  Biso   1.000  C
  O18      1.0000 0.66672  0.94531  0.02708  Biso   1.000  O
  H77      1.0000 0.76342  0.99359  0.02389  Biso   1.000  H
  O19      1.0000 0.66673  0.94531  0.02713  Biso   1.000  O
  H78      1.0000 0.72782  0.00161  0.09128  Biso   1.000  H
  H79      1.0000 0.72783  0.00161  0.09133  Biso   1.000  H
  H80      1.0000 0.58354  0.31029  0.48252  Biso   1.000  H
  O20      1.0000 0.32371  0.94228  0.98141  Biso   1.000  O
  H81      1.0000 0.27218  0.99839  0.90872  Biso   1.000  H
  H82      1.0000 0.27224  0.99839  0.90872  Biso   1.000  H
  H83      1.0000 0.23664  0.00641  0.97611  Biso   1.000  H
  H84      1.0000 0.35161  0.94228  0.20388  Biso   1.000  H
  H85      1.0000 0.35162  0.94228  0.20393  Biso   1.000  H
  C106     1.0000 0.25647  0.87100  0.04698  Biso   1.000  C
  C107     1.0000 0.25654  0.87100  0.04703  Biso   1.000  C
  C108     1.0000 0.61969  0.04819  0.19958  Biso   1.000  C
  H86      1.0000 0.52381  0.09329  0.14013  Biso   1.000  H
  H87      1.0000 0.56094  0.03659  0.10224  Biso   1.000  H
  C109     1.0000 0.61976  0.04819  0.19963  Biso   1.000  C
  C110     1.0000 0.18051  0.16750  0.81931  Biso   1.000  C
  H88      1.0000 0.11362  0.21089  0.87967  Biso   1.000  H
  H89      1.0000 0.16363  0.26020  0.84194  Biso   1.000  H
  H90      1.0000 0.11363  0.21089  0.87972  Biso   1.000  H
  H91      1.0000 0.92135  0.10038  0.56021  Biso   1.000  H
  H92      1.0000 0.77711  0.81978  0.20630  Biso   1.000  H
  H93      1.0000 0.80350  0.87262  0.15639  Biso   1.000  H
  C111     1.0000 0.83468  0.78192  0.13568  Biso   1.000  C
  C112     1.0000 0.83475  0.78192  0.13573  Biso   1.000  C
  H94      1.0000 0.09602  0.84742  0.09749  Biso   1.000  H
  H95      1.0000 0.07341  0.77331  0.08749  Biso   1.000  H
  O21      1.0000 0.18918  0.78970  0.10709  Biso   1.000  O
  H96      1.0000 0.07342  0.77331  0.08754  Biso   1.000  H
  O22      1.0000 0.18925  0.78970  0.10714  Biso   1.000  O
  H97      1.0000 0.40524  0.81289  0.23803  Biso   1.000  H
  H98      1.0000 0.37272  0.76030  0.28409  Biso   1.000  H
  C113     1.0000 0.46766  0.81279  0.33410  Biso   1.000  C
  C114     1.0000 0.90091  0.14089  0.78349  Biso   1.000  C
  C115     1.0000 0.82110  0.06130  0.71591  Biso   1.000  C
  H99      1.0000 0.65530  0.10469  0.70201  Biso   1.000  H
  H100     1.0000 0.69431  0.16050  0.66362  Biso   1.000  H
  C116     1.0000 0.60807  0.19499  0.71722  Biso   1.000  C
  C117     1.0000 0.60813  0.19499  0.71722  Biso   1.000  C
  C118     1.0000 0.68172  0.90891  0.96929  Biso   1.000  C
  C119     1.0000 0.68173  0.90891  0.96934  Biso   1.000  C
  C120     1.0000 0.65980  0.89791  0.85093  Biso   1.000  C
  H101     1.0000 0.54101  0.98312  0.79900  Biso   1.000  H
  C121     1.0000 0.45520  0.95089  0.85523  Biso   1.000  C
  H102     1.0000 0.50177  0.04070  0.83462  Biso   1.000  H
  H103     1.0000 0.50183  0.04070  0.83462  Biso   1.000  H
  O23      1.0000 0.21151  0.84659  0.98682  Biso   1.000  O
  C122     1.0000 0.66140  0.99061  0.21858  Biso   1.000  C
  C123     1.0000 0.66141  0.99061  0.21863  Biso   1.000  C
  C124     1.0000 0.64728  0.10708  0.22939  Biso   1.000  C
  C125     1.0000 0.64735  0.10708  0.22944  Biso   1.000  C
  H104     1.0000 0.22289  0.18022  0.79370  Biso   1.000  H
  H105     1.0000 0.19650  0.12738  0.84361  Biso   1.000  H
  C126     1.0000 0.09771  0.15899  0.77223  Biso   1.000  C
  H106     1.0000 0.83638  0.73980  0.15811  Biso   1.000  H
  H107     1.0000 0.88638  0.78911  0.12033  Biso   1.000  H
  C127     1.0000 0.76231  0.78358  0.07320  Biso   1.000  C
  H108     1.0000 0.83644  0.73980  0.15811  Biso   1.000  H
  H109     1.0000 0.88644  0.78911  0.12033  Biso   1.000  H
  C128     1.0000 0.52280  0.86210  0.32582  Biso   1.000  C
  C129     1.0000 0.52286  0.86210  0.32582  Biso   1.000  C
  C130     1.0000 0.48656  0.76690  0.38533  Biso   1.000  C
  C131     1.0000 0.96777  0.10620  0.77592  Biso   1.000  C
  C132     1.0000 0.96783  0.10620  0.77592  Biso   1.000  C
  C133     1.0000 0.89160  0.02710  0.70661  Biso   1.000  C
  H110     1.0000 0.77120  0.04408  0.69651  Biso   1.000  H
  H111     1.0000 0.59476  0.18711  0.76197  Biso   1.000  H
  H112     1.0000 0.62728  0.23970  0.71591  Biso   1.000  H
  C134     1.0000 0.53240  0.18721  0.66590  Biso   1.000  C
  H113     1.0000 0.59483  0.18711  0.76203  Biso   1.000  H
  C135     1.0000 0.72931  0.85740  0.97419  Biso   1.000  C
  C136     1.0000 0.72932  0.85740  0.97424  Biso   1.000  C
  H114     1.0000 0.63730  0.91219  0.80799  Biso   1.000  H
  C137     1.0000 0.70862  0.84199  0.85603  Biso   1.000  C
  H115     1.0000 0.47620  0.90671  0.85992  Biso   1.000  H
  C138     1.0000 0.38031  0.95181  0.80042  Biso   1.000  C
  H116     1.0000 0.43913  0.96341  0.89781  Biso   1.000  H
  C139     1.0000 0.23729  0.78251  0.96681  Biso   1.000  C
  C140     1.0000 0.25685  0.82531  0.93383  Biso   1.000  C
  H117     1.0000 0.64301  0.95108  0.19872  Biso   1.000  H
  C141     1.0000 0.73070  0.99188  0.26732  Biso   1.000  C
  C142     1.0000 0.73076  0.99188  0.26732  Biso   1.000  C
  H118     1.0000 0.61943  0.14568  0.21671  Biso   1.000  H
  C143     1.0000 0.71651  0.10840  0.27808  Biso   1.000  C
  C144     1.0000 0.71652  0.10840  0.27813  Biso   1.000  C
  O24      1.0000 0.04097  0.12738  0.81411  Biso   1.000  O
  H119     1.0000 0.07660  0.20120  0.75551  Biso   1.000  H
  O25      1.0000 0.04103  0.12738  0.81411  Biso   1.000  O
  H120     1.0000 0.10401  0.13159  0.73394  Biso   1.000  H
  H121     1.0000 0.76519  0.74650  0.04349  Biso   1.000  H
  H122     1.0000 0.70982  0.78358  0.08850  Biso   1.000  H
  O26      1.0000 0.77637  0.84600  0.03880  Biso   1.000  O
  O27      1.0000 0.77643  0.84600  0.03880  Biso   1.000  O
  H123     1.0000 0.51023  0.89282  0.29162  Biso   1.000  H
  C145     1.0000 0.59684  0.86542  0.36881  Biso   1.000  C
  H124     1.0000 0.44963  0.73388  0.39078  Biso   1.000  H
  C146     1.0000 0.56046  0.77018  0.42821  Biso   1.000  C
  H125     1.0000 0.44963  0.73388  0.39083  Biso   1.000  H
  C147     1.0000 0.96659  0.05352  0.74091  Biso   1.000  C
  C148     1.0000 0.88897  0.96292  0.66999  Biso   1.000  C
  C149     1.0000 0.88904  0.96292  0.67004  Biso   1.000  C
  C150     1.0000 0.47720  0.13790  0.67418  Biso   1.000  C
  C151     1.0000 0.51350  0.23310  0.61467  Biso   1.000  C
  C152     1.0000 0.47721  0.13790  0.67423  Biso   1.000  C
  C153     1.0000 0.51351  0.23310  0.61472  Biso   1.000  C
  C154     1.0000 0.74521  0.82159  0.92180  Biso   1.000  C
  C155     1.0000 0.73154  0.80398  0.79622  Biso   1.000  C
  C156     1.0000 0.35272  0.89292  0.77061  Biso   1.000  C
  C157     1.0000 0.33860  0.00939  0.78142  Biso   1.000  C
  C158     1.0000 0.21450  0.77781  0.88912  Biso   1.000  C
  H126     1.0000 0.29551  0.77752  0.98000  Biso   1.000  H
  H127     1.0000 0.21012  0.74841  0.98838  Biso   1.000  H
  H128     1.0000 0.21013  0.74841  0.98843  Biso   1.000  H
  H129     1.0000 0.29242  0.78911  0.94954  Biso   1.000  H
  C159     1.0000 0.19191  0.80349  0.87250  Biso   1.000  C
  H130     1.0000 0.28963  0.86092  0.92069  Biso   1.000  H
  H131     1.0000 0.75849  0.95328  0.28000  Biso   1.000  H
  H132     1.0000 0.75855  0.95328  0.28000  Biso   1.000  H
  C160     1.0000 0.75824  0.05078  0.29713  Biso   1.000  C
  H133     1.0000 0.73503  0.14788  0.29799  Biso   1.000  H
  H134     1.0000 0.73504  0.14788  0.29804  Biso   1.000  H
  H135     1.0000 0.63376  0.89840  0.36330  Biso   1.000  H
  C161     1.0000 0.61561  0.81949  0.42003  Biso   1.000  C
  H136     1.0000 0.57304  0.73951  0.46251  Biso   1.000  H
  O28      1.0000 0.03777  0.01981  0.73490  Biso   1.000  O
  O29      1.0000 0.03783  0.01981  0.73490  Biso   1.000  O
  C162     1.0000 0.88658  0.90970  0.71919  Biso   1.000  C
  H137     1.0000 0.94146  0.95881  0.65408  Biso   1.000  H
  C163     1.0000 0.82429  0.95930  0.60659  Biso   1.000  C
  C164     1.0000 0.88659  0.90970  0.71924  Biso   1.000  C
  H138     1.0000 0.94153  0.95881  0.65413  Biso   1.000  H
  H139     1.0000 0.48977  0.10718  0.70838  Biso   1.000  H
  C165     1.0000 0.40316  0.13458  0.63119  Biso   1.000  C
  H140     1.0000 0.48984  0.10718  0.70843  Biso   1.000  H
  C166     1.0000 0.40322  0.13458  0.63119  Biso   1.000  C
  H141     1.0000 0.55037  0.26612  0.60922  Biso   1.000  H
  C167     1.0000 0.43961  0.22982  0.57184  Biso   1.000  C
  O30      1.0000 0.78931  0.76421  0.93014  Biso   1.000  O
  C168     1.0000 0.81059  0.83461  0.77910  Biso   1.000  C
  H142     1.0000 0.74262  0.75859  0.81012  Biso   1.000  H
  C169     1.0000 0.66671  0.80442  0.72980  Biso   1.000  C
  C170     1.0000 0.28349  0.89160  0.72192  Biso   1.000  C
  H143     1.0000 0.38057  0.85432  0.78329  Biso   1.000  H
  H144     1.0000 0.38063  0.85432  0.78329  Biso   1.000  H
  H145     1.0000 0.35699  0.04892  0.80128  Biso   1.000  H
  H146     1.0000 0.35700  0.04892  0.80133  Biso   1.000  H
  C171     1.0000 0.26931  0.00812  0.73273  Biso   1.000  C
  C172     1.0000 0.13479  0.74039  0.87220  Biso   1.000  C
  H147     1.0000 0.20850  0.82130  0.86972  Biso   1.000  H
  H148     1.0000 0.25710  0.75531  0.87043  Biso   1.000  H
  C173     1.0000 0.13782  0.75242  0.90074  Biso   1.000  C
  H149     1.0000 0.21824  0.78451  0.83724  Biso   1.000  H
  H150     1.0000 0.15964  0.84072  0.85391  Biso   1.000  H
  H151     1.0000 0.80461  0.05171  0.32971  Biso   1.000  H
  H152     1.0000 0.66512  0.82169  0.44882  Biso   1.000  H
  C174     1.0000 0.05774  0.96390  0.77652  Biso   1.000  C
  C175     1.0000 0.95826  0.88582  0.75728  Biso   1.000  C
  C176     1.0000 0.95833  0.88582  0.75733  Biso   1.000  C
  C177     1.0000 0.81408  0.88211  0.73318  Biso   1.000  C
  C178     1.0000 0.81409  0.88211  0.73323  Biso   1.000  C
  H153     1.0000 0.83009  0.99741  0.57901  Biso   1.000  H
  H154     1.0000 0.77105  0.96160  0.62048  Biso   1.000  H
  C179     1.0000 0.82709  0.89942  0.56370  Biso   1.000  C
  H155     1.0000 0.77112  0.96160  0.62053  Biso   1.000  H
  H156     1.0000 0.36630  0.10160  0.63670  Biso   1.000  H
  C180     1.0000 0.38440  0.18051  0.58002  Biso   1.000  C
  H157     1.0000 0.42696  0.26049  0.53749  Biso   1.000  H
  H158     1.0000 0.42703  0.26049  0.53754  Biso   1.000  H
  C181     1.0000 0.87222  0.76969  0.92231  Biso   1.000  C
  C182     1.0000 0.88370  0.81152  0.81330  Biso   1.000  C
  H159     1.0000 0.68910  0.78461  0.69272  Biso   1.000  H
  H160     1.0000 0.65031  0.84889  0.71732  Biso   1.000  H
  C183     1.0000 0.59542  0.76548  0.74571  Biso   1.000  C
  C184     1.0000 0.24183  0.94922  0.70292  Biso   1.000  C
  H161     1.0000 0.26503  0.85212  0.70201  Biso   1.000  H
  H162     1.0000 0.24151  0.04672  0.72000  Biso   1.000  H
  C185     1.0000 0.07869  0.77742  0.81572  Biso   1.000  C
  H163     1.0000 0.14518  0.69651  0.85720  Biso   1.000  H
  H164     1.0000 0.10861  0.73701  0.91210  Biso   1.000  H
  C186     1.0000 0.05504  0.75218  0.85053  Biso   1.000  C
  H165     1.0000 0.16302  0.70952  0.90251  Biso   1.000  H
  H166     1.0000 0.12909  0.76431  0.94590  Biso   1.000  H
  O31      1.0000 0.03309  0.90568  0.74611  Biso   1.000  O
  H167     1.0000 0.03296  0.96859  0.81688  Biso   1.000  H
  H168     1.0000 0.03303  0.96859  0.81693  Biso   1.000  H
  H169     1.0000 0.11623  0.96258  0.79021  Biso   1.000  H
  C187     1.0000 0.95338  0.83622  0.80441  Biso   1.000  C
  C188     1.0000 0.95344  0.83622  0.80441  Biso   1.000  C
  H170     1.0000 0.76538  0.89761  0.70929  Biso   1.000  H
  H171     1.0000 0.76538  0.89761  0.70934  Biso   1.000  H
  H172     1.0000 0.82621  0.86092  0.59189  Biso   1.000  H
  C189     1.0000 0.89991  0.89619  0.52941  Biso   1.000  C
  H173     1.0000 0.77872  0.89840  0.52981  Biso   1.000  H
  H174     1.0000 0.33489  0.17831  0.55123  Biso   1.000  H
  H175     1.0000 0.90393  0.73921  0.95292  Biso   1.000  H
  O32      1.0000 0.88610  0.75722  0.85664  Biso   1.000  O
  H176     1.0000 0.89103  0.81352  0.93514  Biso   1.000  H
  H177     1.0000 0.61439  0.72762  0.77279  Biso   1.000  H
  H178     1.0000 0.56260  0.79209  0.77112  Biso   1.000  H
  C190     1.0000 0.54312  0.74298  0.67721  Biso   1.000  C
  H179     1.0000 0.61440  0.72762  0.77284  Biso   1.000  H
  H180     1.0000 0.19539  0.94829  0.67029  Biso   1.000  H
  O33      1.0000 0.02591  0.81959  0.84770  Biso   1.000  O
  H181     1.0000 0.04653  0.74650  0.78592  Biso   1.000  H
  H182     1.0000 0.11104  0.80320  0.78910  Biso   1.000  H
  H183     1.0000 0.06319  0.73750  0.80612  Biso   1.000  H
  H184     1.0000 0.01600  0.72341  0.86679  Biso   1.000  H
  C191     1.0000 0.97311  0.86870  0.55931  Biso   1.000  C
  C192     1.0000 0.89368  0.92491  0.46601  Biso   1.000  C
  C193     1.0000 0.56389  0.68702  0.64433  Biso   1.000  C
  C194     1.0000 0.47490  0.77898  0.65014  Biso   1.000  C
  H185     1.0000 0.97726  0.84948  0.60179  Biso   1.000  H
  H186     1.0000 0.97732  0.84948  0.60179  Biso   1.000  H
  C195     1.0000 0.04012  0.87002  0.52572  Biso   1.000  C
  C196     1.0000 0.96068  0.92618  0.43242  Biso   1.000  C
  H187     1.0000 0.84468  0.94330  0.44601  Biso   1.000  H
  H188     1.0000 0.60946  0.66300  0.66241  Biso   1.000  H
  C197     1.0000 0.51647  0.66711  0.58452  Biso   1.000  C
  H189     1.0000 0.60952  0.66300  0.66241  Biso   1.000  H
  C198     1.0000 0.42747  0.75898  0.59028  Biso   1.000  C
  H190     1.0000 0.46102  0.81641  0.67211  Biso   1.000  H
  C199     1.0000 0.42748  0.75898  0.59033  Biso   1.000  C
  H191     1.0000 0.08911  0.85158  0.54572  Biso   1.000  H
  C200     1.0000 0.03388  0.89869  0.46232  Biso   1.000  C
  H192     1.0000 0.95647  0.94541  0.38993  Biso   1.000  H
  H193     1.0000 0.53040  0.62959  0.56249  Biso   1.000  H
  C201     1.0000 0.44826  0.70311  0.55749  Biso   1.000  C
  C202     1.0000 0.44832  0.70311  0.55749  Biso   1.000  C
  H194     1.0000 0.38178  0.78309  0.57219  Biso   1.000  H
  H195     1.0000 0.07865  0.89962  0.43979  Biso   1.000  H
  H196     1.0000 0.07871  0.89962  0.43979  Biso   1.000  H
  H197     1.0000 0.41646  0.68971  0.51748  Biso   1.000  H
  H198     1.0000 0.41653  0.68971  0.51753  Biso   1.000  H
  C203     1.0000 0.09769  0.34101  0.27222  Biso   1.000  C
  C204     1.0000 0.18049  0.33250  0.31930  Biso   1.000  C
  O34      1.0000 0.04101  0.37262  0.31410  Biso   1.000  O
  H199     1.0000 0.10398  0.36841  0.23388  Biso   1.000  H
  H200     1.0000 0.07658  0.29880  0.25550  Biso   1.000  H
  H201     1.0000 0.22293  0.31978  0.29369  Biso   1.000  H
  H202     1.0000 0.19654  0.37262  0.34360  Biso   1.000  H
  C205     1.0000 0.16530  0.28192  0.36431  Biso   1.000  C
  C206     1.0000 0.96781  0.39380  0.27591  Biso   1.000  C
  H203     1.0000 0.16360  0.23980  0.34188  Biso   1.000  H
  H204     1.0000 0.11361  0.28911  0.37972  Biso   1.000  H
  C207     1.0000 0.23773  0.28358  0.42680  Biso   1.000  C
  C208     1.0000 0.90089  0.35911  0.28349  Biso   1.000  C
  C209     1.0000 0.96663  0.44648  0.24090  Biso   1.000  C
  H205     1.0000 0.23479  0.24650  0.45650  Biso   1.000  H
  H206     1.0000 0.29022  0.28358  0.41149  Biso   1.000  H
  O35      1.0000 0.22361  0.34600  0.46120  Biso   1.000  O
  O36      1.0000 0.90494  0.30041  0.32062  Biso   1.000  O
  C210     1.0000 0.82061  0.38078  0.25232  Biso   1.000  C
  O37      1.0000 0.03781  0.48019  0.23489  Biso   1.000  O
  C211     1.0000 0.89164  0.47290  0.20660  Biso   1.000  C
  C212     1.0000 0.27073  0.35740  0.52581  Biso   1.000  C
  C213     1.0000 0.89064  0.30369  0.38533  Biso   1.000  C
  C214     1.0000 0.82114  0.43870  0.21590  Biso   1.000  C
  C215     1.0000 0.74670  0.34551  0.26490  Biso   1.000  C
  C216     1.0000 0.05772  0.53610  0.27652  Biso   1.000  C
  C217     1.0000 0.88901  0.53708  0.16998  Biso   1.000  C
  C218     1.0000 0.31832  0.40891  0.53071  Biso   1.000  C
  C219     1.0000 0.25483  0.32159  0.57819  Biso   1.000  C
  O38      1.0000 0.81081  0.28970  0.39290  Biso   1.000  O
  H207     1.0000 0.90402  0.34742  0.40250  Biso   1.000  H
  H208     1.0000 0.92663  0.27331  0.41250  Biso   1.000  H
  H209     1.0000 0.77124  0.45592  0.19650  Biso   1.000  H
  C220     1.0000 0.72209  0.37120  0.33229  Biso   1.000  C
  H210     1.0000 0.76080  0.29909  0.27121  Biso   1.000  H
  C221     1.0000 0.67553  0.35070  0.20559  Biso   1.000  C
  O39      1.0000 0.03313  0.59432  0.24611  Biso   1.000  O
  H211     1.0000 0.03301  0.53141  0.31688  Biso   1.000  H
  H212     1.0000 0.11621  0.53742  0.29021  Biso   1.000  H
  C222     1.0000 0.88662  0.59030  0.21918  Biso   1.000  C
  H213     1.0000 0.94152  0.54119  0.15412  Biso   1.000  H
  C223     1.0000 0.82428  0.54070  0.10659  Biso   1.000  C
  O40      1.0000 0.33332  0.44531  0.47292  Biso   1.000  O
  C224     1.0000 0.35683  0.43269  0.59521  Biso   1.000  C
  O41      1.0000 0.21074  0.26421  0.56991  Biso   1.000  O
  C225     1.0000 0.29143  0.34199  0.64401  Biso   1.000  C
  C226     1.0000 0.75833  0.34351  0.39361  Biso   1.000  C
  C227     1.0000 0.67151  0.42261  0.33638  Biso   1.000  C
  H214     1.0000 0.65534  0.39531  0.20201  Biso   1.000  H
  H215     1.0000 0.69429  0.33950  0.16362  Biso   1.000  H
  C228     1.0000 0.60811  0.30501  0.21721  Biso   1.000  C
  C229     1.0000 0.95831  0.61418  0.25732  Biso   1.000  C
  C230     1.0000 0.81413  0.61789  0.23323  Biso   1.000  C
  H216     1.0000 0.83013  0.50259  0.07900  Biso   1.000  H
  H217     1.0000 0.77110  0.53840  0.12048  Biso   1.000  H
  C231     1.0000 0.82713  0.60058  0.06370  Biso   1.000  C
  C232     1.0000 0.28662  0.49878  0.45741  Biso   1.000  C
  C233     1.0000 0.34025  0.39791  0.64911  Biso   1.000  C
  C234     1.0000 0.40603  0.49442  0.60102  Biso   1.000  C
  C235     1.0000 0.12782  0.26969  0.57769  Biso   1.000  C
  C236     1.0000 0.26851  0.30398  0.70382  Biso   1.000  C
  C237     1.0000 0.74351  0.37100  0.45302  Biso   1.000  C
  C238     1.0000 0.65102  0.44839  0.39659  Biso   1.000  C
  H218     1.0000 0.64844  0.44228  0.29612  Biso   1.000  H
  H219     1.0000 0.59481  0.31289  0.26202  Biso   1.000  H
  H220     1.0000 0.62732  0.26030  0.21590  Biso   1.000  H
  C239     1.0000 0.53238  0.31279  0.16589  Biso   1.000  C
  C240     1.0000 0.95342  0.66378  0.30440  Biso   1.000  C
  C241     1.0000 0.81064  0.66539  0.27909  Biso   1.000  C
  H221     1.0000 0.76542  0.60239  0.20928  Biso   1.000  H
  H222     1.0000 0.77871  0.60160  0.02980  Biso   1.000  H
  H223     1.0000 0.82619  0.63908  0.09189  Biso   1.000  H
  C242     1.0000 0.89989  0.60381  0.02940  Biso   1.000  C
  O42      1.0000 0.32375  0.55772  0.48140  Biso   1.000  O
  H224     1.0000 0.27222  0.50161  0.40871  Biso   1.000  H
  H225     1.0000 0.23662  0.49359  0.47610  Biso   1.000  H
  H226     1.0000 0.36275  0.41219  0.69200  Biso   1.000  H
  C243     1.0000 0.34900  0.55161  0.60340  Biso   1.000  C
  H227     1.0000 0.42901  0.49858  0.55910  Biso   1.000  H
  C244     1.0000 0.47753  0.49638  0.65952  Biso   1.000  C
  H228     1.0000 0.09612  0.23921  0.54712  Biso   1.000  H
  H229     1.0000 0.10902  0.31352  0.56491  Biso   1.000  H
  O43      1.0000 0.11395  0.25722  0.64341  Biso   1.000  O
  C245     1.0000 0.18945  0.33461  0.72089  Biso   1.000  C
  H230     1.0000 0.25742  0.25859  0.68988  Biso   1.000  H
  C246     1.0000 0.33333  0.30442  0.77020  Biso   1.000  C
  O44      1.0000 0.78853  0.34659  0.51318  Biso   1.000  O
  C247     1.0000 0.69299  0.41948  0.45458  Biso   1.000  C
  C248     1.0000 0.59400  0.50558  0.39902  Biso   1.000  C
  C249     1.0000 0.47719  0.36210  0.17423  Biso   1.000  C
  C250     1.0000 0.51349  0.26690  0.11472  Biso   1.000  C
  O45      1.0000 0.02590  0.68041  0.34769  Biso   1.000  O
  C251     1.0000 0.88368  0.68848  0.31329  Biso   1.000  C
  C252     1.0000 0.73152  0.69602  0.29622  Biso   1.000  C
  C253     1.0000 0.89372  0.57509  0.96600  Biso   1.000  C
  C254     1.0000 0.97309  0.63130  0.05930  Biso   1.000  C
  C255     1.0000 0.30703  0.58052  0.54541  Biso   1.000  C
  C256     1.0000 0.32851  0.57739  0.66361  Biso   1.000  C
  H231     1.0000 0.45903  0.48312  0.70099  Biso   1.000  H
  H232     1.0000 0.49821  0.54070  0.66538  Biso   1.000  H
  C257     1.0000 0.54485  0.45089  0.64482  Biso   1.000  C
  C258     1.0000 0.11634  0.31152  0.68670  Biso   1.000  C
  C259     1.0000 0.18596  0.38211  0.76681  Biso   1.000  C
  H233     1.0000 0.31095  0.28461  0.80733  Biso   1.000  H
  H234     1.0000 0.34974  0.34889  0.78272  Biso   1.000  H
  C260     1.0000 0.40462  0.26548  0.75428  Biso   1.000  C
  C261     1.0000 0.76275  0.28251  0.53318  Biso   1.000  C
  C262     1.0000 0.74320  0.32531  0.56622  Biso   1.000  C
  O46      1.0000 0.67633  0.44228  0.51858  Biso   1.000  O
  C263     1.0000 0.64320  0.56731  0.40482  Biso   1.000  C
  H235     1.0000 0.57101  0.50142  0.44089  Biso   1.000  H
  C264     1.0000 0.52250  0.50362  0.34052  Biso   1.000  C
  H236     1.0000 0.48982  0.39282  0.20842  Biso   1.000  H
  C265     1.0000 0.40320  0.36542  0.13119  Biso   1.000  C
  C266     1.0000 0.43958  0.27018  0.07178  Biso   1.000  C
  H237     1.0000 0.55042  0.23388  0.10921  Biso   1.000  H
  C267     1.0000 0.07873  0.72258  0.31572  Biso   1.000  C
  C268     1.0000 0.05502  0.74782  0.35052  Biso   1.000  C
  O47      1.0000 0.88613  0.74278  0.35658  Biso   1.000  O
  C269     1.0000 0.70860  0.65801  0.35598  Biso   1.000  C
  H238     1.0000 0.74260  0.74141  0.31011  Biso   1.000  H
  C270     1.0000 0.66670  0.69558  0.22979  Biso   1.000  C
  C271     1.0000 0.96073  0.57382  0.93241  Biso   1.000  C
  H239     1.0000 0.84473  0.55670  0.94600  Biso   1.000  H
  C272     1.0000 0.04010  0.62998  0.02571  Biso   1.000  C
  H240     1.0000 0.97731  0.65052  0.10179  Biso   1.000  H
  C273     1.0000 0.25653  0.62900  0.54702  Biso   1.000  C
  C274     1.0000 0.27793  0.62880  0.66770  Biso   1.000  C
  H241     1.0000 0.35166  0.55772  0.70392  Biso   1.000  H
  H242     1.0000 0.52385  0.40671  0.64012  Biso   1.000  H
  H243     1.0000 0.56091  0.46341  0.60219  Biso   1.000  H
  C275     1.0000 0.61974  0.45181  0.69963  Biso   1.000  C
  C276     1.0000 0.04660  0.33622  0.69559  Biso   1.000  C
  H244     1.0000 0.23461  0.39761  0.79071  Biso   1.000  H
  C277     1.0000 0.11346  0.40970  0.78080  Biso   1.000  C
  H245     1.0000 0.38565  0.22762  0.72721  Biso   1.000  H
  H246     1.0000 0.43745  0.29209  0.72893  Biso   1.000  H
  C278     1.0000 0.45692  0.24298  0.82278  Biso   1.000  C
  C279     1.0000 0.78556  0.27781  0.61092  Biso   1.000  C
  H247     1.0000 0.70453  0.27752  0.52000  Biso   1.000  H
  H248     1.0000 0.78992  0.24841  0.51161  Biso   1.000  H
  H249     1.0000 0.70763  0.28911  0.55051  Biso   1.000  H
  C280     1.0000 0.80814  0.30349  0.62749  Biso   1.000  C
  H250     1.0000 0.71041  0.36092  0.57930  Biso   1.000  H
  C281     1.0000 0.71341  0.50122  0.54258  Biso   1.000  C
  C282     1.0000 0.68171  0.59109  0.46928  Biso   1.000  C
  C283     1.0000 0.65984  0.60209  0.35093  Biso   1.000  C
  H251     1.0000 0.54099  0.51688  0.29900  Biso   1.000  H
  H252     1.0000 0.50181  0.45930  0.33461  Biso   1.000  H
  C284     1.0000 0.45524  0.54911  0.35522  Biso   1.000  C
  H253     1.0000 0.36628  0.39840  0.13669  Biso   1.000  H
  C285     1.0000 0.38438  0.31949  0.08002  Biso   1.000  C
  H254     1.0000 0.42700  0.23951  0.03748  Biso   1.000  H
  C286     1.0000 0.13483  0.75961  0.37219  Biso   1.000  C
  H255     1.0000 0.04651  0.75350  0.28591  Biso   1.000  H
  H256     1.0000 0.11102  0.69680  0.28910  Biso   1.000  H
  H257     1.0000 0.06323  0.76250  0.30612  Biso   1.000  H
  H258     1.0000 0.01604  0.77659  0.36679  Biso   1.000  H
  C287     1.0000 0.13780  0.74758  0.40068  Biso   1.000  C
  C288     1.0000 0.87220  0.73031  0.42230  Biso   1.000  C
  C289     1.0000 0.74520  0.67841  0.42180  Biso   1.000  C
  H259     1.0000 0.68908  0.71539  0.19271  Biso   1.000  H
  H260     1.0000 0.65029  0.65111  0.21731  Biso   1.000  H
  C290     1.0000 0.59540  0.73452  0.24570  Biso   1.000  C
  H261     1.0000 0.95650  0.55459  0.88988  Biso   1.000  H
  C291     1.0000 0.03392  0.60131  0.96232  Biso   1.000  C
  H262     1.0000 0.08909  0.64842  0.04572  Biso   1.000  H
  C292     1.0000 0.24171  0.65649  0.60643  Biso   1.000  C
  O48      1.0000 0.21149  0.65341  0.48681  Biso   1.000  O
  C293     1.0000 0.25332  0.65449  0.73509  Biso   1.000  C
  C294     1.0000 0.66145  0.50939  0.71862  Biso   1.000  C
  C295     1.0000 0.64732  0.39292  0.72938  Biso   1.000  C
  C296     1.0000 0.04173  0.38582  0.74272  Biso   1.000  C
  O49      1.0000 0.97413  0.31959  0.65230  Biso   1.000  O
  C297     1.0000 0.11102  0.46292  0.83001  Biso   1.000  C
  C298     1.0000 0.43616  0.18702  0.85572  Biso   1.000  C
  C299     1.0000 0.52515  0.27898  0.84991  Biso   1.000  C
  C300     1.0000 0.86525  0.24039  0.62780  Biso   1.000  C
  H263     1.0000 0.74295  0.25531  0.62961  Biso   1.000  H
  H264     1.0000 0.79155  0.32130  0.63032  Biso   1.000  H
  C301     1.0000 0.86223  0.25242  0.59931  Biso   1.000  C
  H265     1.0000 0.78181  0.28451  0.66280  Biso   1.000  H
  H266     1.0000 0.84040  0.34072  0.64608  Biso   1.000  H
  O50      1.0000 0.66671  0.55469  0.52712  Biso   1.000  O
  H267     1.0000 0.72781  0.49839  0.59132  Biso   1.000  H
  H268     1.0000 0.76340  0.50641  0.52389  Biso   1.000  H
  C302     1.0000 0.72929  0.64260  0.47418  Biso   1.000  C
  H269     1.0000 0.63734  0.58781  0.30799  Biso   1.000  H
  H270     1.0000 0.47625  0.59329  0.35992  Biso   1.000  H
  H271     1.0000 0.43912  0.53659  0.39780  Biso   1.000  H
  C303     1.0000 0.38030  0.54819  0.30041  Biso   1.000  C
  H272     1.0000 0.33493  0.32169  0.05122  Biso   1.000  H
  C304     1.0000 0.21454  0.72219  0.38911  Biso   1.000  C
  H273     1.0000 0.14522  0.80349  0.35719  Biso   1.000  H
  H274     1.0000 0.10859  0.76299  0.41210  Biso   1.000  H
  H275     1.0000 0.16300  0.79048  0.40250  Biso   1.000  H
  C305     1.0000 0.19189  0.69651  0.37250  Biso   1.000  C
  H276     1.0000 0.12913  0.73569  0.44589  Biso   1.000  H
  O51      1.0000 0.78934  0.73579  0.43008  Biso   1.000  O
  H277     1.0000 0.90391  0.76079  0.45291  Biso   1.000  H
  H278     1.0000 0.89100  0.68648  0.43508  Biso   1.000  H
  H279     1.0000 0.61443  0.77238  0.27278  Biso   1.000  H
  H280     1.0000 0.56259  0.70791  0.27111  Biso   1.000  H
  C306     1.0000 0.54310  0.75702  0.17721  Biso   1.000  C
  H281     1.0000 0.07869  0.60038  0.93979  Biso   1.000  H
  O52      1.0000 0.18922  0.71030  0.60709  Biso   1.000  O
  C307     1.0000 0.23734  0.71749  0.46681  Biso   1.000  C
  C308     1.0000 0.25683  0.67469  0.43382  Biso   1.000  C
  C309     1.0000 0.17942  0.61922  0.74772  Biso   1.000  C
  H282     1.0000 0.23923  0.70091  0.72883  Biso   1.000  H
  C310     1.0000 0.32455  0.64930  0.79439  Biso   1.000  C
  H283     1.0000 0.64305  0.54892  0.69872  Biso   1.000  H
  C311     1.0000 0.73074  0.50812  0.76732  Biso   1.000  C
  C312     1.0000 0.71656  0.39160  0.77813  Biso   1.000  C
  H284     1.0000 0.61941  0.35432  0.71670  Biso   1.000  H
  O53      1.0000 0.96695  0.40568  0.75388  Biso   1.000  O
  C313     1.0000 0.92136  0.27742  0.68432  Biso   1.000  C
  C314     1.0000 0.94502  0.25218  0.64952  Biso   1.000  C
  H285     1.0000 0.05852  0.45881  0.84592  Biso   1.000  H
  C315     1.0000 0.17575  0.45930  0.89340  Biso   1.000  C
  C316     1.0000 0.10844  0.52710  0.79338  Biso   1.000  C
  H286     1.0000 0.39052  0.16300  0.83758  Biso   1.000  H
  C317     1.0000 0.48352  0.16711  0.91553  Biso   1.000  C
  C318     1.0000 0.57251  0.25898  0.90972  Biso   1.000  C
  H287     1.0000 0.53902  0.31641  0.82788  Biso   1.000  H
  H288     1.0000 0.85480  0.19651  0.64280  Biso   1.000  H
  H289     1.0000 0.89143  0.23701  0.58789  Biso   1.000  H
  H290     1.0000 0.83702  0.20952  0.59749  Biso   1.000  H
  H291     1.0000 0.87095  0.26431  0.55410  Biso   1.000  H
  O54      1.0000 0.77642  0.65400  0.53879  Biso   1.000  O
  C319     1.0000 0.33864  0.49061  0.28142  Biso   1.000  C
  C320     1.0000 0.35270  0.60708  0.27061  Biso   1.000  C
  H292     1.0000 0.25714  0.74469  0.37042  Biso   1.000  H
  H293     1.0000 0.20854  0.67870  0.36972  Biso   1.000  H
  H294     1.0000 0.21821  0.71549  0.33719  Biso   1.000  H
  H295     1.0000 0.15962  0.65928  0.35391  Biso   1.000  H
  C321     1.0000 0.56393  0.81298  0.14432  Biso   1.000  C
  C322     1.0000 0.47493  0.72102  0.15008  Biso   1.000  C
  C323     1.0000 0.10945  0.69631  0.61471  Biso   1.000  C
  H296     1.0000 0.29549  0.72248  0.47999  Biso   1.000  H
  H297     1.0000 0.21012  0.75159  0.48843  Biso   1.000  H
  H298     1.0000 0.29239  0.71089  0.44948  Biso   1.000  H
  H299     1.0000 0.28961  0.63908  0.42069  Biso   1.000  H
  C324     1.0000 0.17895  0.56130  0.78409  Biso   1.000  C
  C325     1.0000 0.09913  0.64089  0.71650  Biso   1.000  C
  H300     1.0000 0.34474  0.60469  0.79798  Biso   1.000  H
  H301     1.0000 0.30574  0.66050  0.83642  Biso   1.000  H
  C326     1.0000 0.39192  0.69499  0.78283  Biso   1.000  C
  H302     1.0000 0.75854  0.54672  0.78000  Biso   1.000  H
  C327     1.0000 0.75822  0.44922  0.79712  Biso   1.000  C
  H303     1.0000 0.73501  0.35212  0.79798  Biso   1.000  H
  C328     1.0000 0.94231  0.46390  0.72352  Biso   1.000  C
  H304     1.0000 0.95352  0.24650  0.71413  Biso   1.000  H
  H305     1.0000 0.88901  0.30320  0.71089  Biso   1.000  H
  H306     1.0000 0.93686  0.23750  0.69392  Biso   1.000  H
  H307     1.0000 0.98404  0.22341  0.63320  Biso   1.000  H
  H308     1.0000 0.16995  0.49741  0.92098  Biso   1.000  H
  H309     1.0000 0.22893  0.46160  0.87951  Biso   1.000  H
  C329     1.0000 0.17295  0.39942  0.93629  Biso   1.000  C
  C330     1.0000 0.03346  0.55352  0.75908  Biso   1.000  C
  H310     1.0000 0.46964  0.12959  0.93750  Biso   1.000  H
  C331     1.0000 0.55172  0.20311  0.94250  Biso   1.000  C
  H311     1.0000 0.61826  0.28309  0.92780  Biso   1.000  H
  C332     1.0000 0.76229  0.71642  0.57319  Biso   1.000  C
  H312     1.0000 0.35704  0.45108  0.30132  Biso   1.000  H
  C333     1.0000 0.26929  0.49188  0.23272  Biso   1.000  C
  C334     1.0000 0.28353  0.60840  0.22191  Biso   1.000  C
  H313     1.0000 0.38061  0.64568  0.28329  Biso   1.000  H
  H314     1.0000 0.60950  0.83700  0.16240  Biso   1.000  H
  C335     1.0000 0.51652  0.83289  0.08451  Biso   1.000  C
  C336     1.0000 0.42752  0.74102  0.09032  Biso   1.000  C
  H315     1.0000 0.46100  0.68359  0.17210  Biso   1.000  H
  O55      1.0000 0.09515  0.69959  0.67942  Biso   1.000  O
  H316     1.0000 0.09600  0.65258  0.59749  Biso   1.000  H
  H317     1.0000 0.07339  0.72669  0.58749  Biso   1.000  H
  H318     1.0000 0.22884  0.54408  0.80349  Biso   1.000  H
  C337     1.0000 0.03222  0.60620  0.72413  Biso   1.000  C
  H319     1.0000 0.40523  0.68711  0.73802  Biso   1.000  H
  H320     1.0000 0.37276  0.73970  0.78409  Biso   1.000  H
  C338     1.0000 0.46764  0.68721  0.83410  Biso   1.000  C
  H321     1.0000 0.80465  0.44829  0.82970  Biso   1.000  H
  H322     1.0000 0.96702  0.46859  0.68311  Biso   1.000  H
  H323     1.0000 0.88381  0.46258  0.70978  Biso   1.000  H
  O56      1.0000 0.96222  0.51981  0.76509  Biso   1.000  O
  H324     1.0000 0.22132  0.39840  0.97018  Biso   1.000  H
  H325     1.0000 0.17383  0.36092  0.90810  Biso   1.000  H
  C339     1.0000 0.10013  0.39619  0.97059  Biso   1.000  C
  H326     1.0000 0.58352  0.18971  0.98251  Biso   1.000  H
  C340     1.0000 0.83473  0.71808  0.63573  Biso   1.000  C
  H327     1.0000 0.76523  0.75350  0.54349  Biso   1.000  H
  H328     1.0000 0.70980  0.71642  0.58850  Biso   1.000  H
  H329     1.0000 0.24149  0.45328  0.21999  Biso   1.000  H
  C341     1.0000 0.24182  0.55078  0.20292  Biso   1.000  C
  H330     1.0000 0.26501  0.64788  0.20201  Biso   1.000  H
  H331     1.0000 0.53039  0.87041  0.06249  Biso   1.000  H
  C342     1.0000 0.44830  0.79689  0.05749  Biso   1.000  C
  H332     1.0000 0.38182  0.71691  0.07219  Biso   1.000  H
  O57      1.0000 0.95901  0.62738  0.68589  Biso   1.000  O
  C343     1.0000 0.52284  0.63790  0.82581  Biso   1.000  C
  C344     1.0000 0.48654  0.73310  0.88532  Biso   1.000  C
  C345     1.0000 0.02693  0.36870  0.94068  Biso   1.000  C
  C346     1.0000 0.10636  0.42491  0.03398  Biso   1.000  C
  C347     1.0000 0.81953  0.66750  0.68068  Biso   1.000  C
  H333     1.0000 0.83642  0.76020  0.65810  Biso   1.000  H
  H334     1.0000 0.88642  0.71089  0.62032  Biso   1.000  H
  H335     1.0000 0.19543  0.55171  0.17028  Biso   1.000  H
  H336     1.0000 0.41650  0.81029  0.01748  Biso   1.000  H
  C348     1.0000 0.90234  0.65899  0.72782  Biso   1.000  C
  H337     1.0000 0.51021  0.60718  0.79162  Biso   1.000  H
  C349     1.0000 0.59682  0.63458  0.86880  Biso   1.000  C
  C350     1.0000 0.56044  0.72982  0.92821  Biso   1.000  C
  H338     1.0000 0.44962  0.76612  0.89083  Biso   1.000  H
  H339     1.0000 0.02272  0.34948  0.89820  Biso   1.000  H
  C351     1.0000 0.95994  0.37002  0.97433  Biso   1.000  C
  C352     1.0000 0.03937  0.42618  0.06763  Biso   1.000  C
  H340     1.0000 0.15536  0.44330  0.05399  Biso   1.000  H
  H341     1.0000 0.77715  0.68022  0.70630  Biso   1.000  H
  H342     1.0000 0.80355  0.62738  0.65639  Biso   1.000  H
  H343     1.0000 0.89604  0.63159  0.76611  Biso   1.000  H
  H344     1.0000 0.92344  0.70120  0.74448  Biso   1.000  H
  H345     1.0000 0.63374  0.60160  0.86330  Biso   1.000  H
  C353     1.0000 0.61566  0.68051  0.92002  Biso   1.000  C
  H346     1.0000 0.57302  0.76049  0.96251  Biso   1.000  H
  H347     1.0000 0.91094  0.35158  0.95432  Biso   1.000  H
  C354     1.0000 0.96617  0.39869  0.03772  Biso   1.000  C
  H348     1.0000 0.04352  0.44541  0.11011  Biso   1.000  H
  H349     1.0000 0.66516  0.67831  0.94882  Biso   1.000  H
  H350     1.0000 0.92133  0.39962  0.06020  Biso   1.000  H
