data_image0
_cell_length_a       16.72
_cell_length_b       20.559
_cell_length_c       20.168
_cell_angle_alpha    90
_cell_angle_beta     98.52
_cell_angle_gamma    90

_symmetry_space_group_name_H-M    "P 1"
_symmetry_int_tables_number       1

loop_
  _symmetry_equiv_pos_as_xyz
  'x, y, z'

loop_
  _atom_site_label
  _atom_site_occupancy
  _atom_site_fract_x
  _atom_site_fract_y
  _atom_site_fract_z
  _atom_site_thermal_displace_type
  _atom_site_B_iso_or_equiv
  _atom_site_type_symbol
  C1       1.0000 0.91466  0.29578  0.68878  Biso   1.000  C
  C2       1.0000 0.83533  0.29160  0.64280  Biso   1.000  C
  C3       1.0000 0.94066  0.25731  0.66391  Biso   1.000  C
  O1       1.0000 0.97807  0.31738  0.65539  Biso   1.000  O
  H1       1.0000 0.92144  0.25590  0.70698  Biso   1.000  H
  H2       1.0000 0.92826  0.25322  0.70798  Biso   1.000  H
  H3       1.0000 0.90904  0.32540  0.72528  Biso   1.000  H
  C4       1.0000 0.83543  0.25541  0.57878  Biso   1.000  C
  C5       1.0000 0.87093  0.25069  0.60811  Biso   1.000  C
  H4       1.0000 0.77125  0.27448  0.64702  Biso   1.000  H
  H5       1.0000 0.82583  0.33431  0.63819  Biso   1.000  H
  H6       1.0000 0.81677  0.33562  0.63197  Biso   1.000  H
  H7       1.0000 0.79626  0.27132  0.66717  Biso   1.000  H
  H8       1.0000 0.97873  0.22200  0.66211  Biso   1.000  H
  C6       1.0000 0.04694  0.33358  0.69941  Biso   1.000  C
  C7       1.0000 0.77016  0.28032  0.52578  Biso   1.000  C
  C8       1.0000 0.80252  0.29520  0.61618  Biso   1.000  C
  H9       1.0000 0.85163  0.20609  0.60650  Biso   1.000  H
  H10      1.0000 0.88963  0.25998  0.56579  Biso   1.000  H
  H11      1.0000 0.88764  0.26052  0.56369  Biso   1.000  H
  H12      1.0000 0.82705  0.20949  0.58610  Biso   1.000  H
  C9       1.0000 0.04502  0.38329  0.74589  Biso   1.000  C
  C10      1.0000 0.12055  0.30760  0.68828  Biso   1.000  C
  O2       1.0000 0.79013  0.34481  0.51039  Biso   1.000  O
  C11      1.0000 0.74415  0.31660  0.55662  Biso   1.000  C
  H13      1.0000 0.71379  0.27959  0.53631  Biso   1.000  H
  H14      1.0000 0.71833  0.27939  0.54198  Biso   1.000  H
  H15      1.0000 0.76633  0.25332  0.48598  Biso   1.000  H
  O3       1.0000 0.97002  0.40488  0.75591  Biso   1.000  O
  C12      1.0000 0.11682  0.40702  0.78118  Biso   1.000  C
  O4       1.0000 0.11874  0.25181  0.64837  Biso   1.000  O
  C13      1.0000 0.19236  0.33129  0.72367  Biso   1.000  C
  C14      1.0000 0.74543  0.36850  0.45068  Biso   1.000  C
  H16      1.0000 0.70645  0.34812  0.56990  Biso   1.000  H
  C15      1.0000 0.94896  0.46369  0.72478  Biso   1.000  C
  C16      1.0000 0.19045  0.38100  0.77020  Biso   1.000  C
  C17      1.0000 0.11261  0.46179  0.82991  Biso   1.000  C
  C18      1.0000 0.13003  0.26339  0.58239  Biso   1.000  C
  C19      1.0000 0.26936  0.30498  0.70708  Biso   1.000  C
  C20      1.0000 0.75880  0.34452  0.38891  Biso   1.000  C
  C21      1.0000 0.69373  0.42098  0.45389  Biso   1.000  C
  H17      1.0000 0.97732  0.46802  0.68637  Biso   1.000  H
  H18      1.0000 0.89143  0.46311  0.70808  Biso   1.000  H
  O5       1.0000 0.96582  0.51802  0.76559  Biso   1.000  O
  H19      1.0000 0.23845  0.39691  0.79382  Biso   1.000  H
  H20      1.0000 0.06070  0.45810  0.84671  Biso   1.000  H
  C22      1.0000 0.18061  0.46009  0.89218  Biso   1.000  C
  C23      1.0000 0.11176  0.52600  0.79171  Biso   1.000  C
  O6       1.0000 0.21243  0.26188  0.57321  Biso   1.000  O
  H21      1.0000 0.10063  0.23090  0.55371  Biso   1.000  H
  H22      1.0000 0.10753  0.30561  0.56860  Biso   1.000  H
  C24      1.0000 0.29273  0.34009  0.64571  Biso   1.000  C
  H23      1.0000 0.25856  0.25969  0.69349  Biso   1.000  H
  C25      1.0000 0.33613  0.30288  0.76910  Biso   1.000  C
  C26      1.0000 0.72047  0.37312  0.33010  Biso   1.000  C
  O7       1.0000 0.80728  0.28781  0.38881  Biso   1.000  O
  C27      1.0000 0.65549  0.44949  0.39518  Biso   1.000  C
  O8       1.0000 0.68157  0.44311  0.51801  Biso   1.000  O
  C28      1.0000 0.03836  0.55042  0.76017  Biso   1.000  C
  H24      1.0000 0.17643  0.49861  0.91931  Biso   1.000  H
  H25      1.0000 0.23300  0.46092  0.87709  Biso   1.000  H
  C29      1.0000 0.17433  0.39861  0.93570  Biso   1.000  C
  C30      1.0000 0.18311  0.55922  0.78700  Biso   1.000  C
  C31      1.0000 0.25552  0.32010  0.58279  Biso   1.000  C
  C32      1.0000 0.34115  0.39540  0.65198  Biso   1.000  C
  H26      1.0000 0.31340  0.28469  0.80660  Biso   1.000  H
  H27      1.0000 0.35313  0.34700  0.78088  Biso   1.000  H
  C33      1.0000 0.40315  0.26689  0.75957  Biso   1.000  C
  C34      1.0000 0.74027  0.34992  0.26282  Biso   1.000  C
  C35      1.0000 0.66878  0.42560  0.33331  Biso   1.000  C
  C36      1.0000 0.88655  0.30011  0.38159  Biso   1.000  C
  C37      1.0000 0.59889  0.50620  0.40109  Biso   1.000  C
  C38      1.0000 0.72133  0.50051  0.54138  Biso   1.000  C
  C39      1.0000 0.03626  0.60810  0.72398  Biso   1.000  C
  H28      1.0000 0.22323  0.39511  0.96799  Biso   1.000  H
  H29      1.0000 0.17163  0.36072  0.90687  Biso   1.000  H
  C40      1.0000 0.10362  0.39759  0.97240  Biso   1.000  C
  C41      1.0000 0.18102  0.61691  0.75090  Biso   1.000  C
  H30      1.0000 0.23221  0.54288  0.80810  Biso   1.000  H
  C42      1.0000 0.26686  0.35542  0.52609  Biso   1.000  C
  C43      1.0000 0.35243  0.43071  0.59527  Biso   1.000  C
  H31      1.0000 0.36597  0.40882  0.69409  Biso   1.000  H
  H32      1.0000 0.38555  0.22978  0.73140  Biso   1.000  H
  H33      1.0000 0.43765  0.29340  0.73581  Biso   1.000  H
  C44      1.0000 0.45405  0.24169  0.82590  Biso   1.000  C
  C45      1.0000 0.67066  0.35318  0.20431  Biso   1.000  C
  C46      1.0000 0.81885  0.38309  0.24908  Biso   1.000  C
  H34      1.0000 0.75340  0.30361  0.26868  Biso   1.000  H
  H35      1.0000 0.64315  0.44462  0.29400  Biso   1.000  H
  O9       1.0000 0.89877  0.29958  0.31441  Biso   1.000  O
  H36      1.0000 0.92108  0.26752  0.40611  Biso   1.000  H
  H37      1.0000 0.90228  0.34219  0.40099  Biso   1.000  H
  C47      1.0000 0.64744  0.56929  0.40470  Biso   1.000  C
  H38      1.0000 0.57897  0.50139  0.44421  Biso   1.000  H
  C48      1.0000 0.52409  0.50591  0.34599  Biso   1.000  C
  H39      1.0000 0.73635  0.49759  0.58961  Biso   1.000  H
  H40      1.0000 0.77088  0.50440  0.52177  Biso   1.000  H
  O10      1.0000 0.67513  0.55581  0.52619  Biso   1.000  O
  O11      1.0000 0.96474  0.62571  0.68587  Biso   1.000  O
  C49      1.0000 0.10763  0.64128  0.71941  Biso   1.000  C
  C50      1.0000 0.03030  0.37001  0.94468  Biso   1.000  C
  C51      1.0000 0.11108  0.42750  0.03487  Biso   1.000  C
  C52      1.0000 0.25962  0.65008  0.73721  Biso   1.000  C
  O12      1.0000 0.21728  0.34442  0.46617  Biso   1.000  O
  C53      1.0000 0.31528  0.41072  0.53230  Biso   1.000  C
  C54      1.0000 0.40104  0.49380  0.59888  Biso   1.000  C
  C55      1.0000 0.52331  0.27628  0.85097  Biso   1.000  C
  C56      1.0000 0.43273  0.18658  0.85919  Biso   1.000  C
  C57      1.0000 0.60146  0.30809  0.21799  Biso   1.000  C
  H41      1.0000 0.68981  0.34009  0.16320  Biso   1.000  H
  H42      1.0000 0.65108  0.39759  0.19879  Biso   1.000  H
  C58      1.0000 0.81677  0.44078  0.21298  Biso   1.000  C
  C59      1.0000 0.89225  0.35872  0.28062  Biso   1.000  C
  C60      1.0000 0.65878  0.60460  0.34800  Biso   1.000  C
  C61      1.0000 0.68465  0.58928  0.46768  Biso   1.000  C
  H43      1.0000 0.54069  0.51929  0.30398  Biso   1.000  H
  H44      1.0000 0.50357  0.46179  0.34028  Biso   1.000  H
  C62      1.0000 0.45734  0.54939  0.36068  Biso   1.000  C
  C63      1.0000 0.90515  0.65421  0.72428  Biso   1.000  C
  O13      1.0000 0.10116  0.70042  0.68557  Biso   1.000  O
  C64      1.0000 0.96449  0.37239  0.97937  Biso   1.000  C
  H45      1.0000 0.02541  0.35002  0.90291  Biso   1.000  H
  H46      1.0000 0.16020  0.44598  0.05337  Biso   1.000  H
  C65      1.0000 0.04531  0.42979  0.06947  Biso   1.000  C
  C66      1.0000 0.27946  0.62688  0.66988  Biso   1.000  C
  H47      1.0000 0.24654  0.69639  0.73130  Biso   1.000  H
  C67      1.0000 0.32921  0.64682  0.79567  Biso   1.000  C
  C68      1.0000 0.23316  0.28542  0.42917  Biso   1.000  C
  O14      1.0000 0.32474  0.44419  0.47379  Biso   1.000  O
  C69      1.0000 0.34445  0.55051  0.60480  Biso   1.000  C
  H48      1.0000 0.42098  0.49861  0.55582  Biso   1.000  H
  C70      1.0000 0.47584  0.49409  0.65398  Biso   1.000  C
  H49      1.0000 0.53755  0.31320  0.82861  Biso   1.000  H
  C71      1.0000 0.57142  0.25580  0.90938  Biso   1.000  C
  C72      1.0000 0.48081  0.16620  0.91770  Biso   1.000  C
  H50      1.0000 0.38643  0.16348  0.84240  Biso   1.000  H
  C73      1.0000 0.52720  0.31388  0.16660  Biso   1.000  C
  H51      1.0000 0.62037  0.26349  0.21910  Biso   1.000  H
  H52      1.0000 0.58746  0.31821  0.26181  Biso   1.000  H
  H53      1.0000 0.76766  0.45712  0.19187  Biso   1.000  H
  C74      1.0000 0.88818  0.47400  0.20832  Biso   1.000  C
  C75      1.0000 0.96368  0.39190  0.27600  Biso   1.000  C
  H54      1.0000 0.63397  0.59118  0.30588  Biso   1.000  H
  C76      1.0000 0.70716  0.65991  0.35432  Biso   1.000  C
  C77      1.0000 0.73307  0.64458  0.47389  Biso   1.000  C
  H55      1.0000 0.47850  0.59322  0.36730  Biso   1.000  H
  H56      1.0000 0.44067  0.53548  0.40260  Biso   1.000  H
  C78      1.0000 0.38226  0.55129  0.30669  Biso   1.000  C
  C79      1.0000 0.82412  0.66492  0.67750  Biso   1.000  C
  H57      1.0000 0.89670  0.62532  0.76068  Biso   1.000  H
  H58      1.0000 0.92503  0.69551  0.74348  Biso   1.000  H
  C80      1.0000 0.11332  0.69989  0.61839  Biso   1.000  C
  H59      1.0000 0.91554  0.35391  0.96077  Biso   1.000  H
  C81      1.0000 0.97200  0.40221  0.04179  Biso   1.000  C
  H60      1.0000 0.05021  0.44978  0.11128  Biso   1.000  H
  C82      1.0000 0.24115  0.65548  0.61112  Biso   1.000  C
  C83      1.0000 0.33116  0.57440  0.66667  Biso   1.000  C
  H61      1.0000 0.31013  0.65991  0.83678  Biso   1.000  H
  H62      1.0000 0.34886  0.60241  0.80119  Biso   1.000  H
  C84      1.0000 0.39842  0.69191  0.78198  Biso   1.000  C
  C85      1.0000 0.16017  0.28318  0.36750  Biso   1.000  C
  H63      1.0000 0.23266  0.24709  0.45720  Biso   1.000  H
  H64      1.0000 0.28498  0.28819  0.41328  Biso   1.000  H
  C86      1.0000 0.27855  0.49949  0.45860  Biso   1.000  C
  C87      1.0000 0.30614  0.57902  0.54609  Biso   1.000  C
  H65      1.0000 0.45925  0.48071  0.69600  Biso   1.000  H
  H66      1.0000 0.49636  0.53821  0.65970  Biso   1.000  H
  C88      1.0000 0.54254  0.45061  0.63929  Biso   1.000  C
  H67      1.0000 0.61785  0.27900  0.92618  Biso   1.000  H
  C89      1.0000 0.55012  0.20079  0.94277  Biso   1.000  C
  H68      1.0000 0.46661  0.12929  0.94001  Biso   1.000  H
  C90      1.0000 0.47320  0.36359  0.17498  Biso   1.000  C
  C91      1.0000 0.50911  0.26981  0.11421  Biso   1.000  C
  C92      1.0000 0.88728  0.53821  0.17011  Biso   1.000  C
  C93      1.0000 0.96157  0.44958  0.23980  Biso   1.000  C
  O15      1.0000 0.03520  0.37429  0.31411  Biso   1.000  O
  C94      1.0000 0.73057  0.69502  0.29290  Biso   1.000  C
  C95      1.0000 0.74435  0.67990  0.41719  Biso   1.000  C
  O16      1.0000 0.78266  0.65558  0.53381  Biso   1.000  O
  C96      1.0000 0.34070  0.49419  0.28799  Biso   1.000  C
  C97      1.0000 0.35540  0.61000  0.27721  Biso   1.000  C
  C98      1.0000 0.83976  0.71682  0.63248  Biso   1.000  C
  H69      1.0000 0.78186  0.67732  0.70307  Biso   1.000  H
  H70      1.0000 0.80777  0.62561  0.65258  Biso   1.000  H
  O17      1.0000 0.19266  0.71219  0.61122  Biso   1.000  O
  H71      1.0000 0.07886  0.73248  0.59387  Biso   1.000  H
  H72      1.0000 0.09765  0.65781  0.59898  Biso   1.000  H
  H73      1.0000 0.92799  0.40381  0.06496  Biso   1.000  H
  C99      1.0000 0.25444  0.63150  0.54930  Biso   1.000  C
  H74      1.0000 0.35673  0.55538  0.70598  Biso   1.000  H
  H75      1.0000 0.37956  0.73651  0.78088  Biso   1.000  H
  H76      1.0000 0.41243  0.68179  0.73821  Biso   1.000  H
  C100     1.0000 0.47273  0.68612  0.83337  Biso   1.000  C
  C101     1.0000 0.17575  0.33508  0.32248  Biso   1.000  C
  H77      1.0000 0.15876  0.24150  0.34489  Biso   1.000  H
  H78      1.0000 0.10867  0.28999  0.38320  Biso   1.000  H
  O18      1.0000 0.31838  0.55689  0.48202  Biso   1.000  O
  H79      1.0000 0.26360  0.50241  0.41042  Biso   1.000  H
  H80      1.0000 0.22906  0.49560  0.47820  Biso   1.000  H
  H81      1.0000 0.52144  0.40678  0.63268  Biso   1.000  H
  H82      1.0000 0.55927  0.46452  0.59738  Biso   1.000  H
  C102     1.0000 0.61762  0.44871  0.69329  Biso   1.000  C
  H83      1.0000 0.58229  0.18712  0.98188  Biso   1.000  H
  C103     1.0000 0.40108  0.36908  0.13121  Biso   1.000  C
  H84      1.0000 0.48525  0.39311  0.20997  Biso   1.000  H
  C104     1.0000 0.43698  0.27540  0.07039  Biso   1.000  C
  H85      1.0000 0.54518  0.23659  0.10860  Biso   1.000  H
  C105     1.0000 0.88306  0.59298  0.21880  Biso   1.000  C
  H86      1.0000 0.93918  0.54190  0.15332  Biso   1.000  H
  C106     1.0000 0.81926  0.53991  0.10779  Biso   1.000  C
  O19      1.0000 0.03405  0.48198  0.23439  Biso   1.000  O
  C107     1.0000 0.09478  0.34579  0.27570  Biso   1.000  C
  C108     1.0000 0.80757  0.66871  0.27630  Biso   1.000  C
  H87      1.0000 0.74137  0.74031  0.30649  Biso   1.000  H
  C109     1.0000 0.66375  0.69712  0.23088  Biso   1.000  C
  O20      1.0000 0.78746  0.73812  0.42681  Biso   1.000  O
  C110     1.0000 0.76678  0.71458  0.57081  Biso   1.000  C
  H88      1.0000 0.35857  0.45489  0.30769  Biso   1.000  H
  C111     1.0000 0.27208  0.49560  0.23970  Biso   1.000  C
  C112     1.0000 0.28689  0.61151  0.22887  Biso   1.000  C
  H89      1.0000 0.38329  0.64818  0.28969  Biso   1.000  H
  H90      1.0000 0.84117  0.75850  0.65509  Biso   1.000  H
  H91      1.0000 0.89126  0.71001  0.61678  Biso   1.000  H
  O21      1.0000 0.20974  0.65519  0.48959  Biso   1.000  O
  C113     1.0000 0.52674  0.63641  0.82500  Biso   1.000  C
  C114     1.0000 0.49083  0.73019  0.88577  Biso   1.000  C
  H92      1.0000 0.21807  0.32268  0.29691  Biso   1.000  H
  H93      1.0000 0.19217  0.37439  0.34740  Biso   1.000  H
  C115     1.0000 0.65924  0.50581  0.71199  Biso   1.000  C
  C116     1.0000 0.64454  0.39000  0.72277  Biso   1.000  C
  H94      1.0000 0.36500  0.40231  0.13682  Biso   1.000  H
  C117     1.0000 0.38300  0.32502  0.07892  Biso   1.000  C
  H95      1.0000 0.42493  0.24588  0.03540  Biso   1.000  H
  C118     1.0000 0.80948  0.61900  0.22978  Biso   1.000  C
  C119     1.0000 0.95486  0.61671  0.25409  Biso   1.000  C
  H96      1.0000 0.82352  0.50139  0.08072  Biso   1.000  H
  H97      1.0000 0.76688  0.53908  0.12289  Biso   1.000  H
  C120     1.0000 0.82560  0.60139  0.06428  Biso   1.000  C
  C121     1.0000 0.05097  0.53631  0.27520  Biso   1.000  C
  H98      1.0000 0.10317  0.37468  0.23930  Biso   1.000  H
  H99      1.0000 0.07491  0.30449  0.25650  Biso   1.000  H
  C122     1.0000 0.87939  0.69240  0.31170  Biso   1.000  C
  H100     1.0000 0.68647  0.71531  0.19338  Biso   1.000  H
  H101     1.0000 0.64681  0.65300  0.21910  Biso   1.000  H
  C123     1.0000 0.59679  0.73311  0.24041  Biso   1.000  C
  C124     1.0000 0.86984  0.73661  0.41759  Biso   1.000  C
  H102     1.0000 0.76727  0.75291  0.54278  Biso   1.000  H
  H103     1.0000 0.71496  0.71181  0.58670  Biso   1.000  H
  H104     1.0000 0.24430  0.45742  0.22712  Biso   1.000  H
  C125     1.0000 0.24526  0.55431  0.21007  Biso   1.000  C
  H105     1.0000 0.26889  0.65071  0.20912  Biso   1.000  H
  C126     1.0000 0.25574  0.68340  0.44341  Biso   1.000  C
  C127     1.0000 0.22978  0.71968  0.47419  Biso   1.000  C
  H106     1.0000 0.51462  0.60689  0.79001  Biso   1.000  H
  C128     1.0000 0.59880  0.63092  0.86877  Biso   1.000  C
  C129     1.0000 0.56289  0.72460  0.92959  Biso   1.000  C
  H107     1.0000 0.45475  0.76341  0.89138  Biso   1.000  H
  H108     1.0000 0.64136  0.54511  0.69229  Biso   1.000  H
  C130     1.0000 0.72785  0.50440  0.76027  Biso   1.000  C
  C131     1.0000 0.71304  0.38849  0.77110  Biso   1.000  C
  H109     1.0000 0.61665  0.35182  0.71029  Biso   1.000  H
  H110     1.0000 0.33480  0.32871  0.04949  Biso   1.000  H
  H111     1.0000 0.76149  0.60309  0.20621  Biso   1.000  H
  C132     1.0000 0.95301  0.66642  0.30062  Biso   1.000  C
  O22      1.0000 0.02987  0.59512  0.24412  Biso   1.000  O
  H112     1.0000 0.77671  0.60489  0.03199  Biso   1.000  H
  H113     1.0000 0.82830  0.63928  0.09310  Biso   1.000  H
  C133     1.0000 0.89632  0.60241  0.02758  Biso   1.000  C
  H114     1.0000 0.02255  0.53198  0.31361  Biso   1.000  H
  H115     1.0000 0.10850  0.53689  0.29190  Biso   1.000  H
  O23      1.0000 0.88120  0.74819  0.35161  Biso   1.000  O
  H116     1.0000 0.61439  0.77022  0.26858  Biso   1.000  H
  H117     1.0000 0.56229  0.70660  0.26422  Biso   1.000  H
  C134     1.0000 0.54588  0.75831  0.17407  Biso   1.000  C
  H118     1.0000 0.89926  0.76910  0.44632  Biso   1.000  H
  H119     1.0000 0.89234  0.69439  0.43138  Biso   1.000  H
  H120     1.0000 0.19936  0.55528  0.17779  Biso   1.000  H
  C135     1.0000 0.19736  0.70480  0.38380  Biso   1.000  C
  H121     1.0000 0.29348  0.65188  0.43007  Biso   1.000  H
  H122     1.0000 0.28616  0.72041  0.46372  Biso   1.000  H
  H123     1.0000 0.28155  0.72061  0.45800  Biso   1.000  H
  C136     1.0000 0.16445  0.74459  0.42120  Biso   1.000  C
  H124     1.0000 0.23354  0.74668  0.51400  Biso   1.000  H
  H125     1.0000 0.63494  0.59769  0.86321  Biso   1.000  H
  C137     1.0000 0.61694  0.67498  0.92111  Biso   1.000  C
  H126     1.0000 0.57501  0.75412  0.96458  Biso   1.000  H
  H127     1.0000 0.75565  0.54258  0.77291  Biso   1.000  H
  C138     1.0000 0.75462  0.44569  0.78991  Biso   1.000  C
  H128     1.0000 0.73105  0.34929  0.79091  Biso   1.000  H
  O24      1.0000 0.02187  0.68262  0.34459  Biso   1.000  O
  C139     1.0000 0.96957  0.62999  0.05530  Biso   1.000  C
  C140     1.0000 0.88880  0.57250  0.96510  Biso   1.000  C
  C141     1.0000 0.47657  0.72372  0.14901  Biso   1.000  C
  C142     1.0000 0.56720  0.81342  0.14078  Biso   1.000  C
  C143     1.0000 0.12895  0.74931  0.39192  Biso   1.000  C
  H129     1.0000 0.22870  0.72552  0.35301  Biso   1.000  H
  H130     1.0000 0.17404  0.66569  0.36179  Biso   1.000  H
  H131     1.0000 0.18317  0.66438  0.36800  Biso   1.000  H
  H132     1.0000 0.20367  0.72868  0.33281  Biso   1.000  H
  C144     1.0000 0.16455  0.70840  0.35717  Biso   1.000  C
  H133     1.0000 0.14825  0.79391  0.39347  Biso   1.000  H
  H134     1.0000 0.11025  0.74002  0.43418  Biso   1.000  H
  H135     1.0000 0.11224  0.73948  0.43629  Biso   1.000  H
  H136     1.0000 0.17289  0.79051  0.41388  Biso   1.000  H
  H137     1.0000 0.66514  0.67129  0.95049  Biso   1.000  H
  H138     1.0000 0.80052  0.44472  0.82219  Biso   1.000  H
  C145     1.0000 0.05929  0.74269  0.33612  Biso   1.000  C
  C146     1.0000 0.08528  0.70422  0.31120  Biso   1.000  C
  H139     1.0000 0.97447  0.64998  0.09711  Biso   1.000  H
  C147     1.0000 0.03538  0.62761  0.02061  Biso   1.000  C
  H140     1.0000 0.83974  0.55402  0.94660  Biso   1.000  H
  C148     1.0000 0.95463  0.57021  0.93051  Biso   1.000  C
  H141     1.0000 0.46239  0.68680  0.17142  Biso   1.000  H
  C149     1.0000 0.42851  0.74420  0.09060  Biso   1.000  C
  C150     1.0000 0.51907  0.83380  0.08227  Biso   1.000  C
  H142     1.0000 0.61351  0.83652  0.15758  Biso   1.000  H
  H143     1.0000 0.02115  0.77800  0.33787  Biso   1.000  H
  H144     1.0000 0.07850  0.74410  0.29300  Biso   1.000  H
  H145     1.0000 0.07168  0.74678  0.29200  Biso   1.000  H
  H146     1.0000 0.09090  0.67460  0.27470  Biso   1.000  H
  C151     1.0000 0.02794  0.59779  0.95824  Biso   1.000  C
  H147     1.0000 0.08440  0.64609  0.03921  Biso   1.000  H
  H148     1.0000 0.94973  0.55022  0.88870  Biso   1.000  H
  H149     1.0000 0.38209  0.72100  0.07380  Biso   1.000  H
  C152     1.0000 0.44982  0.79921  0.05721  Biso   1.000  C
  H150     1.0000 0.53327  0.87071  0.06001  Biso   1.000  H
  H151     1.0000 0.07194  0.59619  0.93502  Biso   1.000  H
  H152     1.0000 0.41759  0.81288  0.01810  Biso   1.000  H
  O25      1.0000 0.89870  0.20040  0.81437  Biso   1.000  O
  C153     1.0000 0.89225  0.14130  0.78058  Biso   1.000  C
  C154     1.0000 0.88656  0.19991  0.88161  Biso   1.000  C
  C155     1.0000 0.81886  0.11688  0.74909  Biso   1.000  C
  C156     1.0000 0.96361  0.10808  0.77597  Biso   1.000  C
  O26      1.0000 0.80722  0.21222  0.88878  Biso   1.000  O
  H153     1.0000 0.92101  0.23250  0.90607  Biso   1.000  H
  H154     1.0000 0.90222  0.15779  0.90101  Biso   1.000  H
  C157     1.0000 0.74026  0.15010  0.76278  Biso   1.000  C
  C158     1.0000 0.81671  0.05920  0.71300  Biso   1.000  C
  C159     1.0000 0.96151  0.05039  0.73977  Biso   1.000  C
  O27      1.0000 0.03513  0.12569  0.81407  Biso   1.000  O
  C160     1.0000 0.75873  0.15550  0.88888  Biso   1.000  C
  C161     1.0000 0.67065  0.14680  0.70427  Biso   1.000  C
  H155     1.0000 0.75334  0.19641  0.76870  Biso   1.000  H
  C162     1.0000 0.72042  0.12690  0.83011  Biso   1.000  C
  H156     1.0000 0.76766  0.04290  0.69189  Biso   1.000  H
  C163     1.0000 0.88812  0.02602  0.70828  Biso   1.000  C
  O28      1.0000 0.03405  0.01800  0.73440  Biso   1.000  O
  C164     1.0000 0.09473  0.15419  0.77572  Biso   1.000  C
  C165     1.0000 0.74543  0.13152  0.95069  Biso   1.000  C
  C166     1.0000 0.60146  0.19189  0.71801  Biso   1.000  C
  H157     1.0000 0.68975  0.15988  0.66321  Biso   1.000  H
  H158     1.0000 0.65102  0.10239  0.69881  Biso   1.000  H
  C167     1.0000 0.66871  0.07442  0.83327  Biso   1.000  C
  C168     1.0000 0.88721  0.96182  0.67008  Biso   1.000  C
  C169     1.0000 0.05092  0.96371  0.77522  Biso   1.000  C
  H159     1.0000 0.10311  0.12530  0.73932  Biso   1.000  H
  H160     1.0000 0.07485  0.19549  0.75651  Biso   1.000  H
  C170     1.0000 0.17575  0.16489  0.82249  Biso   1.000  C
  C171     1.0000 0.69373  0.07899  0.95390  Biso   1.000  C
  O29      1.0000 0.79019  0.15521  0.01036  Biso   1.000  O
  C172     1.0000 0.52713  0.18610  0.66657  Biso   1.000  C
  H161     1.0000 0.62032  0.23649  0.71911  Biso   1.000  H
  H162     1.0000 0.58745  0.18182  0.76178  Biso   1.000  H
  H163     1.0000 0.64315  0.05540  0.79402  Biso   1.000  H
  C173     1.0000 0.65543  0.05049  0.89519  Biso   1.000  C
  C174     1.0000 0.88306  0.90700  0.71881  Biso   1.000  C
  H164     1.0000 0.93911  0.95812  0.65328  Biso   1.000  H
  C175     1.0000 0.81927  0.96011  0.60781  Biso   1.000  C
  O30      1.0000 0.02986  0.90491  0.74408  Biso   1.000  O
  H165     1.0000 0.02254  0.96799  0.81357  Biso   1.000  H
  H166     1.0000 0.10845  0.96308  0.79191  Biso   1.000  H
  H167     1.0000 0.21801  0.17729  0.79687  Biso   1.000  H
  H168     1.0000 0.19211  0.12559  0.84741  Biso   1.000  H
  C176     1.0000 0.16011  0.21679  0.86747  Biso   1.000  C
  O31      1.0000 0.68162  0.05691  0.01798  Biso   1.000  O
  C177     1.0000 0.74420  0.18342  0.05658  Biso   1.000  C
  C178     1.0000 0.77022  0.21971  0.02580  Biso   1.000  C
  C179     1.0000 0.50904  0.23022  0.61418  Biso   1.000  C
  C180     1.0000 0.47314  0.13639  0.67499  Biso   1.000  C
  C181     1.0000 0.59883  0.99382  0.90111  Biso   1.000  C
  C182     1.0000 0.80943  0.88098  0.72979  Biso   1.000  C
  C183     1.0000 0.95486  0.88331  0.75411  Biso   1.000  C
  H169     1.0000 0.82345  0.99859  0.58068  Biso   1.000  H
  H170     1.0000 0.76682  0.96089  0.62290  Biso   1.000  H
  C184     1.0000 0.82554  0.89858  0.56429  Biso   1.000  C
  H171     1.0000 0.15871  0.25852  0.84491  Biso   1.000  H
  H172     1.0000 0.10861  0.20998  0.88321  Biso   1.000  H
  C185     1.0000 0.23310  0.21460  0.92919  Biso   1.000  C
  C186     1.0000 0.72139  0.99951  0.04139  Biso   1.000  C
  C187     1.0000 0.80258  0.20478  0.11620  Biso   1.000  C
  H173     1.0000 0.70650  0.15190  0.06987  Biso   1.000  H
  H174     1.0000 0.71378  0.22039  0.03628  Biso   1.000  H
  H175     1.0000 0.71839  0.22058  0.04199  Biso   1.000  H
  H176     1.0000 0.76634  0.24670  0.98599  Biso   1.000  H
  C188     1.0000 0.83549  0.24461  0.07879  Biso   1.000  C
  C189     1.0000 0.43698  0.22462  0.57041  Biso   1.000  C
  H177     1.0000 0.54513  0.26339  0.60861  Biso   1.000  H
  C190     1.0000 0.40101  0.13089  0.63117  Biso   1.000  C
  H178     1.0000 0.48525  0.10691  0.70999  Biso   1.000  H
  C191     1.0000 0.64744  0.93069  0.90467  Biso   1.000  C
  H179     1.0000 0.57890  0.99859  0.94418  Biso   1.000  H
  C192     1.0000 0.52403  0.99411  0.84601  Biso   1.000  C
  H180     1.0000 0.76143  0.89688  0.70618  Biso   1.000  H
  C193     1.0000 0.80750  0.83131  0.77627  Biso   1.000  C
  C194     1.0000 0.95294  0.83360  0.80058  Biso   1.000  C
  H181     1.0000 0.77665  0.89508  0.53200  Biso   1.000  H
  H182     1.0000 0.82824  0.86069  0.59312  Biso   1.000  H
  C195     1.0000 0.89626  0.89761  0.52759  Biso   1.000  C
  H183     1.0000 0.23260  0.25288  0.95721  Biso   1.000  H
  H184     1.0000 0.28492  0.21178  0.91329  Biso   1.000  H
  O32      1.0000 0.21722  0.15560  0.96619  Biso   1.000  O
  H185     1.0000 0.77088  0.99562  0.02179  Biso   1.000  H
  O33      1.0000 0.67520  0.94421  0.02620  Biso   1.000  O
  H186     1.0000 0.73640  0.00238  0.08957  Biso   1.000  H
  C196     1.0000 0.87099  0.24928  0.10807  Biso   1.000  C
  H187     1.0000 0.77130  0.22550  0.14698  Biso   1.000  H
  H188     1.0000 0.82588  0.16572  0.13816  Biso   1.000  H
  H189     1.0000 0.81677  0.16440  0.13199  Biso   1.000  H
  H190     1.0000 0.79626  0.22871  0.16718  Biso   1.000  H
  H191     1.0000 0.85168  0.29389  0.10647  Biso   1.000  H
  H192     1.0000 0.88968  0.23999  0.06576  Biso   1.000  H
  C197     1.0000 0.83538  0.20838  0.14277  Biso   1.000  C
  H193     1.0000 0.88770  0.23951  0.06370  Biso   1.000  H
  H194     1.0000 0.82710  0.29048  0.08606  Biso   1.000  H
  C198     1.0000 0.38294  0.17501  0.57888  Biso   1.000  C
  H195     1.0000 0.42487  0.25410  0.53541  Biso   1.000  H
  H196     1.0000 0.36493  0.09772  0.63679  Biso   1.000  H
  C199     1.0000 0.65872  0.89542  0.84801  Biso   1.000  C
  C200     1.0000 0.68460  0.91070  0.96769  Biso   1.000  C
  H197     1.0000 0.50352  0.03818  0.84029  Biso   1.000  H
  H198     1.0000 0.54063  0.98069  0.80399  Biso   1.000  H
  C201     1.0000 0.45734  0.95058  0.86070  Biso   1.000  C
  C202     1.0000 0.87933  0.80758  0.81171  Biso   1.000  C
  C203     1.0000 0.73052  0.80500  0.79291  Biso   1.000  C
  O34      1.0000 0.02181  0.81740  0.84460  Biso   1.000  O
  C204     1.0000 0.88886  0.92748  0.46512  Biso   1.000  C
  C205     1.0000 0.96957  0.86998  0.55532  Biso   1.000  C
  C206     1.0000 0.26692  0.14461  0.02610  Biso   1.000  C
  C207     1.0000 0.94071  0.24272  0.16388  Biso   1.000  C
  C208     1.0000 0.91466  0.20419  0.18879  Biso   1.000  C
  H199     1.0000 0.33474  0.17131  0.54950  Biso   1.000  H
  H200     1.0000 0.63391  0.90880  0.80590  Biso   1.000  H
  C209     1.0000 0.70715  0.84012  0.85428  Biso   1.000  C
  C210     1.0000 0.73302  0.85539  0.97391  Biso   1.000  C
  H201     1.0000 0.47843  0.90680  0.86727  Biso   1.000  H
  H202     1.0000 0.44061  0.96449  0.90261  Biso   1.000  H
  C211     1.0000 0.38226  0.94868  0.80670  Biso   1.000  C
  O35      1.0000 0.88113  0.75179  0.85157  Biso   1.000  O
  H203     1.0000 0.74132  0.75972  0.80650  Biso   1.000  H
  C212     1.0000 0.66375  0.80291  0.73089  Biso   1.000  C
  C213     1.0000 0.05922  0.75728  0.83608  Biso   1.000  C
  C214     1.0000 0.08522  0.79581  0.81121  Biso   1.000  C
  H204     1.0000 0.83974  0.94601  0.44662  Biso   1.000  H
  C215     1.0000 0.95468  0.92981  0.43047  Biso   1.000  C
  H205     1.0000 0.97447  0.84999  0.59708  Biso   1.000  H
  C216     1.0000 0.03537  0.87242  0.52057  Biso   1.000  C
  C217     1.0000 0.31527  0.08930  0.03227  Biso   1.000  C
  C218     1.0000 0.25558  0.17992  0.08275  Biso   1.000  C
  O36      1.0000 0.97806  0.18260  0.15535  Biso   1.000  O
  H206     1.0000 0.97878  0.27798  0.16207  Biso   1.000  H
  H207     1.0000 0.92150  0.24408  0.20699  Biso   1.000  H
  H208     1.0000 0.92826  0.24680  0.20800  Biso   1.000  H
  H209     1.0000 0.90910  0.17462  0.22529  Biso   1.000  H
  C219     1.0000 0.74435  0.82008  0.91720  Biso   1.000  C
  O37      1.0000 0.78271  0.84440  0.03377  Biso   1.000  O
  C220     1.0000 0.34064  0.00579  0.78800  Biso   1.000  C
  C221     1.0000 0.35533  0.89002  0.77717  Biso   1.000  C
  C222     1.0000 0.86984  0.76341  0.91760  Biso   1.000  C
  H210     1.0000 0.68641  0.78472  0.69339  Biso   1.000  H
  H211     1.0000 0.64675  0.84698  0.71911  Biso   1.000  H
  C223     1.0000 0.59672  0.76691  0.74037  Biso   1.000  C
  H212     1.0000 0.02115  0.72202  0.83789  Biso   1.000  H
  H213     1.0000 0.07844  0.75592  0.79301  Biso   1.000  H
  C224     1.0000 0.12894  0.75072  0.89188  Biso   1.000  C
  H214     1.0000 0.07162  0.75320  0.79201  Biso   1.000  H
  H215     1.0000 0.09084  0.82538  0.77471  Biso   1.000  H
  C225     1.0000 0.16455  0.79162  0.85719  Biso   1.000  C
  H216     1.0000 0.94979  0.94980  0.38871  Biso   1.000  H
  C226     1.0000 0.02794  0.90218  0.45820  Biso   1.000  C
  H217     1.0000 0.08433  0.85388  0.53917  Biso   1.000  H
  O38      1.0000 0.32474  0.05579  0.97381  Biso   1.000  O
  C227     1.0000 0.35249  0.06931  0.09529  Biso   1.000  C
  O39      1.0000 0.21248  0.23810  0.07318  Biso   1.000  O
  C228     1.0000 0.29278  0.15988  0.14568  Biso   1.000  C
  C229     1.0000 0.04699  0.16640  0.19937  Biso   1.000  C
  O40      1.0000 0.78739  0.76190  0.92678  Biso   1.000  O
  C230     1.0000 0.76677  0.78540  0.07077  Biso   1.000  C
  H218     1.0000 0.35852  0.04509  0.80770  Biso   1.000  H
  C231     1.0000 0.27202  0.00438  0.73967  Biso   1.000  C
  C232     1.0000 0.28684  0.88852  0.72889  Biso   1.000  C
  H219     1.0000 0.38323  0.85179  0.78970  Biso   1.000  H
  H220     1.0000 0.89919  0.73092  0.94628  Biso   1.000  H
  H221     1.0000 0.89234  0.80558  0.93139  Biso   1.000  H
  H222     1.0000 0.61433  0.72980  0.76860  Biso   1.000  H
  H223     1.0000 0.56222  0.79342  0.76419  Biso   1.000  H
  C233     1.0000 0.54582  0.74172  0.67409  Biso   1.000  C
  H224     1.0000 0.14825  0.70611  0.89349  Biso   1.000  H
  H225     1.0000 0.11025  0.76001  0.93420  Biso   1.000  H
  C234     1.0000 0.19736  0.79522  0.88381  Biso   1.000  C
  H226     1.0000 0.11224  0.76049  0.93630  Biso   1.000  H
  H227     1.0000 0.17283  0.70952  0.91389  Biso   1.000  H
  H228     1.0000 0.22863  0.77450  0.85298  Biso   1.000  H
  H229     1.0000 0.17405  0.83428  0.86180  Biso   1.000  H
  H230     1.0000 0.18310  0.83560  0.86797  Biso   1.000  H
  H231     1.0000 0.20361  0.77129  0.83277  Biso   1.000  H
  C235     1.0000 0.16445  0.75539  0.92121  Biso   1.000  C
  H232     1.0000 0.07193  0.90379  0.43499  Biso   1.000  H
  C236     1.0000 0.27854  0.00049  0.95857  Biso   1.000  C
  C237     1.0000 0.34116  0.10458  0.15199  Biso   1.000  C
  C238     1.0000 0.40111  0.00618  0.09890  Biso   1.000  C
  C239     1.0000 0.13009  0.23659  0.08235  Biso   1.000  C
  C240     1.0000 0.26936  0.19500  0.20709  Biso   1.000  C
  C241     1.0000 0.04508  0.11669  0.24590  Biso   1.000  C
  C242     1.0000 0.12061  0.19242  0.18829  Biso   1.000  C
  C243     1.0000 0.83976  0.78321  0.13249  Biso   1.000  C
  H233     1.0000 0.76728  0.74712  0.04280  Biso   1.000  H
  H234     1.0000 0.71501  0.78822  0.08666  Biso   1.000  H
  H235     1.0000 0.24423  0.04261  0.72708  Biso   1.000  H
  C244     1.0000 0.24526  0.94572  0.71009  Biso   1.000  C
  H236     1.0000 0.26882  0.84931  0.70908  Biso   1.000  H
  C245     1.0000 0.47656  0.77630  0.64897  Biso   1.000  C
  C246     1.0000 0.56715  0.68661  0.64080  Biso   1.000  C
  C247     1.0000 0.25573  0.81658  0.94337  Biso   1.000  C
  C248     1.0000 0.22972  0.78029  0.97421  Biso   1.000  C
  O41      1.0000 0.31831  0.94309  0.98198  Biso   1.000  O
  H237     1.0000 0.26353  0.99762  0.91038  Biso   1.000  H
  H238     1.0000 0.22899  0.00438  0.97817  Biso   1.000  H
  H239     1.0000 0.36596  0.09120  0.19406  Biso   1.000  H
  C249     1.0000 0.34450  0.94951  0.10476  Biso   1.000  C
  H240     1.0000 0.42097  0.00141  0.05578  Biso   1.000  H
  C250     1.0000 0.47590  0.00589  0.15400  Biso   1.000  C
  O42      1.0000 0.11880  0.24821  0.14838  Biso   1.000  O
  H241     1.0000 0.10068  0.26908  0.05367  Biso   1.000  H
  H242     1.0000 0.10759  0.19442  0.06857  Biso   1.000  H
  C251     1.0000 0.19237  0.16869  0.22369  Biso   1.000  C
  H243     1.0000 0.25855  0.24028  0.19346  Biso   1.000  H
  C252     1.0000 0.33618  0.19709  0.26906  Biso   1.000  C
  O43      1.0000 0.97007  0.09509  0.25588  Biso   1.000  O
  C253     1.0000 0.11688  0.09300  0.28120  Biso   1.000  C
  C254     1.0000 0.82418  0.83511  0.17746  Biso   1.000  C
  H244     1.0000 0.84117  0.74148  0.15510  Biso   1.000  H
  H245     1.0000 0.89127  0.79002  0.11680  Biso   1.000  H
  H246     1.0000 0.19936  0.94470  0.67780  Biso   1.000  H
  H247     1.0000 0.46233  0.81322  0.67138  Biso   1.000  H
  C255     1.0000 0.42845  0.75578  0.59061  Biso   1.000  C
  C256     1.0000 0.51907  0.66618  0.58229  Biso   1.000  C
  H248     1.0000 0.61345  0.66351  0.65759  Biso   1.000  H
  H249     1.0000 0.29343  0.84810  0.93009  Biso   1.000  H
  H250     1.0000 0.28609  0.77961  0.96368  Biso   1.000  H
  O44      1.0000 0.20974  0.84479  0.98960  Biso   1.000  O
  H251     1.0000 0.28155  0.77942  0.95801  Biso   1.000  H
  H252     1.0000 0.23360  0.75330  0.01397  Biso   1.000  H
  C257     1.0000 0.30620  0.92101  0.04605  Biso   1.000  C
  C258     1.0000 0.33116  0.92558  0.16668  Biso   1.000  C
  H253     1.0000 0.49636  0.96182  0.15966  Biso   1.000  H
  H254     1.0000 0.45930  0.01931  0.19596  Biso   1.000  H
  C259     1.0000 0.54259  0.04942  0.13926  Biso   1.000  C
  C260     1.0000 0.19044  0.11902  0.27017  Biso   1.000  C
  H255     1.0000 0.31346  0.21528  0.30656  Biso   1.000  H
  H256     1.0000 0.35319  0.15302  0.28089  Biso   1.000  H
  C261     1.0000 0.40315  0.23309  0.25959  Biso   1.000  C
  C262     1.0000 0.94896  0.03629  0.22479  Biso   1.000  C
  C263     1.0000 0.11266  0.03818  0.32988  Biso   1.000  C
  C264     1.0000 0.90515  0.84581  0.22429  Biso   1.000  C
  H257     1.0000 0.78187  0.82271  0.20308  Biso   1.000  H
  H258     1.0000 0.80777  0.87441  0.15259  Biso   1.000  H
  H259     1.0000 0.38203  0.77898  0.57382  Biso   1.000  H
  C265     1.0000 0.44975  0.70081  0.55717  Biso   1.000  C
  H260     1.0000 0.53327  0.62931  0.55998  Biso   1.000  H
  C266     1.0000 0.25450  0.86848  0.04926  Biso   1.000  C
  C267     1.0000 0.27946  0.87310  0.16989  Biso   1.000  C
  H261     1.0000 0.35679  0.94460  0.20599  Biso   1.000  H
  H262     1.0000 0.52150  0.09320  0.13269  Biso   1.000  H
  H263     1.0000 0.55927  0.03551  0.09739  Biso   1.000  H
  C268     1.0000 0.61767  0.05132  0.19326  Biso   1.000  C
  H264     1.0000 0.23844  0.10312  0.29378  Biso   1.000  H
  H265     1.0000 0.38554  0.27020  0.23136  Biso   1.000  H
  H266     1.0000 0.43765  0.20658  0.23577  Biso   1.000  H
  C269     1.0000 0.45405  0.25828  0.32587  Biso   1.000  C
  O45      1.0000 0.96588  0.98200  0.26555  Biso   1.000  O
  H267     1.0000 0.97739  0.03201  0.18639  Biso   1.000  H
  H268     1.0000 0.89149  0.03692  0.20810  Biso   1.000  H
  C270     1.0000 0.11175  0.97398  0.29167  Biso   1.000  C
  H269     1.0000 0.06076  0.04188  0.34667  Biso   1.000  H
  C271     1.0000 0.18067  0.03989  0.39220  Biso   1.000  C
  O46      1.0000 0.96480  0.87431  0.18589  Biso   1.000  O
  H270     1.0000 0.89677  0.87470  0.26069  Biso   1.000  H
  H271     1.0000 0.92509  0.80451  0.24349  Biso   1.000  H
  H272     1.0000 0.41753  0.68710  0.51811  Biso   1.000  H
  C272     1.0000 0.24120  0.84450  0.11108  Biso   1.000  C
  C273     1.0000 0.25967  0.84990  0.23718  Biso   1.000  C
  C274     1.0000 0.65929  0.99421  0.21196  Biso   1.000  C
  C275     1.0000 0.64460  0.10998  0.22279  Biso   1.000  C
  C276     1.0000 0.52337  0.22370  0.35099  Biso   1.000  C
  C277     1.0000 0.43278  0.31339  0.35916  Biso   1.000  C
  C278     1.0000 0.03836  0.94961  0.26019  Biso   1.000  C
  C279     1.0000 0.18316  0.94080  0.28696  Biso   1.000  C
  H273     1.0000 0.17648  0.00141  0.41927  Biso   1.000  H
  H274     1.0000 0.23305  0.03911  0.37706  Biso   1.000  H
  C280     1.0000 0.17433  0.10142  0.43567  Biso   1.000  C
  C281     1.0000 0.03626  0.89192  0.22399  Biso   1.000  C
  O47      1.0000 0.19271  0.78778  0.11118  Biso   1.000  O
  C282     1.0000 0.18107  0.88312  0.25086  Biso   1.000  C
  H275     1.0000 0.24659  0.80359  0.23126  Biso   1.000  H
  C283     1.0000 0.32928  0.85320  0.29569  Biso   1.000  C
  H276     1.0000 0.64135  0.95491  0.19225  Biso   1.000  H
  C284     1.0000 0.72785  0.99562  0.26029  Biso   1.000  C
  C285     1.0000 0.71309  0.11148  0.27107  Biso   1.000  C
  H277     1.0000 0.61670  0.14821  0.21025  Biso   1.000  H
  H278     1.0000 0.53755  0.18678  0.32858  Biso   1.000  H
  C286     1.0000 0.57149  0.24422  0.40940  Biso   1.000  C
  C287     1.0000 0.48086  0.33382  0.41767  Biso   1.000  C
  H279     1.0000 0.38648  0.33649  0.34236  Biso   1.000  H
  H280     1.0000 0.23227  0.95710  0.30807  Biso   1.000  H
  H281     1.0000 0.22328  0.10492  0.46796  Biso   1.000  H
  H282     1.0000 0.17164  0.13931  0.40689  Biso   1.000  H
  C288     1.0000 0.10367  0.10239  0.47237  Biso   1.000  C
  C289     1.0000 0.10768  0.85870  0.21938  Biso   1.000  C
  C290     1.0000 0.11338  0.80009  0.11840  Biso   1.000  C
  H283     1.0000 0.31019  0.84012  0.33680  Biso   1.000  H
  H284     1.0000 0.34886  0.89761  0.30120  Biso   1.000  H
  C291     1.0000 0.39848  0.80811  0.28200  Biso   1.000  C
  H285     1.0000 0.75570  0.95739  0.27287  Biso   1.000  H
  C292     1.0000 0.75467  0.05428  0.28987  Biso   1.000  C
  H286     1.0000 0.73105  0.15069  0.29087  Biso   1.000  H
  H287     1.0000 0.61785  0.22102  0.42619  Biso   1.000  H
  C293     1.0000 0.55018  0.29919  0.44279  Biso   1.000  C
  H288     1.0000 0.46666  0.37069  0.43998  Biso   1.000  H
  C294     1.0000 0.11108  0.07252  0.53489  Biso   1.000  C
  C295     1.0000 0.03037  0.13002  0.44469  Biso   1.000  C
  O48      1.0000 0.10117  0.79960  0.18558  Biso   1.000  O
  H289     1.0000 0.07892  0.76750  0.09388  Biso   1.000  H
  H290     1.0000 0.09771  0.84221  0.09900  Biso   1.000  H
  H291     1.0000 0.37956  0.76351  0.28089  Biso   1.000  H
  H292     1.0000 0.41248  0.81818  0.23818  Biso   1.000  H
  C296     1.0000 0.47280  0.81390  0.33339  Biso   1.000  C
  H293     1.0000 0.80057  0.05530  0.32216  Biso   1.000  H
  H294     1.0000 0.58235  0.31290  0.48189  Biso   1.000  H
  H295     1.0000 0.16014  0.05399  0.55339  Biso   1.000  H
  C297     1.0000 0.04525  0.07019  0.56948  Biso   1.000  C
  C298     1.0000 0.96456  0.12758  0.47939  Biso   1.000  C
  H296     1.0000 0.02546  0.15001  0.40288  Biso   1.000  H
  C299     1.0000 0.52679  0.86361  0.32497  Biso   1.000  C
  C300     1.0000 0.49089  0.76978  0.38578  Biso   1.000  C
  C301     1.0000 0.97193  0.09782  0.54176  Biso   1.000  C
  H297     1.0000 0.05015  0.05020  0.61130  Biso   1.000  H
  H298     1.0000 0.91554  0.14612  0.46079  Biso   1.000  H
  H299     1.0000 0.51468  0.89309  0.28997  Biso   1.000  H
  C302     1.0000 0.59886  0.86911  0.36878  Biso   1.000  C
  C303     1.0000 0.56295  0.77538  0.42955  Biso   1.000  C
  H300     1.0000 0.45475  0.73661  0.39140  Biso   1.000  H
  H301     1.0000 0.92794  0.09621  0.56497  Biso   1.000  H
  H302     1.0000 0.63494  0.90228  0.36317  Biso   1.000  H
  C304     1.0000 0.61694  0.82499  0.42108  Biso   1.000  C
  H303     1.0000 0.57507  0.74590  0.46460  Biso   1.000  H
  H304     1.0000 0.66513  0.82869  0.45046  Biso   1.000  H
  Ne1      1.0000 0.99996  0.50000  0.49999  Biso   1.000  Ne
  He1      1.0000 0.83121  0.53100  0.65107  Biso   1.000  He
  He2      1.0000 0.27308  0.47661  0.72775  Biso   1.000  He
  He3      1.0000 0.95799  0.76746  0.55122  Biso   1.000  He
  He4      1.0000 0.97685  0.22903  0.50231  Biso   1.000  He
  He5      1.0000 0.20995  0.57137  0.34767  Biso   1.000  He
  He6      1.0000 0.72828  0.52191  0.27106  Biso   1.000  He
  Ar1      1.0000 0.99996  0.50000  0.49999  Biso   1.000  Ar
  Ne2      1.0000 0.99996  0.00000  0.99998  Biso   1.000  Ne
  He7      1.0000 0.25909  0.02140  0.21836  Biso   1.000  He
  He8      1.0000 0.80834  0.97035  0.17181  Biso   1.000  He
  He9      1.0000 0.01811  0.74986  0.99549  Biso   1.000  He
  He10     1.0000 0.04148  0.26027  0.95129  Biso   1.000  He
  He11     1.0000 0.18294  0.93205  0.87140  Biso   1.000  He
  He12     1.0000 0.72975  0.97813  0.77237  Biso   1.000  He
  Ar2      1.0000 0.99996  1.00000  0.99998  Biso   1.000  Ar
