data_image0
_cell_length_a       16.736
_cell_length_b       20.479
_cell_length_c       20.138
_cell_angle_alpha    90
_cell_angle_beta     99.53
_cell_angle_gamma    90

_symmetry_space_group_name_H-M    "P 1"
_symmetry_int_tables_number       1

loop_
  _symmetry_equiv_pos_as_xyz
  'x, y, z'

loop_
  _atom_site_label
  _atom_site_occupancy
  _atom_site_fract_x
  _atom_site_fract_y
  _atom_site_fract_z
  _atom_site_thermal_displace_type
  _atom_site_B_iso_or_equiv
  _atom_site_type_symbol
  C1       1.0000 0.05710  0.96982  0.77608  Biso   1.000  C
  O1       1.0000 0.03380  0.91479  0.74461  Biso   1.000  O
  O2       1.0000 0.03618  0.02349  0.73348  Biso   1.000  O
  H1       1.0000 0.03141  0.97402  0.81571  Biso   1.000  H
  H2       1.0000 0.11529  0.96909  0.79078  Biso   1.000  H
  C2       1.0000 0.96042  0.88959  0.75569  Biso   1.000  C
  C3       1.0000 0.96189  0.05381  0.73701  Biso   1.000  C
  C4       1.0000 0.88712  0.91269  0.72039  Biso   1.000  C
  C5       1.0000 0.96072  0.84071  0.80397  Biso   1.000  C
  C6       1.0000 0.96073  0.84071  0.80403  Biso   1.000  C
  C7       1.0000 0.88641  0.02979  0.70720  Biso   1.000  C
  C8       1.0000 0.96691  0.11109  0.77507  Biso   1.000  C
  C9       1.0000 0.96692  0.11109  0.77512  Biso   1.000  C
  C10      1.0000 0.88810  0.96660  0.67099  Biso   1.000  C
  C11      1.0000 0.81410  0.88681  0.73328  Biso   1.000  C
  C12      1.0000 0.88771  0.81479  0.81692  Biso   1.000  C
  O3       1.0000 0.03111  0.82421  0.84748  Biso   1.000  O
  C13      1.0000 0.81598  0.06309  0.71541  Biso   1.000  C
  C14      1.0000 0.89640  0.14429  0.78318  Biso   1.000  C
  O4       1.0000 0.03832  0.13160  0.81440  Biso   1.000  O
  C15      1.0000 0.81802  0.96260  0.60539  Biso   1.000  C
  H3       1.0000 0.94018  0.96430  0.65498  Biso   1.000  H
  C16      1.0000 0.81439  0.83788  0.78152  Biso   1.000  C
  H4       1.0000 0.76519  0.90209  0.70972  Biso   1.000  H
  O5       1.0000 0.89549  0.76220  0.86077  Biso   1.000  O
  O6       1.0000 0.89550  0.76220  0.86082  Biso   1.000  O
  C17      1.0000 0.09291  0.80009  0.81097  Biso   1.000  C
  C18      1.0000 0.09292  0.80009  0.81102  Biso   1.000  C
  C19      1.0000 0.05898  0.75902  0.83862  Biso   1.000  C
  C20      1.0000 0.82093  0.12032  0.75342  Biso   1.000  C
  H5       1.0000 0.76571  0.04712  0.69552  Biso   1.000  H
  O7       1.0000 0.90320  0.20348  0.81999  Biso   1.000  O
  C21      1.0000 0.09500  0.16309  0.77830  Biso   1.000  C
  C22      1.0000 0.82378  0.89892  0.56470  Biso   1.000  C
  H6       1.0000 0.76538  0.96460  0.61948  Biso   1.000  H
  H7       1.0000 0.82250  0.00000  0.57658  Biso   1.000  H
  C23      1.0000 0.74054  0.81020  0.79889  Biso   1.000  C
  C24      1.0000 0.74048  0.81020  0.79889  Biso   1.000  C
  C25      1.0000 0.87753  0.77338  0.92271  Biso   1.000  C
  C26      1.0000 0.87747  0.77338  0.92271  Biso   1.000  C
  C27      1.0000 0.17400  0.78798  0.85629  Biso   1.000  C
  H8       1.0000 0.07409  0.75971  0.78852  Biso   1.000  H
  H9       1.0000 0.10060  0.83158  0.77668  Biso   1.000  H
  H10      1.0000 0.07138  0.75302  0.79350  Biso   1.000  H
  H11      1.0000 0.01948  0.72689  0.84672  Biso   1.000  H
  C28      1.0000 0.13681  0.75360  0.89159  Biso   1.000  C
  C29      1.0000 0.74550  0.15460  0.76530  Biso   1.000  C
  C30      1.0000 0.88958  0.20162  0.88298  Biso   1.000  C
  H12      1.0000 0.09681  0.13912  0.73701  Biso   1.000  H
  H13      1.0000 0.07570  0.20680  0.76601  Biso   1.000  H
  C31      1.0000 0.18279  0.16768  0.81918  Biso   1.000  C
  C32      1.0000 0.89690  0.89790  0.52950  Biso   1.000  C
  H14      1.0000 0.77508  0.89438  0.53142  Biso   1.000  H
  H15      1.0000 0.82659  0.86191  0.59501  Biso   1.000  H
  C33      1.0000 0.71343  0.84379  0.85750  Biso   1.000  C
  H16      1.0000 0.75340  0.76508  0.81309  Biso   1.000  H
  C34      1.0000 0.67343  0.80609  0.73348  Biso   1.000  C
  C35      1.0000 0.71337  0.84379  0.85750  Biso   1.000  C
  C36      1.0000 0.67337  0.80609  0.73348  Biso   1.000  C
  O8       1.0000 0.79918  0.77098  0.93489  Biso   1.000  O
  H17      1.0000 0.90849  0.74232  0.95302  Biso   1.000  H
  H18      1.0000 0.89843  0.81640  0.93640  Biso   1.000  H
  C37      1.0000 0.17004  0.74701  0.91742  Biso   1.000  C
  H19      1.0000 0.19881  0.82929  0.87049  Biso   1.000  H
  H20      1.0000 0.21003  0.76571  0.82991  Biso   1.000  H
  C38      1.0000 0.16998  0.74701  0.91742  Biso   1.000  C
  H21      1.0000 0.16298  0.84462  0.85800  Biso   1.000  H
  H22      1.0000 0.22050  0.79022  0.83751  Biso   1.000  H
  H23      1.0000 0.11478  0.74789  0.92709  Biso   1.000  H
  H24      1.0000 0.16097  0.71068  0.89018  Biso   1.000  H
  H25      1.0000 0.12461  0.76102  0.93650  Biso   1.000  H
  C39      1.0000 0.19400  0.80580  0.87361  Biso   1.000  C
  C40      1.0000 0.72329  0.12999  0.83257  Biso   1.000  C
  H26      1.0000 0.75952  0.20089  0.77180  Biso   1.000  H
  C41      1.0000 0.67528  0.15089  0.70408  Biso   1.000  C
  O9       1.0000 0.81374  0.21119  0.89249  Biso   1.000  O
  H27      1.0000 0.90699  0.15929  0.90171  Biso   1.000  H
  H28      1.0000 0.92348  0.23429  0.90861  Biso   1.000  H
  O10      1.0000 0.81368  0.21119  0.89249  Biso   1.000  O
  H29      1.0000 0.22283  0.18131  0.79219  Biso   1.000  H
  H30      1.0000 0.20021  0.12828  0.84421  Biso   1.000  H
  C42      1.0000 0.15842  0.22052  0.86148  Biso   1.000  C
  H31      1.0000 0.22277  0.18131  0.79219  Biso   1.000  H
  C43      1.0000 0.97070  0.87182  0.56047  Biso   1.000  C
  C44      1.0000 0.97071  0.87182  0.56052  Biso   1.000  C
  C45      1.0000 0.88988  0.92500  0.46520  Biso   1.000  C
  C46      1.0000 0.75100  0.82489  0.92160  Biso   1.000  C
  C47      1.0000 0.66191  0.89780  0.84959  Biso   1.000  C
  H32      1.0000 0.69703  0.78871  0.69627  Biso   1.000  H
  H33      1.0000 0.65292  0.84950  0.72109  Biso   1.000  H
  C48      1.0000 0.60611  0.76351  0.74647  Biso   1.000  C
  H34      1.0000 0.69698  0.78871  0.69632  Biso   1.000  H
  C49      1.0000 0.60612  0.76351  0.74652  Biso   1.000  C
  C50      1.0000 0.22700  0.77538  0.97598  Biso   1.000  C
  H35      1.0000 0.18422  0.70248  0.90971  Biso   1.000  H
  C51      1.0000 0.25600  0.82221  0.93439  Biso   1.000  C
  C52      1.0000 0.76129  0.15841  0.89259  Biso   1.000  C
  C53      1.0000 0.67001  0.07788  0.83419  Biso   1.000  C
  H36      1.0000 0.65491  0.10660  0.69869  Biso   1.000  H
  H37      1.0000 0.69512  0.16329  0.66329  Biso   1.000  H
  C54      1.0000 0.60771  0.19669  0.71581  Biso   1.000  C
  H38      1.0000 0.16109  0.26329  0.84129  Biso   1.000  H
  H39      1.0000 0.10511  0.21339  0.87311  Biso   1.000  H
  C55      1.0000 0.22869  0.20919  0.92331  Biso   1.000  C
  C56      1.0000 0.03753  0.87289  0.52729  Biso   1.000  C
  H40      1.0000 0.97542  0.85370  0.60332  Biso   1.000  H
  C57      1.0000 0.95672  0.92612  0.43207  Biso   1.000  C
  C58      1.0000 0.95673  0.92612  0.43212  Biso   1.000  C
  H41      1.0000 0.84073  0.94238  0.44461  Biso   1.000  H
  C59      1.0000 0.73720  0.86010  0.97799  Biso   1.000  C
  C60      1.0000 0.64799  0.93291  0.90599  Biso   1.000  C
  H42      1.0000 0.63679  0.91030  0.80690  Biso   1.000  H
  H43      1.0000 0.62793  0.72308  0.76722  Biso   1.000  H
  H44      1.0000 0.57600  0.78500  0.77739  Biso   1.000  H
  C61      1.0000 0.54813  0.74808  0.67890  Biso   1.000  C
  C62      1.0000 0.54807  0.74808  0.67890  Biso   1.000  C
  O11      1.0000 0.21001  0.84408  0.98489  Biso   1.000  O
  H45      1.0000 0.28269  0.77050  0.96848  Biso   1.000  H
  H46      1.0000 0.28803  0.78402  0.95000  Biso   1.000  H
  H47      1.0000 0.22203  0.75170  0.01702  Biso   1.000  H
  H48      1.0000 0.29203  0.85639  0.92391  Biso   1.000  H
  C63      1.0000 0.74602  0.13458  0.95418  Biso   1.000  C
  C64      1.0000 0.65468  0.05410  0.89582  Biso   1.000  C
  H49      1.0000 0.64474  0.05899  0.79431  Biso   1.000  H
  H50      1.0000 0.64468  0.05899  0.79431  Biso   1.000  H
  H51      1.0000 0.62809  0.24108  0.71762  Biso   1.000  H
  H52      1.0000 0.59301  0.18692  0.75931  Biso   1.000  H
  C65      1.0000 0.53220  0.19332  0.66309  Biso   1.000  C
  H53      1.0000 0.23072  0.24581  0.95418  Biso   1.000  H
  H54      1.0000 0.28032  0.20709  0.90740  Biso   1.000  H
  O12      1.0000 0.21619  0.14888  0.95891  Biso   1.000  O
  C66      1.0000 0.03053  0.90009  0.46309  Biso   1.000  C
  H55      1.0000 0.08670  0.85561  0.54798  Biso   1.000  H
  C67      1.0000 0.03047  0.90009  0.46309  Biso   1.000  C
  H56      1.0000 0.95199  0.94419  0.38917  Biso   1.000  H
  H57      1.0000 0.95200  0.94419  0.38922  Biso   1.000  H
  C68      1.0000 0.68573  0.91411  0.97009  Biso   1.000  C
  C69      1.0000 0.68567  0.91411  0.97009  Biso   1.000  C
  O13      1.0000 0.78383  0.85112  0.04108  Biso   1.000  O
  C70      1.0000 0.60039  0.99512  0.90070  Biso   1.000  C
  C71      1.0000 0.47862  0.78471  0.65599  Biso   1.000  C
  C72      1.0000 0.56530  0.69261  0.64360  Biso   1.000  C
  C73      1.0000 0.25400  0.86542  0.04582  Biso   1.000  C
  C74      1.0000 0.69268  0.08252  0.95579  Biso   1.000  C
  O14      1.0000 0.79000  0.15592  0.01510  Biso   1.000  O
  C75      1.0000 0.47870  0.14288  0.67140  Biso   1.000  C
  C76      1.0000 0.51132  0.23922  0.61198  Biso   1.000  C
  C77      1.0000 0.26282  0.13990  0.02200  Biso   1.000  C
  H58      1.0000 0.07513  0.90078  0.44099  Biso   1.000  H
  O15      1.0000 0.67231  0.94961  0.02839  Biso   1.000  O
  C78      1.0000 0.77132  0.79081  0.07668  Biso   1.000  C
  H59      1.0000 0.57931  0.99961  0.94310  Biso   1.000  H
  C79      1.0000 0.52372  0.99761  0.84159  Biso   1.000  C
  H60      1.0000 0.46723  0.82172  0.67950  Biso   1.000  H
  C80      1.0000 0.42629  0.76571  0.59788  Biso   1.000  C
  C81      1.0000 0.51303  0.67371  0.58550  Biso   1.000  C
  H61      1.0000 0.61159  0.66829  0.65881  Biso   1.000  H
  C82      1.0000 0.51297  0.67371  0.58550  Biso   1.000  C
  C83      1.0000 0.23872  0.84159  0.10740  Biso   1.000  C
  C84      1.0000 0.30733  0.91748  0.04421  Biso   1.000  C
  C85      1.0000 0.30727  0.91748  0.04421  Biso   1.000  C
  O16      1.0000 0.67739  0.06031  0.01848  Biso   1.000  O
  C86      1.0000 0.77302  0.22462  0.02401  Biso   1.000  C
  C87      1.0000 0.74402  0.17779  0.06561  Biso   1.000  C
  H62      1.0000 0.49260  0.11221  0.70549  Biso   1.000  H
  C88      1.0000 0.40421  0.13839  0.62860  Biso   1.000  C
  C89      1.0000 0.43683  0.23468  0.56918  Biso   1.000  C
  H63      1.0000 0.54691  0.27291  0.60649  Biso   1.000  H
  C90      1.0000 0.43677  0.23468  0.56918  Biso   1.000  C
  C91      1.0000 0.24901  0.17511  0.07839  Biso   1.000  C
  C92      1.0000 0.31428  0.08589  0.02991  Biso   1.000  C
  C93      1.0000 0.71243  0.00171  0.04471  Biso   1.000  C
  C94      1.0000 0.84160  0.77948  0.13852  Biso   1.000  C
  H64      1.0000 0.76929  0.75419  0.04582  Biso   1.000  H
  H65      1.0000 0.71970  0.79291  0.09259  Biso   1.000  H
  H66      1.0000 0.54029  0.98530  0.79939  Biso   1.000  H
  C95      1.0000 0.45803  0.95268  0.85559  Biso   1.000  C
  C96      1.0000 0.45797  0.95268  0.85559  Biso   1.000  C
  H67      1.0000 0.50303  0.04190  0.83701  Biso   1.000  H
  H68      1.0000 0.38000  0.79008  0.58268  Biso   1.000  H
  C97      1.0000 0.44348  0.71019  0.56269  Biso   1.000  C
  H69      1.0000 0.52438  0.63660  0.56208  Biso   1.000  H
  O17      1.0000 0.18628  0.78881  0.10750  Biso   1.000  O
  C98      1.0000 0.27673  0.87001  0.16742  Biso   1.000  C
  O18      1.0000 0.32263  0.93969  0.98152  Biso   1.000  O
  C99      1.0000 0.34533  0.94590  0.10418  Biso   1.000  C
  C100     1.0000 0.34527  0.94590  0.10418  Biso   1.000  C
  H70      1.0000 0.77799  0.24830  0.98298  Biso   1.000  H
  C101     1.0000 0.82997  0.25299  0.08257  Biso   1.000  C
  H71      1.0000 0.71733  0.22950  0.03152  Biso   1.000  H
  C102     1.0000 0.82998  0.25299  0.08262  Biso   1.000  C
  H72      1.0000 0.71199  0.21598  0.05000  Biso   1.000  H
  C103     1.0000 0.80602  0.19420  0.12638  Biso   1.000  C
  H73      1.0000 0.70798  0.14361  0.07608  Biso   1.000  H
  H74      1.0000 0.36863  0.10469  0.63419  Biso   1.000  H
  C104     1.0000 0.38329  0.18429  0.57759  Biso   1.000  C
  H75      1.0000 0.36857  0.10469  0.63419  Biso   1.000  H
  H76      1.0000 0.42289  0.26530  0.53519  Biso   1.000  H
  O19      1.0000 0.20084  0.22902  0.06510  Biso   1.000  O
  C105     1.0000 0.28658  0.15621  0.14249  Biso   1.000  C
  O20      1.0000 0.20078  0.22902  0.06510  Biso   1.000  O
  O21      1.0000 0.32770  0.05039  0.97160  Biso   1.000  O
  C106     1.0000 0.35203  0.06709  0.09400  Biso   1.000  C
  H77      1.0000 0.76481  0.99741  0.03051  Biso   1.000  H
  H78      1.0000 0.72201  0.00498  0.09340  Biso   1.000  H
  C107     1.0000 0.81722  0.83232  0.18081  Biso   1.000  C
  H79      1.0000 0.83893  0.73671  0.15871  Biso   1.000  H
  H80      1.0000 0.89491  0.78661  0.12688  Biso   1.000  H
  H81      1.0000 0.47859  0.90830  0.85891  Biso   1.000  H
  H82      1.0000 0.44320  0.96411  0.89869  Biso   1.000  H
  C108     1.0000 0.38139  0.95542  0.80080  Biso   1.000  C
  H83      1.0000 0.40871  0.69749  0.52402  Biso   1.000  H
  C109     1.0000 0.11044  0.79838  0.11701  Biso   1.000  C
  C110     1.0000 0.11038  0.79838  0.11701  Biso   1.000  C
  C111     1.0000 0.25452  0.84540  0.23469  Biso   1.000  C
  C112     1.0000 0.33000  0.92212  0.16581  Biso   1.000  C
  C113     1.0000 0.28759  0.99829  0.95528  Biso   1.000  C
  C114     1.0000 0.39963  0.00488  0.09929  Biso   1.000  C
  C115     1.0000 0.39957  0.00488  0.09929  Biso   1.000  C
  C116     1.0000 0.82602  0.21202  0.14370  Biso   1.000  C
  H84      1.0000 0.88523  0.25211  0.07291  Biso   1.000  H
  H85      1.0000 0.81579  0.29752  0.09028  Biso   1.000  H
  H86      1.0000 0.83899  0.28932  0.10981  Biso   1.000  H
  H87      1.0000 0.87541  0.23898  0.06349  Biso   1.000  H
  H88      1.0000 0.78999  0.23429  0.17009  Biso   1.000  H
  C117     1.0000 0.86320  0.24640  0.10840  Biso   1.000  C
  H89      1.0000 0.83703  0.15538  0.14199  Biso   1.000  H
  H90      1.0000 0.77951  0.20978  0.16248  Biso   1.000  H
  H91      1.0000 0.33368  0.18131  0.54899  Biso   1.000  H
  C118     1.0000 0.12248  0.22662  0.07729  Biso   1.000  C
  C119     1.0000 0.25948  0.18980  0.20110  Biso   1.000  C
  C120     1.0000 0.33811  0.10220  0.15040  Biso   1.000  C
  C121     1.0000 0.90501  0.83691  0.22170  Biso   1.000  C
  H92      1.0000 0.77718  0.81869  0.20780  Biso   1.000  H
  H93      1.0000 0.79981  0.87172  0.15579  Biso   1.000  H
  C122     1.0000 0.35058  0.89609  0.77361  Biso   1.000  C
  C123     1.0000 0.34301  0.01382  0.77880  Biso   1.000  C
  O22      1.0000 0.09681  0.79652  0.18001  Biso   1.000  O
  H94      1.0000 0.09302  0.84071  0.09828  Biso   1.000  H
  H95      1.0000 0.07653  0.76571  0.09139  Biso   1.000  H
  H96      1.0000 0.07647  0.76571  0.09139  Biso   1.000  H
  C124     1.0000 0.17909  0.87968  0.24657  Biso   1.000  C
  H97      1.0000 0.24050  0.79911  0.22819  Biso   1.000  H
  C125     1.0000 0.32473  0.84911  0.29592  Biso   1.000  C
  C126     1.0000 0.17910  0.87968  0.24662  Biso   1.000  C
  C127     1.0000 0.32467  0.84911  0.29592  Biso   1.000  C
  H98      1.0000 0.35528  0.94101  0.20569  Biso   1.000  H
  H99      1.0000 0.27801  0.99502  0.90659  Biso   1.000  H
  H100     1.0000 0.23520  0.00259  0.96948  Biso   1.000  H
  H101     1.0000 0.42070  0.00039  0.05689  Biso   1.000  H
  C128     1.0000 0.47629  0.00239  0.15840  Biso   1.000  C
  C129     1.0000 0.90711  0.19991  0.18902  Biso   1.000  C
  H102     1.0000 0.80120  0.17071  0.12950  Biso   1.000  H
  C130     1.0000 0.94098  0.24098  0.16138  Biso   1.000  C
  H103     1.0000 0.09152  0.25768  0.04697  Biso   1.000  H
  H104     1.0000 0.10159  0.18360  0.06359  Biso   1.000  H
  O23      1.0000 0.10452  0.23780  0.13922  Biso   1.000  O
  H105     1.0000 0.09153  0.25768  0.04703  Biso   1.000  H
  C131     1.0000 0.18562  0.16212  0.21847  Biso   1.000  C
  H106     1.0000 0.24661  0.23492  0.18690  Biso   1.000  H
  C132     1.0000 0.32658  0.19391  0.26651  Biso   1.000  C
  C133     1.0000 0.18563  0.16212  0.21853  Biso   1.000  C
  H107     1.0000 0.36323  0.08970  0.19310  Biso   1.000  H
  O24      1.0000 0.96169  0.86840  0.18559  Biso   1.000  O
  H108     1.0000 0.90320  0.86088  0.26299  Biso   1.000  H
  H109     1.0000 0.92431  0.79320  0.23398  Biso   1.000  H
  C134     1.0000 0.28133  0.89531  0.72442  Biso   1.000  C
  H110     1.0000 0.37620  0.85722  0.78821  Biso   1.000  H
  H111     1.0000 0.36348  0.05332  0.79698  Biso   1.000  H
  C135     1.0000 0.27370  0.01299  0.72960  Biso   1.000  C
  C136     1.0000 0.10361  0.85571  0.21681  Biso   1.000  C
  C137     1.0000 0.18403  0.93691  0.28459  Biso   1.000  C
  C138     1.0000 0.18397  0.93691  0.28459  Biso   1.000  C
  H112     1.0000 0.34511  0.89340  0.30130  Biso   1.000  H
  H113     1.0000 0.30490  0.83671  0.33670  Biso   1.000  H
  C139     1.0000 0.39231  0.80331  0.28418  Biso   1.000  C
  H114     1.0000 0.49699  0.95810  0.16299  Biso   1.000  H
  H115     1.0000 0.45972  0.01470  0.20060  Biso   1.000  H
  C140     1.0000 0.54198  0.04732  0.14441  Biso   1.000  C
  O25      1.0000 0.96891  0.17579  0.15251  Biso   1.000  O
  H116     1.0000 0.92592  0.24029  0.21148  Biso   1.000  H
  H117     1.0000 0.89942  0.16842  0.22331  Biso   1.000  H
  H118     1.0000 0.92863  0.24698  0.20649  Biso   1.000  H
  H119     1.0000 0.98054  0.27311  0.15332  Biso   1.000  H
  C141     1.0000 0.11230  0.18521  0.18308  Biso   1.000  C
  C142     1.0000 0.18591  0.11319  0.26671  Biso   1.000  C
  H120     1.0000 0.30299  0.21129  0.30372  Biso   1.000  H
  H121     1.0000 0.34710  0.15050  0.27890  Biso   1.000  H
  C143     1.0000 0.39391  0.23649  0.25352  Biso   1.000  C
  C144     1.0000 0.03310  0.88891  0.22492  Biso   1.000  C
  C145     1.0000 0.24289  0.95371  0.70241  Biso   1.000  C
  H122     1.0000 0.26079  0.85580  0.70619  Biso   1.000  H
  H123     1.0000 0.24808  0.05191  0.71500  Biso   1.000  H
  C146     1.0000 0.11361  0.97021  0.29279  Biso   1.000  C
  H124     1.0000 0.23430  0.95288  0.30448  Biso   1.000  H
  H125     1.0000 0.37193  0.75892  0.28237  Biso   1.000  H
  H126     1.0000 0.40700  0.81308  0.24068  Biso   1.000  H
  C147     1.0000 0.46782  0.80668  0.33690  Biso   1.000  C
  H127     1.0000 0.37188  0.75892  0.28242  Biso   1.000  H
  H128     1.0000 0.52142  0.09170  0.14108  Biso   1.000  H
  H129     1.0000 0.55682  0.03589  0.10130  Biso   1.000  H
  C148     1.0000 0.61862  0.04458  0.19919  Biso   1.000  C
  C149     1.0000 0.03930  0.15929  0.19602  Biso   1.000  C
  C150     1.0000 0.11289  0.08731  0.27960  Biso   1.000  C
  H130     1.0000 0.23482  0.09791  0.29028  Biso   1.000  H
  H131     1.0000 0.37209  0.27692  0.23277  Biso   1.000  H
  H132     1.0000 0.42402  0.21500  0.22260  Biso   1.000  H
  C151     1.0000 0.45188  0.25192  0.32109  Biso   1.000  C
  H133     1.0000 0.37210  0.27692  0.23283  Biso   1.000  H
  C152     1.0000 0.03812  0.94619  0.26299  Biso   1.000  C
  H134     1.0000 0.19673  0.95312  0.66958  Biso   1.000  H
  H135     1.0000 0.19667  0.95312  0.66958  Biso   1.000  H
  C153     1.0000 0.11192  0.03340  0.32900  Biso   1.000  C
  C154     1.0000 0.52131  0.85712  0.32860  Biso   1.000  C
  C155     1.0000 0.48870  0.76078  0.38801  Biso   1.000  C
  C156     1.0000 0.65700  0.98618  0.22119  Biso   1.000  C
  C157     1.0000 0.64943  0.10391  0.22638  Biso   1.000  C
  C158     1.0000 0.64937  0.10391  0.22638  Biso   1.000  C
  C159     1.0000 0.03960  0.11041  0.24431  Biso   1.000  C
  C160     1.0000 0.52140  0.21529  0.34400  Biso   1.000  C
  C161     1.0000 0.43471  0.30739  0.35639  Biso   1.000  C
  O26      1.0000 0.96383  0.97651  0.26651  Biso   1.000  O
  O27      1.0000 0.96377  0.97651  0.26651  Biso   1.000  O
  H136     1.0000 0.05984  0.03570  0.34501  Biso   1.000  H
  C162     1.0000 0.18199  0.03740  0.39461  Biso   1.000  C
  H137     1.0000 0.05978  0.03570  0.34501  Biso   1.000  H
  H138     1.0000 0.50741  0.88779  0.29451  Biso   1.000  H
  C163     1.0000 0.59581  0.86161  0.37139  Biso   1.000  C
  C164     1.0000 0.56319  0.76532  0.43081  Biso   1.000  C
  H139     1.0000 0.45310  0.72709  0.39350  Biso   1.000  H
  H140     1.0000 0.63653  0.94668  0.20302  Biso   1.000  H
  C165     1.0000 0.72632  0.98701  0.27039  Biso   1.000  C
  C166     1.0000 0.71869  0.10469  0.27557  Biso   1.000  C
  H141     1.0000 0.62382  0.14278  0.21178  Biso   1.000  H
  C167     1.0000 0.71870  0.10469  0.27562  Biso   1.000  C
  O28      1.0000 0.96622  0.08521  0.25538  Biso   1.000  O
  H142     1.0000 0.53278  0.17828  0.32049  Biso   1.000  H
  C168     1.0000 0.57372  0.23429  0.40211  Biso   1.000  C
  C169     1.0000 0.48698  0.32629  0.41450  Biso   1.000  C
  H143     1.0000 0.38842  0.33171  0.34118  Biso   1.000  H
  C170     1.0000 0.94292  0.03018  0.22391  Biso   1.000  C
  H144     1.0000 0.17751  0.00000  0.42341  Biso   1.000  H
  H145     1.0000 0.23463  0.03540  0.38051  Biso   1.000  H
  C171     1.0000 0.17623  0.10108  0.43529  Biso   1.000  C
  C172     1.0000 0.17617  0.10108  0.43529  Biso   1.000  C
  H146     1.0000 0.63138  0.89531  0.36581  Biso   1.000  H
  C173     1.0000 0.61672  0.81571  0.42240  Biso   1.000  C
  H147     1.0000 0.57713  0.73470  0.46480  Biso   1.000  H
  H148     1.0000 0.75193  0.94809  0.28499  Biso   1.000  H
  H149     1.0000 0.75187  0.94809  0.28499  Biso   1.000  H
  C174     1.0000 0.75713  0.04629  0.29758  Biso   1.000  C
  C175     1.0000 0.75707  0.04629  0.29758  Biso   1.000  C
  H150     1.0000 0.73923  0.14420  0.29380  Biso   1.000  H
  H151     1.0000 0.62001  0.20992  0.41732  Biso   1.000  H
  C176     1.0000 0.55653  0.28981  0.43731  Biso   1.000  C
  C177     1.0000 0.55647  0.28981  0.43731  Biso   1.000  C
  H152     1.0000 0.47563  0.36340  0.43791  Biso   1.000  H
  H153     1.0000 0.47557  0.36340  0.43791  Biso   1.000  H
  H154     1.0000 0.96860  0.02598  0.18429  Biso   1.000  H
  H155     1.0000 0.88472  0.03091  0.20921  Biso   1.000  H
  H156     1.0000 0.22493  0.10562  0.46857  Biso   1.000  H
  H157     1.0000 0.17342  0.13809  0.40498  Biso   1.000  H
  C178     1.0000 0.10312  0.10210  0.47049  Biso   1.000  C
  H158     1.0000 0.22488  0.10562  0.46862  Biso   1.000  H
  H159     1.0000 0.66634  0.81869  0.45100  Biso   1.000  H
  H160     1.0000 0.66628  0.81869  0.45100  Biso   1.000  H
  H161     1.0000 0.80328  0.04688  0.33041  Biso   1.000  H
  H162     1.0000 0.59131  0.30251  0.47598  Biso   1.000  H
  C179     1.0000 0.11013  0.07500  0.53479  Biso   1.000  C
  C180     1.0000 0.02931  0.12818  0.43952  Biso   1.000  C
  C181     1.0000 0.11007  0.07500  0.53479  Biso   1.000  C
  H163     1.0000 0.15929  0.05762  0.55538  Biso   1.000  H
  C182     1.0000 0.04330  0.07388  0.56792  Biso   1.000  C
  C183     1.0000 0.96249  0.12711  0.47270  Biso   1.000  C
  H164     1.0000 0.02460  0.14630  0.39667  Biso   1.000  H
  H165     1.0000 0.02461  0.14630  0.39672  Biso   1.000  H
  C184     1.0000 0.96948  0.09991  0.53690  Biso   1.000  C
  H166     1.0000 0.04802  0.05581  0.61082  Biso   1.000  H
  H167     1.0000 0.91331  0.14439  0.45201  Biso   1.000  H
  H168     1.0000 0.92489  0.09922  0.55901  Biso   1.000  H
  C185     1.0000 0.05710  0.96982  0.77608  Biso   1.000  C
  O29      1.0000 0.03380  0.91479  0.74461  Biso   1.000  O
  O30      1.0000 0.03618  0.02349  0.73348  Biso   1.000  O
  H169     1.0000 0.03141  0.97402  0.81571  Biso   1.000  H
  H170     1.0000 0.11529  0.96909  0.79078  Biso   1.000  H
  C186     1.0000 0.96042  0.88959  0.75569  Biso   1.000  C
  C187     1.0000 0.96189  0.05381  0.73701  Biso   1.000  C
  C188     1.0000 0.88712  0.91269  0.72039  Biso   1.000  C
  C189     1.0000 0.96072  0.84071  0.80397  Biso   1.000  C
  C190     1.0000 0.96073  0.84071  0.80403  Biso   1.000  C
  C191     1.0000 0.88641  0.02979  0.70720  Biso   1.000  C
  C192     1.0000 0.96691  0.11109  0.77507  Biso   1.000  C
  C193     1.0000 0.96692  0.11109  0.77512  Biso   1.000  C
  C194     1.0000 0.88810  0.96660  0.67099  Biso   1.000  C
  C195     1.0000 0.81410  0.88681  0.73328  Biso   1.000  C
  C196     1.0000 0.88771  0.81479  0.81692  Biso   1.000  C
  O31      1.0000 0.03111  0.82421  0.84748  Biso   1.000  O
  C197     1.0000 0.81598  0.06309  0.71541  Biso   1.000  C
  C198     1.0000 0.89640  0.14429  0.78318  Biso   1.000  C
  O32      1.0000 0.03832  0.13160  0.81440  Biso   1.000  O
  C199     1.0000 0.81802  0.96260  0.60539  Biso   1.000  C
  H171     1.0000 0.94018  0.96430  0.65498  Biso   1.000  H
  C200     1.0000 0.81439  0.83788  0.78152  Biso   1.000  C
  H172     1.0000 0.76519  0.90209  0.70972  Biso   1.000  H
  O33      1.0000 0.89549  0.76220  0.86077  Biso   1.000  O
  O34      1.0000 0.89550  0.76220  0.86082  Biso   1.000  O
  C201     1.0000 0.09291  0.80009  0.81097  Biso   1.000  C
  C202     1.0000 0.09292  0.80009  0.81102  Biso   1.000  C
  C203     1.0000 0.05898  0.75902  0.83862  Biso   1.000  C
  C204     1.0000 0.82093  0.12032  0.75342  Biso   1.000  C
  H173     1.0000 0.76571  0.04712  0.69552  Biso   1.000  H
  O35      1.0000 0.90320  0.20348  0.81999  Biso   1.000  O
  C205     1.0000 0.09500  0.16309  0.77830  Biso   1.000  C
  C206     1.0000 0.82378  0.89892  0.56470  Biso   1.000  C
  H174     1.0000 0.76538  0.96460  0.61948  Biso   1.000  H
  H175     1.0000 0.82250  0.00000  0.57658  Biso   1.000  H
  C207     1.0000 0.74054  0.81020  0.79889  Biso   1.000  C
  C208     1.0000 0.74048  0.81020  0.79889  Biso   1.000  C
  C209     1.0000 0.87753  0.77338  0.92271  Biso   1.000  C
  C210     1.0000 0.87747  0.77338  0.92271  Biso   1.000  C
  C211     1.0000 0.17400  0.78798  0.85629  Biso   1.000  C
  H176     1.0000 0.07409  0.75971  0.78852  Biso   1.000  H
  H177     1.0000 0.10060  0.83158  0.77668  Biso   1.000  H
  H178     1.0000 0.07138  0.75302  0.79350  Biso   1.000  H
  H179     1.0000 0.01948  0.72689  0.84672  Biso   1.000  H
  C212     1.0000 0.13681  0.75360  0.89159  Biso   1.000  C
  C213     1.0000 0.74550  0.15460  0.76530  Biso   1.000  C
  C214     1.0000 0.88958  0.20162  0.88298  Biso   1.000  C
  H180     1.0000 0.09681  0.13912  0.73701  Biso   1.000  H
  H181     1.0000 0.07570  0.20680  0.76601  Biso   1.000  H
  C215     1.0000 0.18279  0.16768  0.81918  Biso   1.000  C
  C216     1.0000 0.89690  0.89790  0.52950  Biso   1.000  C
  H182     1.0000 0.77508  0.89438  0.53142  Biso   1.000  H
  H183     1.0000 0.82659  0.86191  0.59501  Biso   1.000  H
  C217     1.0000 0.71343  0.84379  0.85750  Biso   1.000  C
  H184     1.0000 0.75340  0.76508  0.81309  Biso   1.000  H
  C218     1.0000 0.67343  0.80609  0.73348  Biso   1.000  C
  C219     1.0000 0.71337  0.84379  0.85750  Biso   1.000  C
  C220     1.0000 0.67337  0.80609  0.73348  Biso   1.000  C
  O36      1.0000 0.79918  0.77098  0.93489  Biso   1.000  O
  H185     1.0000 0.90849  0.74232  0.95302  Biso   1.000  H
  H186     1.0000 0.89843  0.81640  0.93640  Biso   1.000  H
  H187     1.0000 0.19881  0.82929  0.87049  Biso   1.000  H
  H188     1.0000 0.21003  0.76571  0.82991  Biso   1.000  H
  C221     1.0000 0.17004  0.74701  0.91742  Biso   1.000  C
  C222     1.0000 0.16998  0.74701  0.91742  Biso   1.000  C
  H189     1.0000 0.16298  0.84462  0.85800  Biso   1.000  H
  H190     1.0000 0.22050  0.79022  0.83751  Biso   1.000  H
  H191     1.0000 0.11478  0.74789  0.92709  Biso   1.000  H
  H192     1.0000 0.16097  0.71068  0.89018  Biso   1.000  H
  H193     1.0000 0.12461  0.76102  0.93650  Biso   1.000  H
  C223     1.0000 0.19400  0.80580  0.87361  Biso   1.000  C
  C224     1.0000 0.72329  0.12999  0.83257  Biso   1.000  C
  H194     1.0000 0.75952  0.20089  0.77180  Biso   1.000  H
  C225     1.0000 0.67528  0.15089  0.70408  Biso   1.000  C
  O37      1.0000 0.81374  0.21119  0.89249  Biso   1.000  O
  H195     1.0000 0.90699  0.15929  0.90171  Biso   1.000  H
  H196     1.0000 0.92348  0.23429  0.90861  Biso   1.000  H
  O38      1.0000 0.81368  0.21119  0.89249  Biso   1.000  O
  H197     1.0000 0.22283  0.18131  0.79219  Biso   1.000  H
  H198     1.0000 0.20021  0.12828  0.84421  Biso   1.000  H
  C226     1.0000 0.15842  0.22052  0.86148  Biso   1.000  C
  H199     1.0000 0.22277  0.18131  0.79219  Biso   1.000  H
  C227     1.0000 0.97070  0.87182  0.56047  Biso   1.000  C
  C228     1.0000 0.97071  0.87182  0.56052  Biso   1.000  C
  C229     1.0000 0.88988  0.92500  0.46520  Biso   1.000  C
  C230     1.0000 0.75100  0.82489  0.92160  Biso   1.000  C
  C231     1.0000 0.66191  0.89780  0.84959  Biso   1.000  C
  H200     1.0000 0.69703  0.78871  0.69627  Biso   1.000  H
  H201     1.0000 0.65292  0.84950  0.72109  Biso   1.000  H
  C232     1.0000 0.60611  0.76351  0.74647  Biso   1.000  C
  H202     1.0000 0.69698  0.78871  0.69632  Biso   1.000  H
  C233     1.0000 0.60612  0.76351  0.74652  Biso   1.000  C
  C234     1.0000 0.22700  0.77538  0.97598  Biso   1.000  C
  H203     1.0000 0.18422  0.70248  0.90971  Biso   1.000  H
  C235     1.0000 0.25600  0.82221  0.93439  Biso   1.000  C
  C236     1.0000 0.76129  0.15841  0.89259  Biso   1.000  C
  C237     1.0000 0.67001  0.07788  0.83419  Biso   1.000  C
  H204     1.0000 0.65491  0.10660  0.69869  Biso   1.000  H
  H205     1.0000 0.69512  0.16329  0.66329  Biso   1.000  H
  C238     1.0000 0.60771  0.19669  0.71581  Biso   1.000  C
  H206     1.0000 0.16109  0.26329  0.84129  Biso   1.000  H
  H207     1.0000 0.10511  0.21339  0.87311  Biso   1.000  H
  C239     1.0000 0.22869  0.20919  0.92331  Biso   1.000  C
  C240     1.0000 0.03753  0.87289  0.52729  Biso   1.000  C
  H208     1.0000 0.97542  0.85370  0.60332  Biso   1.000  H
  C241     1.0000 0.95672  0.92612  0.43207  Biso   1.000  C
  C242     1.0000 0.95673  0.92612  0.43212  Biso   1.000  C
  H209     1.0000 0.84073  0.94238  0.44461  Biso   1.000  H
  C243     1.0000 0.73720  0.86010  0.97799  Biso   1.000  C
  C244     1.0000 0.64799  0.93291  0.90599  Biso   1.000  C
  H210     1.0000 0.63679  0.91030  0.80690  Biso   1.000  H
  H211     1.0000 0.62793  0.72308  0.76722  Biso   1.000  H
  H212     1.0000 0.57600  0.78500  0.77739  Biso   1.000  H
  C245     1.0000 0.54813  0.74808  0.67890  Biso   1.000  C
  C246     1.0000 0.54807  0.74808  0.67890  Biso   1.000  C
  O39      1.0000 0.21001  0.84408  0.98489  Biso   1.000  O
  H213     1.0000 0.28269  0.77050  0.96848  Biso   1.000  H
  H214     1.0000 0.28803  0.78402  0.95000  Biso   1.000  H
  H215     1.0000 0.22203  0.75170  0.01702  Biso   1.000  H
  H216     1.0000 0.29203  0.85639  0.92391  Biso   1.000  H
  C247     1.0000 0.74602  0.13458  0.95418  Biso   1.000  C
  C248     1.0000 0.65468  0.05410  0.89582  Biso   1.000  C
  H217     1.0000 0.64474  0.05899  0.79431  Biso   1.000  H
  H218     1.0000 0.64468  0.05899  0.79431  Biso   1.000  H
  H219     1.0000 0.62809  0.24108  0.71762  Biso   1.000  H
  H220     1.0000 0.59301  0.18692  0.75931  Biso   1.000  H
  C249     1.0000 0.53220  0.19332  0.66309  Biso   1.000  C
  H221     1.0000 0.23072  0.24581  0.95418  Biso   1.000  H
  H222     1.0000 0.28032  0.20709  0.90740  Biso   1.000  H
  O40      1.0000 0.21619  0.14888  0.95891  Biso   1.000  O
  H223     1.0000 0.08670  0.85561  0.54798  Biso   1.000  H
  C250     1.0000 0.03053  0.90009  0.46309  Biso   1.000  C
  C251     1.0000 0.03047  0.90009  0.46309  Biso   1.000  C
  H224     1.0000 0.95199  0.94419  0.38917  Biso   1.000  H
  H225     1.0000 0.95200  0.94419  0.38922  Biso   1.000  H
  C252     1.0000 0.68573  0.91411  0.97009  Biso   1.000  C
  C253     1.0000 0.68567  0.91411  0.97009  Biso   1.000  C
  O41      1.0000 0.78383  0.85112  0.04108  Biso   1.000  O
  C254     1.0000 0.60039  0.99512  0.90070  Biso   1.000  C
  C255     1.0000 0.47862  0.78471  0.65599  Biso   1.000  C
  C256     1.0000 0.56530  0.69261  0.64360  Biso   1.000  C
  C257     1.0000 0.25400  0.86542  0.04582  Biso   1.000  C
  C258     1.0000 0.69268  0.08252  0.95579  Biso   1.000  C
  O42      1.0000 0.79000  0.15592  0.01510  Biso   1.000  O
  C259     1.0000 0.47870  0.14288  0.67140  Biso   1.000  C
  C260     1.0000 0.51132  0.23922  0.61198  Biso   1.000  C
  C261     1.0000 0.26282  0.13990  0.02200  Biso   1.000  C
  H226     1.0000 0.07513  0.90078  0.44099  Biso   1.000  H
  O43      1.0000 0.67231  0.94961  0.02839  Biso   1.000  O
  C262     1.0000 0.77132  0.79081  0.07668  Biso   1.000  C
  H227     1.0000 0.57931  0.99961  0.94310  Biso   1.000  H
  C263     1.0000 0.52372  0.99761  0.84159  Biso   1.000  C
  H228     1.0000 0.46723  0.82172  0.67950  Biso   1.000  H
  C264     1.0000 0.42629  0.76571  0.59788  Biso   1.000  C
  C265     1.0000 0.51303  0.67371  0.58550  Biso   1.000  C
  H229     1.0000 0.61159  0.66829  0.65881  Biso   1.000  H
  C266     1.0000 0.51297  0.67371  0.58550  Biso   1.000  C
  C267     1.0000 0.23872  0.84159  0.10740  Biso   1.000  C
  C268     1.0000 0.30733  0.91748  0.04421  Biso   1.000  C
  C269     1.0000 0.30727  0.91748  0.04421  Biso   1.000  C
  O44      1.0000 0.67739  0.06031  0.01848  Biso   1.000  O
  C270     1.0000 0.77302  0.22462  0.02401  Biso   1.000  C
  C271     1.0000 0.74402  0.17779  0.06561  Biso   1.000  C
  H230     1.0000 0.49260  0.11221  0.70549  Biso   1.000  H
  C272     1.0000 0.40421  0.13839  0.62860  Biso   1.000  C
  C273     1.0000 0.43683  0.23468  0.56918  Biso   1.000  C
  H231     1.0000 0.54691  0.27291  0.60649  Biso   1.000  H
  C274     1.0000 0.43677  0.23468  0.56918  Biso   1.000  C
  C275     1.0000 0.24901  0.17511  0.07839  Biso   1.000  C
  C276     1.0000 0.31428  0.08589  0.02991  Biso   1.000  C
  C277     1.0000 0.71243  0.00171  0.04471  Biso   1.000  C
  C278     1.0000 0.84160  0.77948  0.13852  Biso   1.000  C
  H232     1.0000 0.76929  0.75419  0.04582  Biso   1.000  H
  H233     1.0000 0.71970  0.79291  0.09259  Biso   1.000  H
  H234     1.0000 0.54029  0.98530  0.79939  Biso   1.000  H
  C279     1.0000 0.45803  0.95268  0.85559  Biso   1.000  C
  C280     1.0000 0.45797  0.95268  0.85559  Biso   1.000  C
  H235     1.0000 0.50303  0.04190  0.83701  Biso   1.000  H
  H236     1.0000 0.38000  0.79008  0.58268  Biso   1.000  H
  C281     1.0000 0.44348  0.71019  0.56269  Biso   1.000  C
  H237     1.0000 0.52438  0.63660  0.56208  Biso   1.000  H
  O45      1.0000 0.18628  0.78881  0.10750  Biso   1.000  O
  C282     1.0000 0.27673  0.87001  0.16742  Biso   1.000  C
  O46      1.0000 0.32263  0.93969  0.98152  Biso   1.000  O
  C283     1.0000 0.34533  0.94590  0.10418  Biso   1.000  C
  C284     1.0000 0.34527  0.94590  0.10418  Biso   1.000  C
  H238     1.0000 0.77799  0.24830  0.98298  Biso   1.000  H
  C285     1.0000 0.82997  0.25299  0.08257  Biso   1.000  C
  H239     1.0000 0.71733  0.22950  0.03152  Biso   1.000  H
  C286     1.0000 0.82998  0.25299  0.08262  Biso   1.000  C
  H240     1.0000 0.71199  0.21598  0.05000  Biso   1.000  H
  C287     1.0000 0.80602  0.19420  0.12638  Biso   1.000  C
  H241     1.0000 0.70798  0.14361  0.07608  Biso   1.000  H
  H242     1.0000 0.36863  0.10469  0.63419  Biso   1.000  H
  C288     1.0000 0.38329  0.18429  0.57759  Biso   1.000  C
  H243     1.0000 0.36857  0.10469  0.63419  Biso   1.000  H
  H244     1.0000 0.42289  0.26530  0.53519  Biso   1.000  H
  O47      1.0000 0.20084  0.22902  0.06510  Biso   1.000  O
  C289     1.0000 0.28658  0.15621  0.14249  Biso   1.000  C
  O48      1.0000 0.20078  0.22902  0.06510  Biso   1.000  O
  O49      1.0000 0.32770  0.05039  0.97160  Biso   1.000  O
  C290     1.0000 0.35203  0.06709  0.09400  Biso   1.000  C
  H245     1.0000 0.76481  0.99741  0.03051  Biso   1.000  H
  H246     1.0000 0.72201  0.00498  0.09340  Biso   1.000  H
  C291     1.0000 0.81722  0.83232  0.18081  Biso   1.000  C
  H247     1.0000 0.83893  0.73671  0.15871  Biso   1.000  H
  H248     1.0000 0.89491  0.78661  0.12688  Biso   1.000  H
  H249     1.0000 0.47859  0.90830  0.85891  Biso   1.000  H
  H250     1.0000 0.44320  0.96411  0.89869  Biso   1.000  H
  C292     1.0000 0.38139  0.95542  0.80080  Biso   1.000  C
  H251     1.0000 0.40871  0.69749  0.52402  Biso   1.000  H
  C293     1.0000 0.11044  0.79838  0.11701  Biso   1.000  C
  C294     1.0000 0.11038  0.79838  0.11701  Biso   1.000  C
  C295     1.0000 0.25452  0.84540  0.23469  Biso   1.000  C
  C296     1.0000 0.33000  0.92212  0.16581  Biso   1.000  C
  C297     1.0000 0.28759  0.99829  0.95528  Biso   1.000  C
  C298     1.0000 0.39963  0.00488  0.09929  Biso   1.000  C
  C299     1.0000 0.39957  0.00488  0.09929  Biso   1.000  C
  C300     1.0000 0.82602  0.21202  0.14370  Biso   1.000  C
  H252     1.0000 0.88523  0.25211  0.07291  Biso   1.000  H
  H253     1.0000 0.81579  0.29752  0.09028  Biso   1.000  H
  H254     1.0000 0.83899  0.28932  0.10981  Biso   1.000  H
  H255     1.0000 0.87541  0.23898  0.06349  Biso   1.000  H
  H256     1.0000 0.78999  0.23429  0.17009  Biso   1.000  H
  C301     1.0000 0.86320  0.24640  0.10840  Biso   1.000  C
  H257     1.0000 0.83703  0.15538  0.14199  Biso   1.000  H
  H258     1.0000 0.77951  0.20978  0.16248  Biso   1.000  H
  H259     1.0000 0.33368  0.18131  0.54899  Biso   1.000  H
  C302     1.0000 0.12248  0.22662  0.07729  Biso   1.000  C
  C303     1.0000 0.25948  0.18980  0.20110  Biso   1.000  C
  C304     1.0000 0.33811  0.10220  0.15040  Biso   1.000  C
  C305     1.0000 0.90501  0.83691  0.22170  Biso   1.000  C
  H260     1.0000 0.77718  0.81869  0.20780  Biso   1.000  H
  H261     1.0000 0.79981  0.87172  0.15579  Biso   1.000  H
  C306     1.0000 0.35058  0.89609  0.77361  Biso   1.000  C
  C307     1.0000 0.34301  0.01382  0.77880  Biso   1.000  C
  O50      1.0000 0.09681  0.79652  0.18001  Biso   1.000  O
  H262     1.0000 0.09302  0.84071  0.09828  Biso   1.000  H
  H263     1.0000 0.07653  0.76571  0.09139  Biso   1.000  H
  H264     1.0000 0.07647  0.76571  0.09139  Biso   1.000  H
  C308     1.0000 0.17909  0.87968  0.24657  Biso   1.000  C
  H265     1.0000 0.24050  0.79911  0.22819  Biso   1.000  H
  C309     1.0000 0.32473  0.84911  0.29592  Biso   1.000  C
  C310     1.0000 0.17910  0.87968  0.24662  Biso   1.000  C
  C311     1.0000 0.32467  0.84911  0.29592  Biso   1.000  C
  H266     1.0000 0.35528  0.94101  0.20569  Biso   1.000  H
  H267     1.0000 0.27801  0.99502  0.90659  Biso   1.000  H
  H268     1.0000 0.23520  0.00259  0.96948  Biso   1.000  H
  H269     1.0000 0.42070  0.00039  0.05689  Biso   1.000  H
  C312     1.0000 0.47629  0.00239  0.15840  Biso   1.000  C
  C313     1.0000 0.90711  0.19991  0.18902  Biso   1.000  C
  H270     1.0000 0.80120  0.17071  0.12950  Biso   1.000  H
  C314     1.0000 0.94098  0.24098  0.16138  Biso   1.000  C
  H271     1.0000 0.09152  0.25768  0.04697  Biso   1.000  H
  H272     1.0000 0.10159  0.18360  0.06359  Biso   1.000  H
  O51      1.0000 0.10452  0.23780  0.13922  Biso   1.000  O
  H273     1.0000 0.09153  0.25768  0.04703  Biso   1.000  H
  C315     1.0000 0.18562  0.16212  0.21847  Biso   1.000  C
  H274     1.0000 0.24661  0.23492  0.18690  Biso   1.000  H
  C316     1.0000 0.32658  0.19391  0.26651  Biso   1.000  C
  C317     1.0000 0.18563  0.16212  0.21853  Biso   1.000  C
  H275     1.0000 0.36323  0.08970  0.19310  Biso   1.000  H
  O52      1.0000 0.96169  0.86840  0.18559  Biso   1.000  O
  H276     1.0000 0.90320  0.86088  0.26299  Biso   1.000  H
  H277     1.0000 0.92431  0.79320  0.23398  Biso   1.000  H
  C318     1.0000 0.28133  0.89531  0.72442  Biso   1.000  C
  H278     1.0000 0.37620  0.85722  0.78821  Biso   1.000  H
  H279     1.0000 0.36348  0.05332  0.79698  Biso   1.000  H
  C319     1.0000 0.27370  0.01299  0.72960  Biso   1.000  C
  C320     1.0000 0.10361  0.85571  0.21681  Biso   1.000  C
  C321     1.0000 0.18403  0.93691  0.28459  Biso   1.000  C
  C322     1.0000 0.18397  0.93691  0.28459  Biso   1.000  C
  H280     1.0000 0.34511  0.89340  0.30130  Biso   1.000  H
  H281     1.0000 0.30490  0.83671  0.33670  Biso   1.000  H
  C323     1.0000 0.39231  0.80331  0.28418  Biso   1.000  C
  H282     1.0000 0.49699  0.95810  0.16299  Biso   1.000  H
  H283     1.0000 0.45972  0.01470  0.20060  Biso   1.000  H
  C324     1.0000 0.54198  0.04732  0.14441  Biso   1.000  C
  O53      1.0000 0.96891  0.17579  0.15251  Biso   1.000  O
  H284     1.0000 0.92592  0.24029  0.21148  Biso   1.000  H
  H285     1.0000 0.89942  0.16842  0.22331  Biso   1.000  H
  H286     1.0000 0.92863  0.24698  0.20649  Biso   1.000  H
  H287     1.0000 0.98054  0.27311  0.15332  Biso   1.000  H
  C325     1.0000 0.11230  0.18521  0.18308  Biso   1.000  C
  C326     1.0000 0.18591  0.11319  0.26671  Biso   1.000  C
  H288     1.0000 0.30299  0.21129  0.30372  Biso   1.000  H
  H289     1.0000 0.34710  0.15050  0.27890  Biso   1.000  H
  C327     1.0000 0.39391  0.23649  0.25352  Biso   1.000  C
  C328     1.0000 0.03310  0.88891  0.22492  Biso   1.000  C
  C329     1.0000 0.24289  0.95371  0.70241  Biso   1.000  C
  H290     1.0000 0.26079  0.85580  0.70619  Biso   1.000  H
  H291     1.0000 0.24808  0.05191  0.71500  Biso   1.000  H
  C330     1.0000 0.11361  0.97021  0.29279  Biso   1.000  C
  H292     1.0000 0.23430  0.95288  0.30448  Biso   1.000  H
  H293     1.0000 0.37193  0.75892  0.28237  Biso   1.000  H
  H294     1.0000 0.40700  0.81308  0.24068  Biso   1.000  H
  C331     1.0000 0.46782  0.80668  0.33690  Biso   1.000  C
  H295     1.0000 0.37188  0.75892  0.28242  Biso   1.000  H
  H296     1.0000 0.52142  0.09170  0.14108  Biso   1.000  H
  H297     1.0000 0.55682  0.03589  0.10130  Biso   1.000  H
  C332     1.0000 0.61862  0.04458  0.19919  Biso   1.000  C
  C333     1.0000 0.03930  0.15929  0.19602  Biso   1.000  C
  C334     1.0000 0.11289  0.08731  0.27960  Biso   1.000  C
  H298     1.0000 0.23482  0.09791  0.29028  Biso   1.000  H
  H299     1.0000 0.37209  0.27692  0.23277  Biso   1.000  H
  H300     1.0000 0.42402  0.21500  0.22260  Biso   1.000  H
  C335     1.0000 0.45188  0.25192  0.32109  Biso   1.000  C
  H301     1.0000 0.37210  0.27692  0.23283  Biso   1.000  H
  C336     1.0000 0.03812  0.94619  0.26299  Biso   1.000  C
  H302     1.0000 0.19673  0.95312  0.66958  Biso   1.000  H
  H303     1.0000 0.19667  0.95312  0.66958  Biso   1.000  H
  C337     1.0000 0.11192  0.03340  0.32900  Biso   1.000  C
  C338     1.0000 0.52131  0.85712  0.32860  Biso   1.000  C
  C339     1.0000 0.48870  0.76078  0.38801  Biso   1.000  C
  C340     1.0000 0.65700  0.98618  0.22119  Biso   1.000  C
  C341     1.0000 0.64943  0.10391  0.22638  Biso   1.000  C
  C342     1.0000 0.64937  0.10391  0.22638  Biso   1.000  C
  C343     1.0000 0.03960  0.11041  0.24431  Biso   1.000  C
  C344     1.0000 0.52140  0.21529  0.34400  Biso   1.000  C
  C345     1.0000 0.43471  0.30739  0.35639  Biso   1.000  C
  O54      1.0000 0.96383  0.97651  0.26651  Biso   1.000  O
  O55      1.0000 0.96377  0.97651  0.26651  Biso   1.000  O
  H304     1.0000 0.05984  0.03570  0.34501  Biso   1.000  H
  C346     1.0000 0.18199  0.03740  0.39461  Biso   1.000  C
  H305     1.0000 0.05978  0.03570  0.34501  Biso   1.000  H
  H306     1.0000 0.50741  0.88779  0.29451  Biso   1.000  H
  C347     1.0000 0.59581  0.86161  0.37139  Biso   1.000  C
  C348     1.0000 0.56319  0.76532  0.43081  Biso   1.000  C
  H307     1.0000 0.45310  0.72709  0.39350  Biso   1.000  H
  H308     1.0000 0.63653  0.94668  0.20302  Biso   1.000  H
  C349     1.0000 0.72632  0.98701  0.27039  Biso   1.000  C
  C350     1.0000 0.71869  0.10469  0.27557  Biso   1.000  C
  H309     1.0000 0.62382  0.14278  0.21178  Biso   1.000  H
  C351     1.0000 0.71870  0.10469  0.27562  Biso   1.000  C
  O56      1.0000 0.96622  0.08521  0.25538  Biso   1.000  O
  H310     1.0000 0.53278  0.17828  0.32049  Biso   1.000  H
  C352     1.0000 0.57372  0.23429  0.40211  Biso   1.000  C
  C353     1.0000 0.48698  0.32629  0.41450  Biso   1.000  C
  H311     1.0000 0.38842  0.33171  0.34118  Biso   1.000  H
  C354     1.0000 0.94292  0.03018  0.22391  Biso   1.000  C
  H312     1.0000 0.17751  0.00000  0.42341  Biso   1.000  H
  H313     1.0000 0.23463  0.03540  0.38051  Biso   1.000  H
  C355     1.0000 0.17623  0.10108  0.43529  Biso   1.000  C
  C356     1.0000 0.17617  0.10108  0.43529  Biso   1.000  C
  H314     1.0000 0.63138  0.89531  0.36581  Biso   1.000  H
  C357     1.0000 0.61672  0.81571  0.42240  Biso   1.000  C
  H315     1.0000 0.57713  0.73470  0.46480  Biso   1.000  H
  H316     1.0000 0.75193  0.94809  0.28499  Biso   1.000  H
  H317     1.0000 0.75187  0.94809  0.28499  Biso   1.000  H
  C358     1.0000 0.75713  0.04629  0.29758  Biso   1.000  C
  C359     1.0000 0.75707  0.04629  0.29758  Biso   1.000  C
  H318     1.0000 0.73923  0.14420  0.29380  Biso   1.000  H
  H319     1.0000 0.62001  0.20992  0.41732  Biso   1.000  H
  C360     1.0000 0.55653  0.28981  0.43731  Biso   1.000  C
  C361     1.0000 0.55647  0.28981  0.43731  Biso   1.000  C
  H320     1.0000 0.47563  0.36340  0.43791  Biso   1.000  H
  H321     1.0000 0.47557  0.36340  0.43791  Biso   1.000  H
  H322     1.0000 0.96860  0.02598  0.18429  Biso   1.000  H
  H323     1.0000 0.88472  0.03091  0.20921  Biso   1.000  H
  H324     1.0000 0.22493  0.10562  0.46857  Biso   1.000  H
  H325     1.0000 0.17342  0.13809  0.40498  Biso   1.000  H
  C362     1.0000 0.10312  0.10210  0.47049  Biso   1.000  C
  H326     1.0000 0.22488  0.10562  0.46862  Biso   1.000  H
  H327     1.0000 0.66634  0.81869  0.45100  Biso   1.000  H
  H328     1.0000 0.66628  0.81869  0.45100  Biso   1.000  H
  H329     1.0000 0.80328  0.04688  0.33041  Biso   1.000  H
  H330     1.0000 0.59131  0.30251  0.47598  Biso   1.000  H
  C363     1.0000 0.11013  0.07500  0.53479  Biso   1.000  C
  C364     1.0000 0.02931  0.12818  0.43952  Biso   1.000  C
  C365     1.0000 0.11007  0.07500  0.53479  Biso   1.000  C
  H331     1.0000 0.15929  0.05762  0.55538  Biso   1.000  H
  C366     1.0000 0.04330  0.07388  0.56792  Biso   1.000  C
  C367     1.0000 0.96249  0.12711  0.47270  Biso   1.000  C
  H332     1.0000 0.02460  0.14630  0.39667  Biso   1.000  H
  H333     1.0000 0.02461  0.14630  0.39672  Biso   1.000  H
  C368     1.0000 0.96948  0.09991  0.53690  Biso   1.000  C
  H334     1.0000 0.04802  0.05581  0.61082  Biso   1.000  H
  H335     1.0000 0.91331  0.14439  0.45201  Biso   1.000  H
  H336     1.0000 0.92489  0.09922  0.55901  Biso   1.000  H
  C369     1.0000 0.05710  0.96982  0.77608  Biso   1.000  C
  O57      1.0000 0.03380  0.91479  0.74461  Biso   1.000  O
  O58      1.0000 0.03618  0.02349  0.73348  Biso   1.000  O
  H337     1.0000 0.03141  0.97402  0.81571  Biso   1.000  H
  H338     1.0000 0.11529  0.96909  0.79078  Biso   1.000  H
  C370     1.0000 0.96042  0.88959  0.75569  Biso   1.000  C
  C371     1.0000 0.96189  0.05381  0.73701  Biso   1.000  C
  C372     1.0000 0.88712  0.91269  0.72039  Biso   1.000  C
  C373     1.0000 0.96072  0.84071  0.80397  Biso   1.000  C
  C374     1.0000 0.96073  0.84071  0.80403  Biso   1.000  C
  C375     1.0000 0.88641  0.02979  0.70720  Biso   1.000  C
  C376     1.0000 0.96691  0.11109  0.77507  Biso   1.000  C
  C377     1.0000 0.96692  0.11109  0.77512  Biso   1.000  C
  C378     1.0000 0.88810  0.96660  0.67099  Biso   1.000  C
  C379     1.0000 0.81410  0.88681  0.73328  Biso   1.000  C
  C380     1.0000 0.88771  0.81479  0.81692  Biso   1.000  C
  O59      1.0000 0.03111  0.82421  0.84748  Biso   1.000  O
  C381     1.0000 0.81598  0.06309  0.71541  Biso   1.000  C
  C382     1.0000 0.89640  0.14429  0.78318  Biso   1.000  C
  O60      1.0000 0.03832  0.13160  0.81440  Biso   1.000  O
  C383     1.0000 0.81802  0.96260  0.60539  Biso   1.000  C
  H339     1.0000 0.94018  0.96430  0.65498  Biso   1.000  H
  C384     1.0000 0.81439  0.83788  0.78152  Biso   1.000  C
  H340     1.0000 0.76519  0.90209  0.70972  Biso   1.000  H
  O61      1.0000 0.89549  0.76220  0.86077  Biso   1.000  O
  O62      1.0000 0.89550  0.76220  0.86082  Biso   1.000  O
  C385     1.0000 0.09291  0.80009  0.81097  Biso   1.000  C
  C386     1.0000 0.09292  0.80009  0.81102  Biso   1.000  C
  C387     1.0000 0.05898  0.75902  0.83862  Biso   1.000  C
  C388     1.0000 0.82093  0.12032  0.75342  Biso   1.000  C
  H341     1.0000 0.76571  0.04712  0.69552  Biso   1.000  H
  O63      1.0000 0.90320  0.20348  0.81999  Biso   1.000  O
  C389     1.0000 0.09500  0.16309  0.77830  Biso   1.000  C
  C390     1.0000 0.82378  0.89892  0.56470  Biso   1.000  C
  H342     1.0000 0.76538  0.96460  0.61948  Biso   1.000  H
  H343     1.0000 0.82250  0.00000  0.57658  Biso   1.000  H
  C391     1.0000 0.74054  0.81020  0.79889  Biso   1.000  C
  C392     1.0000 0.74048  0.81020  0.79889  Biso   1.000  C
  C393     1.0000 0.87753  0.77338  0.92271  Biso   1.000  C
  C394     1.0000 0.87747  0.77338  0.92271  Biso   1.000  C
  C395     1.0000 0.17400  0.78798  0.85629  Biso   1.000  C
  H344     1.0000 0.07409  0.75971  0.78852  Biso   1.000  H
  H345     1.0000 0.10060  0.83158  0.77668  Biso   1.000  H
  H346     1.0000 0.07138  0.75302  0.79350  Biso   1.000  H
  H347     1.0000 0.01948  0.72689  0.84672  Biso   1.000  H
  C396     1.0000 0.13681  0.75360  0.89159  Biso   1.000  C
  C397     1.0000 0.74550  0.15460  0.76530  Biso   1.000  C
  C398     1.0000 0.88958  0.20162  0.88298  Biso   1.000  C
  H348     1.0000 0.09681  0.13912  0.73701  Biso   1.000  H
  H349     1.0000 0.07570  0.20680  0.76601  Biso   1.000  H
  C399     1.0000 0.18279  0.16768  0.81918  Biso   1.000  C
  C400     1.0000 0.89690  0.89790  0.52950  Biso   1.000  C
  H350     1.0000 0.77508  0.89438  0.53142  Biso   1.000  H
  H351     1.0000 0.82659  0.86191  0.59501  Biso   1.000  H
  C401     1.0000 0.71343  0.84379  0.85750  Biso   1.000  C
  H352     1.0000 0.75340  0.76508  0.81309  Biso   1.000  H
  C402     1.0000 0.67343  0.80609  0.73348  Biso   1.000  C
  C403     1.0000 0.71337  0.84379  0.85750  Biso   1.000  C
  C404     1.0000 0.67337  0.80609  0.73348  Biso   1.000  C
  O64      1.0000 0.79918  0.77098  0.93489  Biso   1.000  O
  H353     1.0000 0.90849  0.74232  0.95302  Biso   1.000  H
  H354     1.0000 0.89843  0.81640  0.93640  Biso   1.000  H
  H355     1.0000 0.19881  0.82929  0.87049  Biso   1.000  H
  H356     1.0000 0.21003  0.76571  0.82991  Biso   1.000  H
  C405     1.0000 0.17004  0.74701  0.91742  Biso   1.000  C
  C406     1.0000 0.16998  0.74701  0.91742  Biso   1.000  C
  H357     1.0000 0.16298  0.84462  0.85800  Biso   1.000  H
  H358     1.0000 0.22050  0.79022  0.83751  Biso   1.000  H
  H359     1.0000 0.11478  0.74789  0.92709  Biso   1.000  H
  H360     1.0000 0.16097  0.71068  0.89018  Biso   1.000  H
  H361     1.0000 0.12461  0.76102  0.93650  Biso   1.000  H
  C407     1.0000 0.19400  0.80580  0.87361  Biso   1.000  C
  C408     1.0000 0.72329  0.12999  0.83257  Biso   1.000  C
  H362     1.0000 0.75952  0.20089  0.77180  Biso   1.000  H
  C409     1.0000 0.67528  0.15089  0.70408  Biso   1.000  C
  O65      1.0000 0.81374  0.21119  0.89249  Biso   1.000  O
  H363     1.0000 0.90699  0.15929  0.90171  Biso   1.000  H
  H364     1.0000 0.92348  0.23429  0.90861  Biso   1.000  H
  O66      1.0000 0.81368  0.21119  0.89249  Biso   1.000  O
  H365     1.0000 0.22283  0.18131  0.79219  Biso   1.000  H
  H366     1.0000 0.20021  0.12828  0.84421  Biso   1.000  H
  C410     1.0000 0.15842  0.22052  0.86148  Biso   1.000  C
  H367     1.0000 0.22277  0.18131  0.79219  Biso   1.000  H
  C411     1.0000 0.97070  0.87182  0.56047  Biso   1.000  C
  C412     1.0000 0.97071  0.87182  0.56052  Biso   1.000  C
  C413     1.0000 0.88988  0.92500  0.46520  Biso   1.000  C
  C414     1.0000 0.75100  0.82489  0.92160  Biso   1.000  C
  C415     1.0000 0.66191  0.89780  0.84959  Biso   1.000  C
  H368     1.0000 0.69703  0.78871  0.69627  Biso   1.000  H
  H369     1.0000 0.65292  0.84950  0.72109  Biso   1.000  H
  C416     1.0000 0.60611  0.76351  0.74647  Biso   1.000  C
  H370     1.0000 0.69698  0.78871  0.69632  Biso   1.000  H
  C417     1.0000 0.60612  0.76351  0.74652  Biso   1.000  C
  C418     1.0000 0.22700  0.77538  0.97598  Biso   1.000  C
  H371     1.0000 0.18422  0.70248  0.90971  Biso   1.000  H
  C419     1.0000 0.25600  0.82221  0.93439  Biso   1.000  C
  C420     1.0000 0.76129  0.15841  0.89259  Biso   1.000  C
  C421     1.0000 0.67001  0.07788  0.83419  Biso   1.000  C
  H372     1.0000 0.65491  0.10660  0.69869  Biso   1.000  H
  H373     1.0000 0.69512  0.16329  0.66329  Biso   1.000  H
  C422     1.0000 0.60771  0.19669  0.71581  Biso   1.000  C
  H374     1.0000 0.16109  0.26329  0.84129  Biso   1.000  H
  H375     1.0000 0.10511  0.21339  0.87311  Biso   1.000  H
  C423     1.0000 0.22869  0.20919  0.92331  Biso   1.000  C
  C424     1.0000 0.03753  0.87289  0.52729  Biso   1.000  C
  H376     1.0000 0.97542  0.85370  0.60332  Biso   1.000  H
  C425     1.0000 0.95672  0.92612  0.43207  Biso   1.000  C
  C426     1.0000 0.95673  0.92612  0.43212  Biso   1.000  C
  H377     1.0000 0.84073  0.94238  0.44461  Biso   1.000  H
  C427     1.0000 0.73720  0.86010  0.97799  Biso   1.000  C
  C428     1.0000 0.64799  0.93291  0.90599  Biso   1.000  C
  H378     1.0000 0.63679  0.91030  0.80690  Biso   1.000  H
  H379     1.0000 0.62793  0.72308  0.76722  Biso   1.000  H
  H380     1.0000 0.57600  0.78500  0.77739  Biso   1.000  H
  C429     1.0000 0.54813  0.74808  0.67890  Biso   1.000  C
  C430     1.0000 0.54807  0.74808  0.67890  Biso   1.000  C
  O67      1.0000 0.21001  0.84408  0.98489  Biso   1.000  O
  H381     1.0000 0.28269  0.77050  0.96848  Biso   1.000  H
  H382     1.0000 0.28803  0.78402  0.95000  Biso   1.000  H
  H383     1.0000 0.22203  0.75170  0.01702  Biso   1.000  H
  H384     1.0000 0.29203  0.85639  0.92391  Biso   1.000  H
  C431     1.0000 0.74602  0.13458  0.95418  Biso   1.000  C
  C432     1.0000 0.65468  0.05410  0.89582  Biso   1.000  C
  H385     1.0000 0.64474  0.05899  0.79431  Biso   1.000  H
  H386     1.0000 0.64468  0.05899  0.79431  Biso   1.000  H
  H387     1.0000 0.62809  0.24108  0.71762  Biso   1.000  H
  H388     1.0000 0.59301  0.18692  0.75931  Biso   1.000  H
  C433     1.0000 0.53220  0.19332  0.66309  Biso   1.000  C
  H389     1.0000 0.23072  0.24581  0.95418  Biso   1.000  H
  H390     1.0000 0.28032  0.20709  0.90740  Biso   1.000  H
  O68      1.0000 0.21619  0.14888  0.95891  Biso   1.000  O
  H391     1.0000 0.08670  0.85561  0.54798  Biso   1.000  H
  C434     1.0000 0.03053  0.90009  0.46309  Biso   1.000  C
  C435     1.0000 0.03047  0.90009  0.46309  Biso   1.000  C
  H392     1.0000 0.95199  0.94419  0.38917  Biso   1.000  H
  H393     1.0000 0.95200  0.94419  0.38922  Biso   1.000  H
  C436     1.0000 0.68573  0.91411  0.97009  Biso   1.000  C
  C437     1.0000 0.68567  0.91411  0.97009  Biso   1.000  C
  O69      1.0000 0.78383  0.85112  0.04108  Biso   1.000  O
  C438     1.0000 0.60039  0.99512  0.90070  Biso   1.000  C
  C439     1.0000 0.47862  0.78471  0.65599  Biso   1.000  C
  C440     1.0000 0.56530  0.69261  0.64360  Biso   1.000  C
  C441     1.0000 0.25400  0.86542  0.04582  Biso   1.000  C
  C442     1.0000 0.69268  0.08252  0.95579  Biso   1.000  C
  O70      1.0000 0.79000  0.15592  0.01510  Biso   1.000  O
  C443     1.0000 0.47870  0.14288  0.67140  Biso   1.000  C
  C444     1.0000 0.51132  0.23922  0.61198  Biso   1.000  C
  C445     1.0000 0.26282  0.13990  0.02200  Biso   1.000  C
  H394     1.0000 0.07513  0.90078  0.44099  Biso   1.000  H
  O71      1.0000 0.67231  0.94961  0.02839  Biso   1.000  O
  C446     1.0000 0.77132  0.79081  0.07668  Biso   1.000  C
  H395     1.0000 0.57931  0.99961  0.94310  Biso   1.000  H
  C447     1.0000 0.52372  0.99761  0.84159  Biso   1.000  C
  H396     1.0000 0.46723  0.82172  0.67950  Biso   1.000  H
  C448     1.0000 0.42629  0.76571  0.59788  Biso   1.000  C
  C449     1.0000 0.51303  0.67371  0.58550  Biso   1.000  C
  H397     1.0000 0.61159  0.66829  0.65881  Biso   1.000  H
  C450     1.0000 0.51297  0.67371  0.58550  Biso   1.000  C
  C451     1.0000 0.23872  0.84159  0.10740  Biso   1.000  C
  C452     1.0000 0.30733  0.91748  0.04421  Biso   1.000  C
  C453     1.0000 0.30727  0.91748  0.04421  Biso   1.000  C
  O72      1.0000 0.67739  0.06031  0.01848  Biso   1.000  O
  C454     1.0000 0.77302  0.22462  0.02401  Biso   1.000  C
  C455     1.0000 0.74402  0.17779  0.06561  Biso   1.000  C
  H398     1.0000 0.49260  0.11221  0.70549  Biso   1.000  H
  C456     1.0000 0.40421  0.13839  0.62860  Biso   1.000  C
  C457     1.0000 0.43683  0.23468  0.56918  Biso   1.000  C
  H399     1.0000 0.54691  0.27291  0.60649  Biso   1.000  H
  C458     1.0000 0.43677  0.23468  0.56918  Biso   1.000  C
  C459     1.0000 0.24901  0.17511  0.07839  Biso   1.000  C
  C460     1.0000 0.31428  0.08589  0.02991  Biso   1.000  C
  C461     1.0000 0.71243  0.00171  0.04471  Biso   1.000  C
  C462     1.0000 0.84160  0.77948  0.13852  Biso   1.000  C
  H400     1.0000 0.76929  0.75419  0.04582  Biso   1.000  H
  H401     1.0000 0.71970  0.79291  0.09259  Biso   1.000  H
  H402     1.0000 0.54029  0.98530  0.79939  Biso   1.000  H
  C463     1.0000 0.45803  0.95268  0.85559  Biso   1.000  C
  C464     1.0000 0.45797  0.95268  0.85559  Biso   1.000  C
  H403     1.0000 0.50303  0.04190  0.83701  Biso   1.000  H
  H404     1.0000 0.38000  0.79008  0.58268  Biso   1.000  H
  C465     1.0000 0.44348  0.71019  0.56269  Biso   1.000  C
  H405     1.0000 0.52438  0.63660  0.56208  Biso   1.000  H
  O73      1.0000 0.18628  0.78881  0.10750  Biso   1.000  O
  C466     1.0000 0.27673  0.87001  0.16742  Biso   1.000  C
  O74      1.0000 0.32263  0.93969  0.98152  Biso   1.000  O
  C467     1.0000 0.34533  0.94590  0.10418  Biso   1.000  C
  C468     1.0000 0.34527  0.94590  0.10418  Biso   1.000  C
  H406     1.0000 0.77799  0.24830  0.98298  Biso   1.000  H
  C469     1.0000 0.82997  0.25299  0.08257  Biso   1.000  C
  H407     1.0000 0.71733  0.22950  0.03152  Biso   1.000  H
  C470     1.0000 0.82998  0.25299  0.08262  Biso   1.000  C
  H408     1.0000 0.71199  0.21598  0.05000  Biso   1.000  H
  C471     1.0000 0.80602  0.19420  0.12638  Biso   1.000  C
  H409     1.0000 0.70798  0.14361  0.07608  Biso   1.000  H
  H410     1.0000 0.36863  0.10469  0.63419  Biso   1.000  H
  C472     1.0000 0.38329  0.18429  0.57759  Biso   1.000  C
  H411     1.0000 0.36857  0.10469  0.63419  Biso   1.000  H
  H412     1.0000 0.42289  0.26530  0.53519  Biso   1.000  H
  O75      1.0000 0.20084  0.22902  0.06510  Biso   1.000  O
  C473     1.0000 0.28658  0.15621  0.14249  Biso   1.000  C
  O76      1.0000 0.20078  0.22902  0.06510  Biso   1.000  O
  O77      1.0000 0.32770  0.05039  0.97160  Biso   1.000  O
  C474     1.0000 0.35203  0.06709  0.09400  Biso   1.000  C
  H413     1.0000 0.76481  0.99741  0.03051  Biso   1.000  H
  H414     1.0000 0.72201  0.00498  0.09340  Biso   1.000  H
  C475     1.0000 0.81722  0.83232  0.18081  Biso   1.000  C
  H415     1.0000 0.83893  0.73671  0.15871  Biso   1.000  H
  H416     1.0000 0.89491  0.78661  0.12688  Biso   1.000  H
  H417     1.0000 0.47859  0.90830  0.85891  Biso   1.000  H
  H418     1.0000 0.44320  0.96411  0.89869  Biso   1.000  H
  C476     1.0000 0.38139  0.95542  0.80080  Biso   1.000  C
  H419     1.0000 0.40871  0.69749  0.52402  Biso   1.000  H
  C477     1.0000 0.11044  0.79838  0.11701  Biso   1.000  C
  C478     1.0000 0.11038  0.79838  0.11701  Biso   1.000  C
  C479     1.0000 0.25452  0.84540  0.23469  Biso   1.000  C
  C480     1.0000 0.33000  0.92212  0.16581  Biso   1.000  C
  C481     1.0000 0.28759  0.99829  0.95528  Biso   1.000  C
  C482     1.0000 0.39963  0.00488  0.09929  Biso   1.000  C
  C483     1.0000 0.39957  0.00488  0.09929  Biso   1.000  C
  C484     1.0000 0.82602  0.21202  0.14370  Biso   1.000  C
  H420     1.0000 0.88523  0.25211  0.07291  Biso   1.000  H
  H421     1.0000 0.81579  0.29752  0.09028  Biso   1.000  H
  H422     1.0000 0.83899  0.28932  0.10981  Biso   1.000  H
  H423     1.0000 0.87541  0.23898  0.06349  Biso   1.000  H
  H424     1.0000 0.78999  0.23429  0.17009  Biso   1.000  H
  C485     1.0000 0.86320  0.24640  0.10840  Biso   1.000  C
  H425     1.0000 0.83703  0.15538  0.14199  Biso   1.000  H
  H426     1.0000 0.77951  0.20978  0.16248  Biso   1.000  H
  H427     1.0000 0.33368  0.18131  0.54899  Biso   1.000  H
  C486     1.0000 0.12248  0.22662  0.07729  Biso   1.000  C
  C487     1.0000 0.25948  0.18980  0.20110  Biso   1.000  C
  C488     1.0000 0.33811  0.10220  0.15040  Biso   1.000  C
  C489     1.0000 0.90501  0.83691  0.22170  Biso   1.000  C
  H428     1.0000 0.77718  0.81869  0.20780  Biso   1.000  H
  H429     1.0000 0.79981  0.87172  0.15579  Biso   1.000  H
  C490     1.0000 0.35058  0.89609  0.77361  Biso   1.000  C
  C491     1.0000 0.34301  0.01382  0.77880  Biso   1.000  C
  O78      1.0000 0.09681  0.79652  0.18001  Biso   1.000  O
  H430     1.0000 0.09302  0.84071  0.09828  Biso   1.000  H
  H431     1.0000 0.07653  0.76571  0.09139  Biso   1.000  H
  H432     1.0000 0.07647  0.76571  0.09139  Biso   1.000  H
  C492     1.0000 0.17909  0.87968  0.24657  Biso   1.000  C
  H433     1.0000 0.24050  0.79911  0.22819  Biso   1.000  H
  C493     1.0000 0.32473  0.84911  0.29592  Biso   1.000  C
  C494     1.0000 0.17910  0.87968  0.24662  Biso   1.000  C
  C495     1.0000 0.32467  0.84911  0.29592  Biso   1.000  C
  H434     1.0000 0.35528  0.94101  0.20569  Biso   1.000  H
  H435     1.0000 0.27801  0.99502  0.90659  Biso   1.000  H
  H436     1.0000 0.23520  0.00259  0.96948  Biso   1.000  H
  H437     1.0000 0.42070  0.00039  0.05689  Biso   1.000  H
  C496     1.0000 0.47629  0.00239  0.15840  Biso   1.000  C
  C497     1.0000 0.90711  0.19991  0.18902  Biso   1.000  C
  H438     1.0000 0.80120  0.17071  0.12950  Biso   1.000  H
  C498     1.0000 0.94098  0.24098  0.16138  Biso   1.000  C
  H439     1.0000 0.09152  0.25768  0.04697  Biso   1.000  H
  H440     1.0000 0.10159  0.18360  0.06359  Biso   1.000  H
  O79      1.0000 0.10452  0.23780  0.13922  Biso   1.000  O
  H441     1.0000 0.09153  0.25768  0.04703  Biso   1.000  H
  C499     1.0000 0.18562  0.16212  0.21847  Biso   1.000  C
  H442     1.0000 0.24661  0.23492  0.18690  Biso   1.000  H
  C500     1.0000 0.32658  0.19391  0.26651  Biso   1.000  C
  C501     1.0000 0.18563  0.16212  0.21853  Biso   1.000  C
  H443     1.0000 0.36323  0.08970  0.19310  Biso   1.000  H
  O80      1.0000 0.96169  0.86840  0.18559  Biso   1.000  O
  H444     1.0000 0.90320  0.86088  0.26299  Biso   1.000  H
  H445     1.0000 0.92431  0.79320  0.23398  Biso   1.000  H
  C502     1.0000 0.28133  0.89531  0.72442  Biso   1.000  C
  H446     1.0000 0.37620  0.85722  0.78821  Biso   1.000  H
  H447     1.0000 0.36348  0.05332  0.79698  Biso   1.000  H
  C503     1.0000 0.27370  0.01299  0.72960  Biso   1.000  C
  C504     1.0000 0.10361  0.85571  0.21681  Biso   1.000  C
  C505     1.0000 0.18403  0.93691  0.28459  Biso   1.000  C
  C506     1.0000 0.18397  0.93691  0.28459  Biso   1.000  C
  H448     1.0000 0.34511  0.89340  0.30130  Biso   1.000  H
  H449     1.0000 0.30490  0.83671  0.33670  Biso   1.000  H
  C507     1.0000 0.39231  0.80331  0.28418  Biso   1.000  C
  H450     1.0000 0.49699  0.95810  0.16299  Biso   1.000  H
  H451     1.0000 0.45972  0.01470  0.20060  Biso   1.000  H
  C508     1.0000 0.54198  0.04732  0.14441  Biso   1.000  C
  O81      1.0000 0.96891  0.17579  0.15251  Biso   1.000  O
  H452     1.0000 0.92592  0.24029  0.21148  Biso   1.000  H
  H453     1.0000 0.89942  0.16842  0.22331  Biso   1.000  H
  H454     1.0000 0.92863  0.24698  0.20649  Biso   1.000  H
  H455     1.0000 0.98054  0.27311  0.15332  Biso   1.000  H
  C509     1.0000 0.11230  0.18521  0.18308  Biso   1.000  C
  C510     1.0000 0.18591  0.11319  0.26671  Biso   1.000  C
  H456     1.0000 0.30299  0.21129  0.30372  Biso   1.000  H
  H457     1.0000 0.34710  0.15050  0.27890  Biso   1.000  H
  C511     1.0000 0.39391  0.23649  0.25352  Biso   1.000  C
  C512     1.0000 0.03310  0.88891  0.22492  Biso   1.000  C
  C513     1.0000 0.24289  0.95371  0.70241  Biso   1.000  C
  H458     1.0000 0.26079  0.85580  0.70619  Biso   1.000  H
  H459     1.0000 0.24808  0.05191  0.71500  Biso   1.000  H
  C514     1.0000 0.11361  0.97021  0.29279  Biso   1.000  C
  H460     1.0000 0.23430  0.95288  0.30448  Biso   1.000  H
  H461     1.0000 0.37193  0.75892  0.28237  Biso   1.000  H
  H462     1.0000 0.40700  0.81308  0.24068  Biso   1.000  H
  C515     1.0000 0.46782  0.80668  0.33690  Biso   1.000  C
  H463     1.0000 0.37188  0.75892  0.28242  Biso   1.000  H
  H464     1.0000 0.52142  0.09170  0.14108  Biso   1.000  H
  H465     1.0000 0.55682  0.03589  0.10130  Biso   1.000  H
  C516     1.0000 0.61862  0.04458  0.19919  Biso   1.000  C
  C517     1.0000 0.03930  0.15929  0.19602  Biso   1.000  C
  C518     1.0000 0.11289  0.08731  0.27960  Biso   1.000  C
  H466     1.0000 0.23482  0.09791  0.29028  Biso   1.000  H
  H467     1.0000 0.37209  0.27692  0.23277  Biso   1.000  H
  H468     1.0000 0.42402  0.21500  0.22260  Biso   1.000  H
  C519     1.0000 0.45188  0.25192  0.32109  Biso   1.000  C
  H469     1.0000 0.37210  0.27692  0.23283  Biso   1.000  H
  C520     1.0000 0.03812  0.94619  0.26299  Biso   1.000  C
  H470     1.0000 0.19673  0.95312  0.66958  Biso   1.000  H
  H471     1.0000 0.19667  0.95312  0.66958  Biso   1.000  H
  C521     1.0000 0.11192  0.03340  0.32900  Biso   1.000  C
  C522     1.0000 0.52131  0.85712  0.32860  Biso   1.000  C
  C523     1.0000 0.48870  0.76078  0.38801  Biso   1.000  C
  C524     1.0000 0.65700  0.98618  0.22119  Biso   1.000  C
  C525     1.0000 0.64943  0.10391  0.22638  Biso   1.000  C
  C526     1.0000 0.64937  0.10391  0.22638  Biso   1.000  C
  C527     1.0000 0.03960  0.11041  0.24431  Biso   1.000  C
  C528     1.0000 0.52140  0.21529  0.34400  Biso   1.000  C
  C529     1.0000 0.43471  0.30739  0.35639  Biso   1.000  C
  O82      1.0000 0.96383  0.97651  0.26651  Biso   1.000  O
  O83      1.0000 0.96377  0.97651  0.26651  Biso   1.000  O
  H472     1.0000 0.05984  0.03570  0.34501  Biso   1.000  H
  C530     1.0000 0.18199  0.03740  0.39461  Biso   1.000  C
  H473     1.0000 0.05978  0.03570  0.34501  Biso   1.000  H
  H474     1.0000 0.50741  0.88779  0.29451  Biso   1.000  H
  C531     1.0000 0.59581  0.86161  0.37139  Biso   1.000  C
  C532     1.0000 0.56319  0.76532  0.43081  Biso   1.000  C
  H475     1.0000 0.45310  0.72709  0.39350  Biso   1.000  H
  H476     1.0000 0.63653  0.94668  0.20302  Biso   1.000  H
  C533     1.0000 0.72632  0.98701  0.27039  Biso   1.000  C
  C534     1.0000 0.71869  0.10469  0.27557  Biso   1.000  C
  H477     1.0000 0.62382  0.14278  0.21178  Biso   1.000  H
  C535     1.0000 0.71870  0.10469  0.27562  Biso   1.000  C
  O84      1.0000 0.96622  0.08521  0.25538  Biso   1.000  O
  H478     1.0000 0.53278  0.17828  0.32049  Biso   1.000  H
  C536     1.0000 0.57372  0.23429  0.40211  Biso   1.000  C
  C537     1.0000 0.48698  0.32629  0.41450  Biso   1.000  C
  H479     1.0000 0.38842  0.33171  0.34118  Biso   1.000  H
  C538     1.0000 0.94292  0.03018  0.22391  Biso   1.000  C
  H480     1.0000 0.17751  0.00000  0.42341  Biso   1.000  H
  H481     1.0000 0.23463  0.03540  0.38051  Biso   1.000  H
  C539     1.0000 0.17623  0.10108  0.43529  Biso   1.000  C
  C540     1.0000 0.17617  0.10108  0.43529  Biso   1.000  C
  H482     1.0000 0.63138  0.89531  0.36581  Biso   1.000  H
  C541     1.0000 0.61672  0.81571  0.42240  Biso   1.000  C
  H483     1.0000 0.57713  0.73470  0.46480  Biso   1.000  H
  H484     1.0000 0.75193  0.94809  0.28499  Biso   1.000  H
  H485     1.0000 0.75187  0.94809  0.28499  Biso   1.000  H
  C542     1.0000 0.75713  0.04629  0.29758  Biso   1.000  C
  C543     1.0000 0.75707  0.04629  0.29758  Biso   1.000  C
  H486     1.0000 0.73923  0.14420  0.29380  Biso   1.000  H
  H487     1.0000 0.62001  0.20992  0.41732  Biso   1.000  H
  C544     1.0000 0.55653  0.28981  0.43731  Biso   1.000  C
  C545     1.0000 0.55647  0.28981  0.43731  Biso   1.000  C
  H488     1.0000 0.47563  0.36340  0.43791  Biso   1.000  H
  H489     1.0000 0.47557  0.36340  0.43791  Biso   1.000  H
  H490     1.0000 0.96860  0.02598  0.18429  Biso   1.000  H
  H491     1.0000 0.88472  0.03091  0.20921  Biso   1.000  H
  H492     1.0000 0.22493  0.10562  0.46857  Biso   1.000  H
  H493     1.0000 0.17342  0.13809  0.40498  Biso   1.000  H
  C546     1.0000 0.10312  0.10210  0.47049  Biso   1.000  C
  H494     1.0000 0.22488  0.10562  0.46862  Biso   1.000  H
  H495     1.0000 0.66634  0.81869  0.45100  Biso   1.000  H
  H496     1.0000 0.66628  0.81869  0.45100  Biso   1.000  H
  H497     1.0000 0.80328  0.04688  0.33041  Biso   1.000  H
  H498     1.0000 0.59131  0.30251  0.47598  Biso   1.000  H
  C547     1.0000 0.11013  0.07500  0.53479  Biso   1.000  C
  C548     1.0000 0.02931  0.12818  0.43952  Biso   1.000  C
  C549     1.0000 0.11007  0.07500  0.53479  Biso   1.000  C
  H499     1.0000 0.15929  0.05762  0.55538  Biso   1.000  H
  C550     1.0000 0.04330  0.07388  0.56792  Biso   1.000  C
  C551     1.0000 0.96249  0.12711  0.47270  Biso   1.000  C
  H500     1.0000 0.02460  0.14630  0.39667  Biso   1.000  H
  H501     1.0000 0.02461  0.14630  0.39672  Biso   1.000  H
  C552     1.0000 0.96948  0.09991  0.53690  Biso   1.000  C
  H502     1.0000 0.04802  0.05581  0.61082  Biso   1.000  H
  H503     1.0000 0.91331  0.14439  0.45201  Biso   1.000  H
  H504     1.0000 0.92489  0.09922  0.55901  Biso   1.000  H
  C553     1.0000 0.05710  0.96982  0.77608  Biso   1.000  C
  O85      1.0000 0.03380  0.91479  0.74461  Biso   1.000  O
  O86      1.0000 0.03618  0.02349  0.73348  Biso   1.000  O
  H505     1.0000 0.03141  0.97402  0.81571  Biso   1.000  H
  H506     1.0000 0.11529  0.96909  0.79078  Biso   1.000  H
  C554     1.0000 0.96042  0.88959  0.75569  Biso   1.000  C
  C555     1.0000 0.96189  0.05381  0.73701  Biso   1.000  C
  C556     1.0000 0.88712  0.91269  0.72039  Biso   1.000  C
  C557     1.0000 0.96072  0.84071  0.80397  Biso   1.000  C
  C558     1.0000 0.96073  0.84071  0.80403  Biso   1.000  C
  C559     1.0000 0.88641  0.02979  0.70720  Biso   1.000  C
  C560     1.0000 0.96691  0.11109  0.77507  Biso   1.000  C
  C561     1.0000 0.96692  0.11109  0.77512  Biso   1.000  C
  C562     1.0000 0.88810  0.96660  0.67099  Biso   1.000  C
  C563     1.0000 0.81410  0.88681  0.73328  Biso   1.000  C
  C564     1.0000 0.88771  0.81479  0.81692  Biso   1.000  C
  O87      1.0000 0.03111  0.82421  0.84748  Biso   1.000  O
  C565     1.0000 0.81598  0.06309  0.71541  Biso   1.000  C
  C566     1.0000 0.89640  0.14429  0.78318  Biso   1.000  C
  O88      1.0000 0.03832  0.13160  0.81440  Biso   1.000  O
  C567     1.0000 0.81802  0.96260  0.60539  Biso   1.000  C
  H507     1.0000 0.94018  0.96430  0.65498  Biso   1.000  H
  C568     1.0000 0.81439  0.83788  0.78152  Biso   1.000  C
  H508     1.0000 0.76519  0.90209  0.70972  Biso   1.000  H
  O89      1.0000 0.89549  0.76220  0.86077  Biso   1.000  O
  O90      1.0000 0.89550  0.76220  0.86082  Biso   1.000  O
  C569     1.0000 0.09291  0.80009  0.81097  Biso   1.000  C
  C570     1.0000 0.09292  0.80009  0.81102  Biso   1.000  C
  C571     1.0000 0.05898  0.75902  0.83862  Biso   1.000  C
  C572     1.0000 0.82093  0.12032  0.75342  Biso   1.000  C
  H509     1.0000 0.76571  0.04712  0.69552  Biso   1.000  H
  O91      1.0000 0.90320  0.20348  0.81999  Biso   1.000  O
  C573     1.0000 0.09500  0.16309  0.77830  Biso   1.000  C
  C574     1.0000 0.82378  0.89892  0.56470  Biso   1.000  C
  H510     1.0000 0.76538  0.96460  0.61948  Biso   1.000  H
  H511     1.0000 0.82250  0.00000  0.57658  Biso   1.000  H
  C575     1.0000 0.74054  0.81020  0.79889  Biso   1.000  C
  C576     1.0000 0.74048  0.81020  0.79889  Biso   1.000  C
  C577     1.0000 0.87753  0.77338  0.92271  Biso   1.000  C
  C578     1.0000 0.87747  0.77338  0.92271  Biso   1.000  C
  C579     1.0000 0.17400  0.78798  0.85629  Biso   1.000  C
  H512     1.0000 0.07409  0.75971  0.78852  Biso   1.000  H
  H513     1.0000 0.10060  0.83158  0.77668  Biso   1.000  H
  H514     1.0000 0.07138  0.75302  0.79350  Biso   1.000  H
  H515     1.0000 0.01948  0.72689  0.84672  Biso   1.000  H
  C580     1.0000 0.13681  0.75360  0.89159  Biso   1.000  C
  C581     1.0000 0.74550  0.15460  0.76530  Biso   1.000  C
  C582     1.0000 0.88958  0.20162  0.88298  Biso   1.000  C
  H516     1.0000 0.09681  0.13912  0.73701  Biso   1.000  H
  H517     1.0000 0.07570  0.20680  0.76601  Biso   1.000  H
  C583     1.0000 0.18279  0.16768  0.81918  Biso   1.000  C
  C584     1.0000 0.89690  0.89790  0.52950  Biso   1.000  C
  H518     1.0000 0.77508  0.89438  0.53142  Biso   1.000  H
  H519     1.0000 0.82659  0.86191  0.59501  Biso   1.000  H
  C585     1.0000 0.71343  0.84379  0.85750  Biso   1.000  C
  H520     1.0000 0.75340  0.76508  0.81309  Biso   1.000  H
  C586     1.0000 0.67343  0.80609  0.73348  Biso   1.000  C
  C587     1.0000 0.71337  0.84379  0.85750  Biso   1.000  C
  C588     1.0000 0.67337  0.80609  0.73348  Biso   1.000  C
  O92      1.0000 0.79918  0.77098  0.93489  Biso   1.000  O
  H521     1.0000 0.90849  0.74232  0.95302  Biso   1.000  H
  H522     1.0000 0.89843  0.81640  0.93640  Biso   1.000  H
  H523     1.0000 0.19881  0.82929  0.87049  Biso   1.000  H
  H524     1.0000 0.21003  0.76571  0.82991  Biso   1.000  H
  C589     1.0000 0.17004  0.74701  0.91742  Biso   1.000  C
  C590     1.0000 0.16998  0.74701  0.91742  Biso   1.000  C
  H525     1.0000 0.16298  0.84462  0.85800  Biso   1.000  H
  H526     1.0000 0.22050  0.79022  0.83751  Biso   1.000  H
  H527     1.0000 0.11478  0.74789  0.92709  Biso   1.000  H
  H528     1.0000 0.16097  0.71068  0.89018  Biso   1.000  H
  H529     1.0000 0.12461  0.76102  0.93650  Biso   1.000  H
  C591     1.0000 0.19400  0.80580  0.87361  Biso   1.000  C
  C592     1.0000 0.72329  0.12999  0.83257  Biso   1.000  C
  H530     1.0000 0.75952  0.20089  0.77180  Biso   1.000  H
  C593     1.0000 0.67528  0.15089  0.70408  Biso   1.000  C
  O93      1.0000 0.81374  0.21119  0.89249  Biso   1.000  O
  H531     1.0000 0.90699  0.15929  0.90171  Biso   1.000  H
  H532     1.0000 0.92348  0.23429  0.90861  Biso   1.000  H
  O94      1.0000 0.81368  0.21119  0.89249  Biso   1.000  O
  H533     1.0000 0.22283  0.18131  0.79219  Biso   1.000  H
  H534     1.0000 0.20021  0.12828  0.84421  Biso   1.000  H
  C594     1.0000 0.15842  0.22052  0.86148  Biso   1.000  C
  H535     1.0000 0.22277  0.18131  0.79219  Biso   1.000  H
  C595     1.0000 0.97070  0.87182  0.56047  Biso   1.000  C
  C596     1.0000 0.97071  0.87182  0.56052  Biso   1.000  C
  C597     1.0000 0.88988  0.92500  0.46520  Biso   1.000  C
  C598     1.0000 0.75100  0.82489  0.92160  Biso   1.000  C
  C599     1.0000 0.66191  0.89780  0.84959  Biso   1.000  C
  H536     1.0000 0.69703  0.78871  0.69627  Biso   1.000  H
  H537     1.0000 0.65292  0.84950  0.72109  Biso   1.000  H
  C600     1.0000 0.60611  0.76351  0.74647  Biso   1.000  C
  H538     1.0000 0.69698  0.78871  0.69632  Biso   1.000  H
  C601     1.0000 0.60612  0.76351  0.74652  Biso   1.000  C
  C602     1.0000 0.22700  0.77538  0.97598  Biso   1.000  C
  H539     1.0000 0.18422  0.70248  0.90971  Biso   1.000  H
  C603     1.0000 0.25600  0.82221  0.93439  Biso   1.000  C
  C604     1.0000 0.76129  0.15841  0.89259  Biso   1.000  C
  C605     1.0000 0.67001  0.07788  0.83419  Biso   1.000  C
  H540     1.0000 0.65491  0.10660  0.69869  Biso   1.000  H
  H541     1.0000 0.69512  0.16329  0.66329  Biso   1.000  H
  C606     1.0000 0.60771  0.19669  0.71581  Biso   1.000  C
  H542     1.0000 0.16109  0.26329  0.84129  Biso   1.000  H
  H543     1.0000 0.10511  0.21339  0.87311  Biso   1.000  H
  C607     1.0000 0.22869  0.20919  0.92331  Biso   1.000  C
  C608     1.0000 0.03753  0.87289  0.52729  Biso   1.000  C
  H544     1.0000 0.97542  0.85370  0.60332  Biso   1.000  H
  C609     1.0000 0.95672  0.92612  0.43207  Biso   1.000  C
  C610     1.0000 0.95673  0.92612  0.43212  Biso   1.000  C
  H545     1.0000 0.84073  0.94238  0.44461  Biso   1.000  H
  C611     1.0000 0.73720  0.86010  0.97799  Biso   1.000  C
  C612     1.0000 0.64799  0.93291  0.90599  Biso   1.000  C
  H546     1.0000 0.63679  0.91030  0.80690  Biso   1.000  H
  H547     1.0000 0.62793  0.72308  0.76722  Biso   1.000  H
  H548     1.0000 0.57600  0.78500  0.77739  Biso   1.000  H
  C613     1.0000 0.54813  0.74808  0.67890  Biso   1.000  C
  C614     1.0000 0.54807  0.74808  0.67890  Biso   1.000  C
  O95      1.0000 0.21001  0.84408  0.98489  Biso   1.000  O
  H549     1.0000 0.28269  0.77050  0.96848  Biso   1.000  H
  H550     1.0000 0.28803  0.78402  0.95000  Biso   1.000  H
  H551     1.0000 0.22203  0.75170  0.01702  Biso   1.000  H
  H552     1.0000 0.29203  0.85639  0.92391  Biso   1.000  H
  C615     1.0000 0.74602  0.13458  0.95418  Biso   1.000  C
  C616     1.0000 0.65468  0.05410  0.89582  Biso   1.000  C
  H553     1.0000 0.64474  0.05899  0.79431  Biso   1.000  H
  H554     1.0000 0.64468  0.05899  0.79431  Biso   1.000  H
  H555     1.0000 0.62809  0.24108  0.71762  Biso   1.000  H
  H556     1.0000 0.59301  0.18692  0.75931  Biso   1.000  H
  C617     1.0000 0.53220  0.19332  0.66309  Biso   1.000  C
  H557     1.0000 0.23072  0.24581  0.95418  Biso   1.000  H
  H558     1.0000 0.28032  0.20709  0.90740  Biso   1.000  H
  O96      1.0000 0.21619  0.14888  0.95891  Biso   1.000  O
  H559     1.0000 0.08670  0.85561  0.54798  Biso   1.000  H
  C618     1.0000 0.03053  0.90009  0.46309  Biso   1.000  C
  C619     1.0000 0.03047  0.90009  0.46309  Biso   1.000  C
  H560     1.0000 0.95199  0.94419  0.38917  Biso   1.000  H
  H561     1.0000 0.95200  0.94419  0.38922  Biso   1.000  H
  C620     1.0000 0.68573  0.91411  0.97009  Biso   1.000  C
  C621     1.0000 0.68567  0.91411  0.97009  Biso   1.000  C
  O97      1.0000 0.78383  0.85112  0.04108  Biso   1.000  O
  C622     1.0000 0.60039  0.99512  0.90070  Biso   1.000  C
  C623     1.0000 0.47862  0.78471  0.65599  Biso   1.000  C
  C624     1.0000 0.56530  0.69261  0.64360  Biso   1.000  C
  C625     1.0000 0.25400  0.86542  0.04582  Biso   1.000  C
  C626     1.0000 0.69268  0.08252  0.95579  Biso   1.000  C
  O98      1.0000 0.79000  0.15592  0.01510  Biso   1.000  O
  C627     1.0000 0.47870  0.14288  0.67140  Biso   1.000  C
  C628     1.0000 0.51132  0.23922  0.61198  Biso   1.000  C
  C629     1.0000 0.26282  0.13990  0.02200  Biso   1.000  C
  H562     1.0000 0.07513  0.90078  0.44099  Biso   1.000  H
  O99      1.0000 0.67231  0.94961  0.02839  Biso   1.000  O
  C630     1.0000 0.77132  0.79081  0.07668  Biso   1.000  C
  H563     1.0000 0.57931  0.99961  0.94310  Biso   1.000  H
  C631     1.0000 0.52372  0.99761  0.84159  Biso   1.000  C
  H564     1.0000 0.46723  0.82172  0.67950  Biso   1.000  H
  C632     1.0000 0.42629  0.76571  0.59788  Biso   1.000  C
  C633     1.0000 0.51303  0.67371  0.58550  Biso   1.000  C
  H565     1.0000 0.61159  0.66829  0.65881  Biso   1.000  H
  C634     1.0000 0.51297  0.67371  0.58550  Biso   1.000  C
  C635     1.0000 0.23872  0.84159  0.10740  Biso   1.000  C
  C636     1.0000 0.30733  0.91748  0.04421  Biso   1.000  C
  C637     1.0000 0.30727  0.91748  0.04421  Biso   1.000  C
  O100     1.0000 0.67739  0.06031  0.01848  Biso   1.000  O
  C638     1.0000 0.77302  0.22462  0.02401  Biso   1.000  C
  C639     1.0000 0.74402  0.17779  0.06561  Biso   1.000  C
  H566     1.0000 0.49260  0.11221  0.70549  Biso   1.000  H
  C640     1.0000 0.40421  0.13839  0.62860  Biso   1.000  C
  C641     1.0000 0.43683  0.23468  0.56918  Biso   1.000  C
  H567     1.0000 0.54691  0.27291  0.60649  Biso   1.000  H
  C642     1.0000 0.43677  0.23468  0.56918  Biso   1.000  C
  C643     1.0000 0.24901  0.17511  0.07839  Biso   1.000  C
  C644     1.0000 0.31428  0.08589  0.02991  Biso   1.000  C
  C645     1.0000 0.71243  0.00171  0.04471  Biso   1.000  C
  C646     1.0000 0.84160  0.77948  0.13852  Biso   1.000  C
  H568     1.0000 0.76929  0.75419  0.04582  Biso   1.000  H
  H569     1.0000 0.71970  0.79291  0.09259  Biso   1.000  H
  H570     1.0000 0.54029  0.98530  0.79939  Biso   1.000  H
  C647     1.0000 0.45803  0.95268  0.85559  Biso   1.000  C
  C648     1.0000 0.45797  0.95268  0.85559  Biso   1.000  C
  H571     1.0000 0.50303  0.04190  0.83701  Biso   1.000  H
  H572     1.0000 0.38000  0.79008  0.58268  Biso   1.000  H
  C649     1.0000 0.44348  0.71019  0.56269  Biso   1.000  C
  H573     1.0000 0.52438  0.63660  0.56208  Biso   1.000  H
  O101     1.0000 0.18628  0.78881  0.10750  Biso   1.000  O
  C650     1.0000 0.27673  0.87001  0.16742  Biso   1.000  C
  O102     1.0000 0.32263  0.93969  0.98152  Biso   1.000  O
  C651     1.0000 0.34533  0.94590  0.10418  Biso   1.000  C
  C652     1.0000 0.34527  0.94590  0.10418  Biso   1.000  C
  H574     1.0000 0.77799  0.24830  0.98298  Biso   1.000  H
  C653     1.0000 0.82997  0.25299  0.08257  Biso   1.000  C
  H575     1.0000 0.71733  0.22950  0.03152  Biso   1.000  H
  C654     1.0000 0.82998  0.25299  0.08262  Biso   1.000  C
  H576     1.0000 0.71199  0.21598  0.05000  Biso   1.000  H
  C655     1.0000 0.80602  0.19420  0.12638  Biso   1.000  C
  H577     1.0000 0.70798  0.14361  0.07608  Biso   1.000  H
  H578     1.0000 0.36863  0.10469  0.63419  Biso   1.000  H
  C656     1.0000 0.38329  0.18429  0.57759  Biso   1.000  C
  H579     1.0000 0.36857  0.10469  0.63419  Biso   1.000  H
  H580     1.0000 0.42289  0.26530  0.53519  Biso   1.000  H
  O103     1.0000 0.20084  0.22902  0.06510  Biso   1.000  O
  C657     1.0000 0.28658  0.15621  0.14249  Biso   1.000  C
  O104     1.0000 0.20078  0.22902  0.06510  Biso   1.000  O
  O105     1.0000 0.32770  0.05039  0.97160  Biso   1.000  O
  C658     1.0000 0.35203  0.06709  0.09400  Biso   1.000  C
  H581     1.0000 0.76481  0.99741  0.03051  Biso   1.000  H
  H582     1.0000 0.72201  0.00498  0.09340  Biso   1.000  H
  C659     1.0000 0.81722  0.83232  0.18081  Biso   1.000  C
  H583     1.0000 0.83893  0.73671  0.15871  Biso   1.000  H
  H584     1.0000 0.89491  0.78661  0.12688  Biso   1.000  H
  H585     1.0000 0.47859  0.90830  0.85891  Biso   1.000  H
  H586     1.0000 0.44320  0.96411  0.89869  Biso   1.000  H
  C660     1.0000 0.38139  0.95542  0.80080  Biso   1.000  C
  H587     1.0000 0.40871  0.69749  0.52402  Biso   1.000  H
  C661     1.0000 0.11044  0.79838  0.11701  Biso   1.000  C
  C662     1.0000 0.11038  0.79838  0.11701  Biso   1.000  C
  C663     1.0000 0.25452  0.84540  0.23469  Biso   1.000  C
  C664     1.0000 0.33000  0.92212  0.16581  Biso   1.000  C
  C665     1.0000 0.28759  0.99829  0.95528  Biso   1.000  C
  C666     1.0000 0.39963  0.00488  0.09929  Biso   1.000  C
  C667     1.0000 0.39957  0.00488  0.09929  Biso   1.000  C
  C668     1.0000 0.82602  0.21202  0.14370  Biso   1.000  C
  H588     1.0000 0.88523  0.25211  0.07291  Biso   1.000  H
  H589     1.0000 0.81579  0.29752  0.09028  Biso   1.000  H
  H590     1.0000 0.83899  0.28932  0.10981  Biso   1.000  H
  H591     1.0000 0.87541  0.23898  0.06349  Biso   1.000  H
  H592     1.0000 0.78999  0.23429  0.17009  Biso   1.000  H
  C669     1.0000 0.86320  0.24640  0.10840  Biso   1.000  C
  H593     1.0000 0.83703  0.15538  0.14199  Biso   1.000  H
  H594     1.0000 0.77951  0.20978  0.16248  Biso   1.000  H
  H595     1.0000 0.33368  0.18131  0.54899  Biso   1.000  H
  C670     1.0000 0.12248  0.22662  0.07729  Biso   1.000  C
  C671     1.0000 0.25948  0.18980  0.20110  Biso   1.000  C
  C672     1.0000 0.33811  0.10220  0.15040  Biso   1.000  C
  C673     1.0000 0.90501  0.83691  0.22170  Biso   1.000  C
  H596     1.0000 0.77718  0.81869  0.20780  Biso   1.000  H
  H597     1.0000 0.79981  0.87172  0.15579  Biso   1.000  H
  C674     1.0000 0.35058  0.89609  0.77361  Biso   1.000  C
  C675     1.0000 0.34301  0.01382  0.77880  Biso   1.000  C
  O106     1.0000 0.09681  0.79652  0.18001  Biso   1.000  O
  H598     1.0000 0.09302  0.84071  0.09828  Biso   1.000  H
  H599     1.0000 0.07653  0.76571  0.09139  Biso   1.000  H
  H600     1.0000 0.07647  0.76571  0.09139  Biso   1.000  H
  C676     1.0000 0.17909  0.87968  0.24657  Biso   1.000  C
  H601     1.0000 0.24050  0.79911  0.22819  Biso   1.000  H
  C677     1.0000 0.32473  0.84911  0.29592  Biso   1.000  C
  C678     1.0000 0.17910  0.87968  0.24662  Biso   1.000  C
  C679     1.0000 0.32467  0.84911  0.29592  Biso   1.000  C
  H602     1.0000 0.35528  0.94101  0.20569  Biso   1.000  H
  H603     1.0000 0.27801  0.99502  0.90659  Biso   1.000  H
  H604     1.0000 0.23520  0.00259  0.96948  Biso   1.000  H
  H605     1.0000 0.42070  0.00039  0.05689  Biso   1.000  H
  C680     1.0000 0.47629  0.00239  0.15840  Biso   1.000  C
  C681     1.0000 0.90711  0.19991  0.18902  Biso   1.000  C
  H606     1.0000 0.80120  0.17071  0.12950  Biso   1.000  H
  C682     1.0000 0.94098  0.24098  0.16138  Biso   1.000  C
  H607     1.0000 0.09152  0.25768  0.04697  Biso   1.000  H
  H608     1.0000 0.10159  0.18360  0.06359  Biso   1.000  H
  O107     1.0000 0.10452  0.23780  0.13922  Biso   1.000  O
  H609     1.0000 0.09153  0.25768  0.04703  Biso   1.000  H
  C683     1.0000 0.18562  0.16212  0.21847  Biso   1.000  C
  H610     1.0000 0.24661  0.23492  0.18690  Biso   1.000  H
  C684     1.0000 0.32658  0.19391  0.26651  Biso   1.000  C
  C685     1.0000 0.18563  0.16212  0.21853  Biso   1.000  C
  H611     1.0000 0.36323  0.08970  0.19310  Biso   1.000  H
  O108     1.0000 0.96169  0.86840  0.18559  Biso   1.000  O
  H612     1.0000 0.90320  0.86088  0.26299  Biso   1.000  H
  H613     1.0000 0.92431  0.79320  0.23398  Biso   1.000  H
  C686     1.0000 0.28133  0.89531  0.72442  Biso   1.000  C
  H614     1.0000 0.37620  0.85722  0.78821  Biso   1.000  H
  H615     1.0000 0.36348  0.05332  0.79698  Biso   1.000  H
  C687     1.0000 0.27370  0.01299  0.72960  Biso   1.000  C
  C688     1.0000 0.10361  0.85571  0.21681  Biso   1.000  C
  C689     1.0000 0.18403  0.93691  0.28459  Biso   1.000  C
  C690     1.0000 0.18397  0.93691  0.28459  Biso   1.000  C
  H616     1.0000 0.34511  0.89340  0.30130  Biso   1.000  H
  H617     1.0000 0.30490  0.83671  0.33670  Biso   1.000  H
  C691     1.0000 0.39231  0.80331  0.28418  Biso   1.000  C
  H618     1.0000 0.49699  0.95810  0.16299  Biso   1.000  H
  H619     1.0000 0.45972  0.01470  0.20060  Biso   1.000  H
  C692     1.0000 0.54198  0.04732  0.14441  Biso   1.000  C
  O109     1.0000 0.96891  0.17579  0.15251  Biso   1.000  O
  H620     1.0000 0.92592  0.24029  0.21148  Biso   1.000  H
  H621     1.0000 0.89942  0.16842  0.22331  Biso   1.000  H
  H622     1.0000 0.92863  0.24698  0.20649  Biso   1.000  H
  H623     1.0000 0.98054  0.27311  0.15332  Biso   1.000  H
  C693     1.0000 0.11230  0.18521  0.18308  Biso   1.000  C
  C694     1.0000 0.18591  0.11319  0.26671  Biso   1.000  C
  H624     1.0000 0.30299  0.21129  0.30372  Biso   1.000  H
  H625     1.0000 0.34710  0.15050  0.27890  Biso   1.000  H
  C695     1.0000 0.39391  0.23649  0.25352  Biso   1.000  C
  C696     1.0000 0.03310  0.88891  0.22492  Biso   1.000  C
  C697     1.0000 0.24289  0.95371  0.70241  Biso   1.000  C
  H626     1.0000 0.26079  0.85580  0.70619  Biso   1.000  H
  H627     1.0000 0.24808  0.05191  0.71500  Biso   1.000  H
  C698     1.0000 0.11361  0.97021  0.29279  Biso   1.000  C
  H628     1.0000 0.23430  0.95288  0.30448  Biso   1.000  H
  H629     1.0000 0.37193  0.75892  0.28237  Biso   1.000  H
  H630     1.0000 0.40700  0.81308  0.24068  Biso   1.000  H
  C699     1.0000 0.46782  0.80668  0.33690  Biso   1.000  C
  H631     1.0000 0.37188  0.75892  0.28242  Biso   1.000  H
  H632     1.0000 0.52142  0.09170  0.14108  Biso   1.000  H
  H633     1.0000 0.55682  0.03589  0.10130  Biso   1.000  H
  C700     1.0000 0.61862  0.04458  0.19919  Biso   1.000  C
  C701     1.0000 0.03930  0.15929  0.19602  Biso   1.000  C
  C702     1.0000 0.11289  0.08731  0.27960  Biso   1.000  C
  H634     1.0000 0.23482  0.09791  0.29028  Biso   1.000  H
  H635     1.0000 0.37209  0.27692  0.23277  Biso   1.000  H
  H636     1.0000 0.42402  0.21500  0.22260  Biso   1.000  H
  C703     1.0000 0.45188  0.25192  0.32109  Biso   1.000  C
  H637     1.0000 0.37210  0.27692  0.23283  Biso   1.000  H
  C704     1.0000 0.03812  0.94619  0.26299  Biso   1.000  C
  H638     1.0000 0.19673  0.95312  0.66958  Biso   1.000  H
  H639     1.0000 0.19667  0.95312  0.66958  Biso   1.000  H
  C705     1.0000 0.11192  0.03340  0.32900  Biso   1.000  C
  C706     1.0000 0.52131  0.85712  0.32860  Biso   1.000  C
  C707     1.0000 0.48870  0.76078  0.38801  Biso   1.000  C
  C708     1.0000 0.65700  0.98618  0.22119  Biso   1.000  C
  C709     1.0000 0.64943  0.10391  0.22638  Biso   1.000  C
  C710     1.0000 0.64937  0.10391  0.22638  Biso   1.000  C
  C711     1.0000 0.03960  0.11041  0.24431  Biso   1.000  C
  C712     1.0000 0.52140  0.21529  0.34400  Biso   1.000  C
  C713     1.0000 0.43471  0.30739  0.35639  Biso   1.000  C
  O110     1.0000 0.96383  0.97651  0.26651  Biso   1.000  O
  O111     1.0000 0.96377  0.97651  0.26651  Biso   1.000  O
  H640     1.0000 0.05984  0.03570  0.34501  Biso   1.000  H
  C714     1.0000 0.18199  0.03740  0.39461  Biso   1.000  C
  H641     1.0000 0.05978  0.03570  0.34501  Biso   1.000  H
  H642     1.0000 0.50741  0.88779  0.29451  Biso   1.000  H
  C715     1.0000 0.59581  0.86161  0.37139  Biso   1.000  C
  C716     1.0000 0.56319  0.76532  0.43081  Biso   1.000  C
  H643     1.0000 0.45310  0.72709  0.39350  Biso   1.000  H
  H644     1.0000 0.63653  0.94668  0.20302  Biso   1.000  H
  C717     1.0000 0.72632  0.98701  0.27039  Biso   1.000  C
  C718     1.0000 0.71869  0.10469  0.27557  Biso   1.000  C
  H645     1.0000 0.62382  0.14278  0.21178  Biso   1.000  H
  C719     1.0000 0.71870  0.10469  0.27562  Biso   1.000  C
  O112     1.0000 0.96622  0.08521  0.25538  Biso   1.000  O
  H646     1.0000 0.53278  0.17828  0.32049  Biso   1.000  H
  C720     1.0000 0.57372  0.23429  0.40211  Biso   1.000  C
  C721     1.0000 0.48698  0.32629  0.41450  Biso   1.000  C
  H647     1.0000 0.38842  0.33171  0.34118  Biso   1.000  H
  C722     1.0000 0.94292  0.03018  0.22391  Biso   1.000  C
  H648     1.0000 0.17751  0.00000  0.42341  Biso   1.000  H
  H649     1.0000 0.23463  0.03540  0.38051  Biso   1.000  H
  C723     1.0000 0.17623  0.10108  0.43529  Biso   1.000  C
  C724     1.0000 0.17617  0.10108  0.43529  Biso   1.000  C
  H650     1.0000 0.63138  0.89531  0.36581  Biso   1.000  H
  C725     1.0000 0.61672  0.81571  0.42240  Biso   1.000  C
  H651     1.0000 0.57713  0.73470  0.46480  Biso   1.000  H
  H652     1.0000 0.75193  0.94809  0.28499  Biso   1.000  H
  H653     1.0000 0.75187  0.94809  0.28499  Biso   1.000  H
  C726     1.0000 0.75713  0.04629  0.29758  Biso   1.000  C
  C727     1.0000 0.75707  0.04629  0.29758  Biso   1.000  C
  H654     1.0000 0.73923  0.14420  0.29380  Biso   1.000  H
  H655     1.0000 0.62001  0.20992  0.41732  Biso   1.000  H
  C728     1.0000 0.55653  0.28981  0.43731  Biso   1.000  C
  C729     1.0000 0.55647  0.28981  0.43731  Biso   1.000  C
  H656     1.0000 0.47563  0.36340  0.43791  Biso   1.000  H
  H657     1.0000 0.47557  0.36340  0.43791  Biso   1.000  H
  H658     1.0000 0.96860  0.02598  0.18429  Biso   1.000  H
  H659     1.0000 0.88472  0.03091  0.20921  Biso   1.000  H
  H660     1.0000 0.22493  0.10562  0.46857  Biso   1.000  H
  H661     1.0000 0.17342  0.13809  0.40498  Biso   1.000  H
  C730     1.0000 0.10312  0.10210  0.47049  Biso   1.000  C
  H662     1.0000 0.22488  0.10562  0.46862  Biso   1.000  H
  H663     1.0000 0.66634  0.81869  0.45100  Biso   1.000  H
  H664     1.0000 0.66628  0.81869  0.45100  Biso   1.000  H
  H665     1.0000 0.80328  0.04688  0.33041  Biso   1.000  H
  H666     1.0000 0.59131  0.30251  0.47598  Biso   1.000  H
  C731     1.0000 0.11013  0.07500  0.53479  Biso   1.000  C
  C732     1.0000 0.02931  0.12818  0.43952  Biso   1.000  C
  C733     1.0000 0.11007  0.07500  0.53479  Biso   1.000  C
  H667     1.0000 0.15929  0.05762  0.55538  Biso   1.000  H
  C734     1.0000 0.04330  0.07388  0.56792  Biso   1.000  C
  C735     1.0000 0.96249  0.12711  0.47270  Biso   1.000  C
  H668     1.0000 0.02460  0.14630  0.39667  Biso   1.000  H
  H669     1.0000 0.02461  0.14630  0.39672  Biso   1.000  H
  C736     1.0000 0.96948  0.09991  0.53690  Biso   1.000  C
  H670     1.0000 0.04802  0.05581  0.61082  Biso   1.000  H
  H671     1.0000 0.91331  0.14439  0.45201  Biso   1.000  H
  H672     1.0000 0.92489  0.09922  0.55901  Biso   1.000  H
  C737     1.0000 0.05710  0.96982  0.77608  Biso   1.000  C
  O113     1.0000 0.03380  0.91479  0.74461  Biso   1.000  O
  O114     1.0000 0.03618  0.02349  0.73348  Biso   1.000  O
  H673     1.0000 0.03141  0.97402  0.81571  Biso   1.000  H
  H674     1.0000 0.11529  0.96909  0.79078  Biso   1.000  H
  C738     1.0000 0.96042  0.88959  0.75569  Biso   1.000  C
  C739     1.0000 0.96189  0.05381  0.73701  Biso   1.000  C
  C740     1.0000 0.88712  0.91269  0.72039  Biso   1.000  C
  C741     1.0000 0.96072  0.84071  0.80397  Biso   1.000  C
  C742     1.0000 0.96073  0.84071  0.80403  Biso   1.000  C
  C743     1.0000 0.88641  0.02979  0.70720  Biso   1.000  C
  C744     1.0000 0.96691  0.11109  0.77507  Biso   1.000  C
  C745     1.0000 0.96692  0.11109  0.77512  Biso   1.000  C
  C746     1.0000 0.88810  0.96660  0.67099  Biso   1.000  C
  C747     1.0000 0.81410  0.88681  0.73328  Biso   1.000  C
  C748     1.0000 0.88771  0.81479  0.81692  Biso   1.000  C
  O115     1.0000 0.03111  0.82421  0.84748  Biso   1.000  O
  C749     1.0000 0.81598  0.06309  0.71541  Biso   1.000  C
  C750     1.0000 0.89640  0.14429  0.78318  Biso   1.000  C
  O116     1.0000 0.03832  0.13160  0.81440  Biso   1.000  O
  C751     1.0000 0.81802  0.96260  0.60539  Biso   1.000  C
  H675     1.0000 0.94018  0.96430  0.65498  Biso   1.000  H
  C752     1.0000 0.81439  0.83788  0.78152  Biso   1.000  C
  H676     1.0000 0.76519  0.90209  0.70972  Biso   1.000  H
  O117     1.0000 0.89549  0.76220  0.86077  Biso   1.000  O
  O118     1.0000 0.89550  0.76220  0.86082  Biso   1.000  O
  C753     1.0000 0.09291  0.80009  0.81097  Biso   1.000  C
  C754     1.0000 0.09292  0.80009  0.81102  Biso   1.000  C
  C755     1.0000 0.05898  0.75902  0.83862  Biso   1.000  C
  C756     1.0000 0.82093  0.12032  0.75342  Biso   1.000  C
  H677     1.0000 0.76571  0.04712  0.69552  Biso   1.000  H
  O119     1.0000 0.90320  0.20348  0.81999  Biso   1.000  O
  C757     1.0000 0.09500  0.16309  0.77830  Biso   1.000  C
  C758     1.0000 0.82378  0.89892  0.56470  Biso   1.000  C
  H678     1.0000 0.76538  0.96460  0.61948  Biso   1.000  H
  H679     1.0000 0.82250  0.00000  0.57658  Biso   1.000  H
  C759     1.0000 0.74054  0.81020  0.79889  Biso   1.000  C
  C760     1.0000 0.74048  0.81020  0.79889  Biso   1.000  C
  C761     1.0000 0.87753  0.77338  0.92271  Biso   1.000  C
  C762     1.0000 0.87747  0.77338  0.92271  Biso   1.000  C
  C763     1.0000 0.17400  0.78798  0.85629  Biso   1.000  C
  H680     1.0000 0.07409  0.75971  0.78852  Biso   1.000  H
  H681     1.0000 0.10060  0.83158  0.77668  Biso   1.000  H
  H682     1.0000 0.07138  0.75302  0.79350  Biso   1.000  H
  H683     1.0000 0.01948  0.72689  0.84672  Biso   1.000  H
  C764     1.0000 0.13681  0.75360  0.89159  Biso   1.000  C
  C765     1.0000 0.74550  0.15460  0.76530  Biso   1.000  C
  C766     1.0000 0.88958  0.20162  0.88298  Biso   1.000  C
  H684     1.0000 0.09681  0.13912  0.73701  Biso   1.000  H
  H685     1.0000 0.07570  0.20680  0.76601  Biso   1.000  H
  C767     1.0000 0.18279  0.16768  0.81918  Biso   1.000  C
  C768     1.0000 0.89690  0.89790  0.52950  Biso   1.000  C
  H686     1.0000 0.77508  0.89438  0.53142  Biso   1.000  H
  H687     1.0000 0.82659  0.86191  0.59501  Biso   1.000  H
  C769     1.0000 0.71343  0.84379  0.85750  Biso   1.000  C
  H688     1.0000 0.75340  0.76508  0.81309  Biso   1.000  H
  C770     1.0000 0.67343  0.80609  0.73348  Biso   1.000  C
  C771     1.0000 0.71337  0.84379  0.85750  Biso   1.000  C
  C772     1.0000 0.67337  0.80609  0.73348  Biso   1.000  C
  O120     1.0000 0.79918  0.77098  0.93489  Biso   1.000  O
  H689     1.0000 0.90849  0.74232  0.95302  Biso   1.000  H
  H690     1.0000 0.89843  0.81640  0.93640  Biso   1.000  H
  H691     1.0000 0.19881  0.82929  0.87049  Biso   1.000  H
  H692     1.0000 0.21003  0.76571  0.82991  Biso   1.000  H
  C773     1.0000 0.17004  0.74701  0.91742  Biso   1.000  C
  C774     1.0000 0.16998  0.74701  0.91742  Biso   1.000  C
  H693     1.0000 0.16298  0.84462  0.85800  Biso   1.000  H
  H694     1.0000 0.22050  0.79022  0.83751  Biso   1.000  H
  H695     1.0000 0.11478  0.74789  0.92709  Biso   1.000  H
  H696     1.0000 0.16097  0.71068  0.89018  Biso   1.000  H
  H697     1.0000 0.12461  0.76102  0.93650  Biso   1.000  H
  C775     1.0000 0.19400  0.80580  0.87361  Biso   1.000  C
  C776     1.0000 0.72329  0.12999  0.83257  Biso   1.000  C
  H698     1.0000 0.75952  0.20089  0.77180  Biso   1.000  H
  C777     1.0000 0.67528  0.15089  0.70408  Biso   1.000  C
  O121     1.0000 0.81374  0.21119  0.89249  Biso   1.000  O
  H699     1.0000 0.90699  0.15929  0.90171  Biso   1.000  H
  H700     1.0000 0.92348  0.23429  0.90861  Biso   1.000  H
  O122     1.0000 0.81368  0.21119  0.89249  Biso   1.000  O
  H701     1.0000 0.22283  0.18131  0.79219  Biso   1.000  H
  H702     1.0000 0.20021  0.12828  0.84421  Biso   1.000  H
  C778     1.0000 0.15842  0.22052  0.86148  Biso   1.000  C
  H703     1.0000 0.22277  0.18131  0.79219  Biso   1.000  H
  C779     1.0000 0.97070  0.87182  0.56047  Biso   1.000  C
  C780     1.0000 0.97071  0.87182  0.56052  Biso   1.000  C
  C781     1.0000 0.88988  0.92500  0.46520  Biso   1.000  C
  C782     1.0000 0.75100  0.82489  0.92160  Biso   1.000  C
  C783     1.0000 0.66191  0.89780  0.84959  Biso   1.000  C
  H704     1.0000 0.69703  0.78871  0.69627  Biso   1.000  H
  H705     1.0000 0.65292  0.84950  0.72109  Biso   1.000  H
  C784     1.0000 0.60611  0.76351  0.74647  Biso   1.000  C
  H706     1.0000 0.69698  0.78871  0.69632  Biso   1.000  H
  C785     1.0000 0.60612  0.76351  0.74652  Biso   1.000  C
  C786     1.0000 0.22700  0.77538  0.97598  Biso   1.000  C
  H707     1.0000 0.18422  0.70248  0.90971  Biso   1.000  H
  C787     1.0000 0.25600  0.82221  0.93439  Biso   1.000  C
  C788     1.0000 0.76129  0.15841  0.89259  Biso   1.000  C
  C789     1.0000 0.67001  0.07788  0.83419  Biso   1.000  C
  H708     1.0000 0.65491  0.10660  0.69869  Biso   1.000  H
  H709     1.0000 0.69512  0.16329  0.66329  Biso   1.000  H
  C790     1.0000 0.60771  0.19669  0.71581  Biso   1.000  C
  H710     1.0000 0.16109  0.26329  0.84129  Biso   1.000  H
  H711     1.0000 0.10511  0.21339  0.87311  Biso   1.000  H
  C791     1.0000 0.22869  0.20919  0.92331  Biso   1.000  C
  C792     1.0000 0.03753  0.87289  0.52729  Biso   1.000  C
  H712     1.0000 0.97542  0.85370  0.60332  Biso   1.000  H
  C793     1.0000 0.95672  0.92612  0.43207  Biso   1.000  C
  C794     1.0000 0.95673  0.92612  0.43212  Biso   1.000  C
  H713     1.0000 0.84073  0.94238  0.44461  Biso   1.000  H
  C795     1.0000 0.73720  0.86010  0.97799  Biso   1.000  C
  C796     1.0000 0.64799  0.93291  0.90599  Biso   1.000  C
  H714     1.0000 0.63679  0.91030  0.80690  Biso   1.000  H
  H715     1.0000 0.62793  0.72308  0.76722  Biso   1.000  H
  H716     1.0000 0.57600  0.78500  0.77739  Biso   1.000  H
  C797     1.0000 0.54813  0.74808  0.67890  Biso   1.000  C
  C798     1.0000 0.54807  0.74808  0.67890  Biso   1.000  C
  O123     1.0000 0.21001  0.84408  0.98489  Biso   1.000  O
  H717     1.0000 0.28269  0.77050  0.96848  Biso   1.000  H
  H718     1.0000 0.28803  0.78402  0.95000  Biso   1.000  H
  H719     1.0000 0.22203  0.75170  0.01702  Biso   1.000  H
  H720     1.0000 0.29203  0.85639  0.92391  Biso   1.000  H
  C799     1.0000 0.74602  0.13458  0.95418  Biso   1.000  C
  C800     1.0000 0.65468  0.05410  0.89582  Biso   1.000  C
  H721     1.0000 0.64474  0.05899  0.79431  Biso   1.000  H
  H722     1.0000 0.64468  0.05899  0.79431  Biso   1.000  H
  H723     1.0000 0.62809  0.24108  0.71762  Biso   1.000  H
  H724     1.0000 0.59301  0.18692  0.75931  Biso   1.000  H
  C801     1.0000 0.53220  0.19332  0.66309  Biso   1.000  C
  H725     1.0000 0.23072  0.24581  0.95418  Biso   1.000  H
  H726     1.0000 0.28032  0.20709  0.90740  Biso   1.000  H
  O124     1.0000 0.21619  0.14888  0.95891  Biso   1.000  O
  H727     1.0000 0.08670  0.85561  0.54798  Biso   1.000  H
  C802     1.0000 0.03053  0.90009  0.46309  Biso   1.000  C
  C803     1.0000 0.03047  0.90009  0.46309  Biso   1.000  C
  H728     1.0000 0.95199  0.94419  0.38917  Biso   1.000  H
  H729     1.0000 0.95200  0.94419  0.38922  Biso   1.000  H
  C804     1.0000 0.68573  0.91411  0.97009  Biso   1.000  C
  C805     1.0000 0.68567  0.91411  0.97009  Biso   1.000  C
  O125     1.0000 0.78383  0.85112  0.04108  Biso   1.000  O
  C806     1.0000 0.60039  0.99512  0.90070  Biso   1.000  C
  C807     1.0000 0.47862  0.78471  0.65599  Biso   1.000  C
  C808     1.0000 0.56530  0.69261  0.64360  Biso   1.000  C
  C809     1.0000 0.25400  0.86542  0.04582  Biso   1.000  C
  C810     1.0000 0.69268  0.08252  0.95579  Biso   1.000  C
  O126     1.0000 0.79000  0.15592  0.01510  Biso   1.000  O
  C811     1.0000 0.47870  0.14288  0.67140  Biso   1.000  C
  C812     1.0000 0.51132  0.23922  0.61198  Biso   1.000  C
  C813     1.0000 0.26282  0.13990  0.02200  Biso   1.000  C
  H730     1.0000 0.07513  0.90078  0.44099  Biso   1.000  H
  O127     1.0000 0.67231  0.94961  0.02839  Biso   1.000  O
  C814     1.0000 0.77132  0.79081  0.07668  Biso   1.000  C
  H731     1.0000 0.57931  0.99961  0.94310  Biso   1.000  H
  C815     1.0000 0.52372  0.99761  0.84159  Biso   1.000  C
  H732     1.0000 0.46723  0.82172  0.67950  Biso   1.000  H
  C816     1.0000 0.42629  0.76571  0.59788  Biso   1.000  C
  C817     1.0000 0.51303  0.67371  0.58550  Biso   1.000  C
  H733     1.0000 0.61159  0.66829  0.65881  Biso   1.000  H
  C818     1.0000 0.51297  0.67371  0.58550  Biso   1.000  C
  C819     1.0000 0.23872  0.84159  0.10740  Biso   1.000  C
  C820     1.0000 0.30733  0.91748  0.04421  Biso   1.000  C
  C821     1.0000 0.30727  0.91748  0.04421  Biso   1.000  C
  O128     1.0000 0.67739  0.06031  0.01848  Biso   1.000  O
  C822     1.0000 0.77302  0.22462  0.02401  Biso   1.000  C
  C823     1.0000 0.74402  0.17779  0.06561  Biso   1.000  C
  H734     1.0000 0.49260  0.11221  0.70549  Biso   1.000  H
  C824     1.0000 0.40421  0.13839  0.62860  Biso   1.000  C
  C825     1.0000 0.43683  0.23468  0.56918  Biso   1.000  C
  H735     1.0000 0.54691  0.27291  0.60649  Biso   1.000  H
  C826     1.0000 0.43677  0.23468  0.56918  Biso   1.000  C
  C827     1.0000 0.24901  0.17511  0.07839  Biso   1.000  C
  C828     1.0000 0.31428  0.08589  0.02991  Biso   1.000  C
  C829     1.0000 0.71243  0.00171  0.04471  Biso   1.000  C
  C830     1.0000 0.84160  0.77948  0.13852  Biso   1.000  C
  H736     1.0000 0.76929  0.75419  0.04582  Biso   1.000  H
  H737     1.0000 0.71970  0.79291  0.09259  Biso   1.000  H
  H738     1.0000 0.54029  0.98530  0.79939  Biso   1.000  H
  C831     1.0000 0.45803  0.95268  0.85559  Biso   1.000  C
  C832     1.0000 0.45797  0.95268  0.85559  Biso   1.000  C
  H739     1.0000 0.50303  0.04190  0.83701  Biso   1.000  H
  H740     1.0000 0.38000  0.79008  0.58268  Biso   1.000  H
  C833     1.0000 0.44348  0.71019  0.56269  Biso   1.000  C
  H741     1.0000 0.52438  0.63660  0.56208  Biso   1.000  H
  O129     1.0000 0.18628  0.78881  0.10750  Biso   1.000  O
  C834     1.0000 0.27673  0.87001  0.16742  Biso   1.000  C
  O130     1.0000 0.32263  0.93969  0.98152  Biso   1.000  O
  C835     1.0000 0.34533  0.94590  0.10418  Biso   1.000  C
  C836     1.0000 0.34527  0.94590  0.10418  Biso   1.000  C
  H742     1.0000 0.77799  0.24830  0.98298  Biso   1.000  H
  C837     1.0000 0.82997  0.25299  0.08257  Biso   1.000  C
  H743     1.0000 0.71733  0.22950  0.03152  Biso   1.000  H
  C838     1.0000 0.82998  0.25299  0.08262  Biso   1.000  C
  H744     1.0000 0.71199  0.21598  0.05000  Biso   1.000  H
  C839     1.0000 0.80602  0.19420  0.12638  Biso   1.000  C
  H745     1.0000 0.70798  0.14361  0.07608  Biso   1.000  H
  H746     1.0000 0.36863  0.10469  0.63419  Biso   1.000  H
  C840     1.0000 0.38329  0.18429  0.57759  Biso   1.000  C
  H747     1.0000 0.36857  0.10469  0.63419  Biso   1.000  H
  H748     1.0000 0.42289  0.26530  0.53519  Biso   1.000  H
  O131     1.0000 0.20084  0.22902  0.06510  Biso   1.000  O
  C841     1.0000 0.28658  0.15621  0.14249  Biso   1.000  C
  O132     1.0000 0.20078  0.22902  0.06510  Biso   1.000  O
  O133     1.0000 0.32770  0.05039  0.97160  Biso   1.000  O
  C842     1.0000 0.35203  0.06709  0.09400  Biso   1.000  C
  H749     1.0000 0.76481  0.99741  0.03051  Biso   1.000  H
  H750     1.0000 0.72201  0.00498  0.09340  Biso   1.000  H
  C843     1.0000 0.81722  0.83232  0.18081  Biso   1.000  C
  H751     1.0000 0.83893  0.73671  0.15871  Biso   1.000  H
  H752     1.0000 0.89491  0.78661  0.12688  Biso   1.000  H
  H753     1.0000 0.47859  0.90830  0.85891  Biso   1.000  H
  H754     1.0000 0.44320  0.96411  0.89869  Biso   1.000  H
  C844     1.0000 0.38139  0.95542  0.80080  Biso   1.000  C
  H755     1.0000 0.40871  0.69749  0.52402  Biso   1.000  H
  C845     1.0000 0.11044  0.79838  0.11701  Biso   1.000  C
  C846     1.0000 0.11038  0.79838  0.11701  Biso   1.000  C
  C847     1.0000 0.25452  0.84540  0.23469  Biso   1.000  C
  C848     1.0000 0.33000  0.92212  0.16581  Biso   1.000  C
  C849     1.0000 0.28759  0.99829  0.95528  Biso   1.000  C
  C850     1.0000 0.39963  0.00488  0.09929  Biso   1.000  C
  C851     1.0000 0.39957  0.00488  0.09929  Biso   1.000  C
  C852     1.0000 0.82602  0.21202  0.14370  Biso   1.000  C
  H756     1.0000 0.88523  0.25211  0.07291  Biso   1.000  H
  H757     1.0000 0.81579  0.29752  0.09028  Biso   1.000  H
  H758     1.0000 0.83899  0.28932  0.10981  Biso   1.000  H
  H759     1.0000 0.87541  0.23898  0.06349  Biso   1.000  H
  H760     1.0000 0.78999  0.23429  0.17009  Biso   1.000  H
  C853     1.0000 0.86320  0.24640  0.10840  Biso   1.000  C
  H761     1.0000 0.83703  0.15538  0.14199  Biso   1.000  H
  H762     1.0000 0.77951  0.20978  0.16248  Biso   1.000  H
  H763     1.0000 0.33368  0.18131  0.54899  Biso   1.000  H
  C854     1.0000 0.12248  0.22662  0.07729  Biso   1.000  C
  C855     1.0000 0.25948  0.18980  0.20110  Biso   1.000  C
  C856     1.0000 0.33811  0.10220  0.15040  Biso   1.000  C
  C857     1.0000 0.90501  0.83691  0.22170  Biso   1.000  C
  H764     1.0000 0.77718  0.81869  0.20780  Biso   1.000  H
  H765     1.0000 0.79981  0.87172  0.15579  Biso   1.000  H
  C858     1.0000 0.35058  0.89609  0.77361  Biso   1.000  C
  C859     1.0000 0.34301  0.01382  0.77880  Biso   1.000  C
  O134     1.0000 0.09681  0.79652  0.18001  Biso   1.000  O
  H766     1.0000 0.09302  0.84071  0.09828  Biso   1.000  H
  H767     1.0000 0.07653  0.76571  0.09139  Biso   1.000  H
  H768     1.0000 0.07647  0.76571  0.09139  Biso   1.000  H
  C860     1.0000 0.17909  0.87968  0.24657  Biso   1.000  C
  H769     1.0000 0.24050  0.79911  0.22819  Biso   1.000  H
  C861     1.0000 0.32473  0.84911  0.29592  Biso   1.000  C
  C862     1.0000 0.17910  0.87968  0.24662  Biso   1.000  C
  C863     1.0000 0.32467  0.84911  0.29592  Biso   1.000  C
  H770     1.0000 0.35528  0.94101  0.20569  Biso   1.000  H
  H771     1.0000 0.27801  0.99502  0.90659  Biso   1.000  H
  H772     1.0000 0.23520  0.00259  0.96948  Biso   1.000  H
  H773     1.0000 0.42070  0.00039  0.05689  Biso   1.000  H
  C864     1.0000 0.47629  0.00239  0.15840  Biso   1.000  C
  C865     1.0000 0.90711  0.19991  0.18902  Biso   1.000  C
  H774     1.0000 0.80120  0.17071  0.12950  Biso   1.000  H
  C866     1.0000 0.94098  0.24098  0.16138  Biso   1.000  C
  H775     1.0000 0.09152  0.25768  0.04697  Biso   1.000  H
  H776     1.0000 0.10159  0.18360  0.06359  Biso   1.000  H
  O135     1.0000 0.10452  0.23780  0.13922  Biso   1.000  O
  H777     1.0000 0.09153  0.25768  0.04703  Biso   1.000  H
  C867     1.0000 0.18562  0.16212  0.21847  Biso   1.000  C
  H778     1.0000 0.24661  0.23492  0.18690  Biso   1.000  H
  C868     1.0000 0.32658  0.19391  0.26651  Biso   1.000  C
  C869     1.0000 0.18563  0.16212  0.21853  Biso   1.000  C
  H779     1.0000 0.36323  0.08970  0.19310  Biso   1.000  H
  O136     1.0000 0.96169  0.86840  0.18559  Biso   1.000  O
  H780     1.0000 0.90320  0.86088  0.26299  Biso   1.000  H
  H781     1.0000 0.92431  0.79320  0.23398  Biso   1.000  H
  C870     1.0000 0.28133  0.89531  0.72442  Biso   1.000  C
  H782     1.0000 0.37620  0.85722  0.78821  Biso   1.000  H
  H783     1.0000 0.36348  0.05332  0.79698  Biso   1.000  H
  C871     1.0000 0.27370  0.01299  0.72960  Biso   1.000  C
  C872     1.0000 0.10361  0.85571  0.21681  Biso   1.000  C
  C873     1.0000 0.18403  0.93691  0.28459  Biso   1.000  C
  C874     1.0000 0.18397  0.93691  0.28459  Biso   1.000  C
  H784     1.0000 0.34511  0.89340  0.30130  Biso   1.000  H
  H785     1.0000 0.30490  0.83671  0.33670  Biso   1.000  H
  C875     1.0000 0.39231  0.80331  0.28418  Biso   1.000  C
  H786     1.0000 0.49699  0.95810  0.16299  Biso   1.000  H
  H787     1.0000 0.45972  0.01470  0.20060  Biso   1.000  H
  C876     1.0000 0.54198  0.04732  0.14441  Biso   1.000  C
  O137     1.0000 0.96891  0.17579  0.15251  Biso   1.000  O
  H788     1.0000 0.92592  0.24029  0.21148  Biso   1.000  H
  H789     1.0000 0.89942  0.16842  0.22331  Biso   1.000  H
  H790     1.0000 0.92863  0.24698  0.20649  Biso   1.000  H
  H791     1.0000 0.98054  0.27311  0.15332  Biso   1.000  H
  C877     1.0000 0.11230  0.18521  0.18308  Biso   1.000  C
  C878     1.0000 0.18591  0.11319  0.26671  Biso   1.000  C
  H792     1.0000 0.30299  0.21129  0.30372  Biso   1.000  H
  H793     1.0000 0.34710  0.15050  0.27890  Biso   1.000  H
  C879     1.0000 0.39391  0.23649  0.25352  Biso   1.000  C
  C880     1.0000 0.03310  0.88891  0.22492  Biso   1.000  C
  C881     1.0000 0.24289  0.95371  0.70241  Biso   1.000  C
  H794     1.0000 0.26079  0.85580  0.70619  Biso   1.000  H
  H795     1.0000 0.24808  0.05191  0.71500  Biso   1.000  H
  C882     1.0000 0.11361  0.97021  0.29279  Biso   1.000  C
  H796     1.0000 0.23430  0.95288  0.30448  Biso   1.000  H
  H797     1.0000 0.37193  0.75892  0.28237  Biso   1.000  H
  H798     1.0000 0.40700  0.81308  0.24068  Biso   1.000  H
  C883     1.0000 0.46782  0.80668  0.33690  Biso   1.000  C
  H799     1.0000 0.37188  0.75892  0.28242  Biso   1.000  H
  H800     1.0000 0.52142  0.09170  0.14108  Biso   1.000  H
  H801     1.0000 0.55682  0.03589  0.10130  Biso   1.000  H
  C884     1.0000 0.61862  0.04458  0.19919  Biso   1.000  C
  C885     1.0000 0.03930  0.15929  0.19602  Biso   1.000  C
  C886     1.0000 0.11289  0.08731  0.27960  Biso   1.000  C
  H802     1.0000 0.23482  0.09791  0.29028  Biso   1.000  H
  H803     1.0000 0.37209  0.27692  0.23277  Biso   1.000  H
  H804     1.0000 0.42402  0.21500  0.22260  Biso   1.000  H
  C887     1.0000 0.45188  0.25192  0.32109  Biso   1.000  C
  H805     1.0000 0.37210  0.27692  0.23283  Biso   1.000  H
  C888     1.0000 0.03812  0.94619  0.26299  Biso   1.000  C
  H806     1.0000 0.19673  0.95312  0.66958  Biso   1.000  H
  H807     1.0000 0.19667  0.95312  0.66958  Biso   1.000  H
  C889     1.0000 0.11192  0.03340  0.32900  Biso   1.000  C
  C890     1.0000 0.52131  0.85712  0.32860  Biso   1.000  C
  C891     1.0000 0.48870  0.76078  0.38801  Biso   1.000  C
  C892     1.0000 0.65700  0.98618  0.22119  Biso   1.000  C
  C893     1.0000 0.64943  0.10391  0.22638  Biso   1.000  C
  C894     1.0000 0.64937  0.10391  0.22638  Biso   1.000  C
  C895     1.0000 0.03960  0.11041  0.24431  Biso   1.000  C
  C896     1.0000 0.52140  0.21529  0.34400  Biso   1.000  C
  C897     1.0000 0.43471  0.30739  0.35639  Biso   1.000  C
  O138     1.0000 0.96383  0.97651  0.26651  Biso   1.000  O
  O139     1.0000 0.96377  0.97651  0.26651  Biso   1.000  O
  H808     1.0000 0.05984  0.03570  0.34501  Biso   1.000  H
  C898     1.0000 0.18199  0.03740  0.39461  Biso   1.000  C
  H809     1.0000 0.05978  0.03570  0.34501  Biso   1.000  H
  H810     1.0000 0.50741  0.88779  0.29451  Biso   1.000  H
  C899     1.0000 0.59581  0.86161  0.37139  Biso   1.000  C
  C900     1.0000 0.56319  0.76532  0.43081  Biso   1.000  C
  H811     1.0000 0.45310  0.72709  0.39350  Biso   1.000  H
  H812     1.0000 0.63653  0.94668  0.20302  Biso   1.000  H
  C901     1.0000 0.72632  0.98701  0.27039  Biso   1.000  C
  C902     1.0000 0.71869  0.10469  0.27557  Biso   1.000  C
  H813     1.0000 0.62382  0.14278  0.21178  Biso   1.000  H
  C903     1.0000 0.71870  0.10469  0.27562  Biso   1.000  C
  O140     1.0000 0.96622  0.08521  0.25538  Biso   1.000  O
  H814     1.0000 0.53278  0.17828  0.32049  Biso   1.000  H
  C904     1.0000 0.57372  0.23429  0.40211  Biso   1.000  C
  C905     1.0000 0.48698  0.32629  0.41450  Biso   1.000  C
  H815     1.0000 0.38842  0.33171  0.34118  Biso   1.000  H
  C906     1.0000 0.94292  0.03018  0.22391  Biso   1.000  C
  H816     1.0000 0.17751  0.00000  0.42341  Biso   1.000  H
  H817     1.0000 0.23463  0.03540  0.38051  Biso   1.000  H
  C907     1.0000 0.17623  0.10108  0.43529  Biso   1.000  C
  C908     1.0000 0.17617  0.10108  0.43529  Biso   1.000  C
  H818     1.0000 0.63138  0.89531  0.36581  Biso   1.000  H
  C909     1.0000 0.61672  0.81571  0.42240  Biso   1.000  C
  H819     1.0000 0.57713  0.73470  0.46480  Biso   1.000  H
  H820     1.0000 0.75193  0.94809  0.28499  Biso   1.000  H
  H821     1.0000 0.75187  0.94809  0.28499  Biso   1.000  H
  C910     1.0000 0.75713  0.04629  0.29758  Biso   1.000  C
  C911     1.0000 0.75707  0.04629  0.29758  Biso   1.000  C
  H822     1.0000 0.73923  0.14420  0.29380  Biso   1.000  H
  H823     1.0000 0.62001  0.20992  0.41732  Biso   1.000  H
  C912     1.0000 0.55653  0.28981  0.43731  Biso   1.000  C
  C913     1.0000 0.55647  0.28981  0.43731  Biso   1.000  C
  H824     1.0000 0.47563  0.36340  0.43791  Biso   1.000  H
  H825     1.0000 0.47557  0.36340  0.43791  Biso   1.000  H
  H826     1.0000 0.96860  0.02598  0.18429  Biso   1.000  H
  H827     1.0000 0.88472  0.03091  0.20921  Biso   1.000  H
  H828     1.0000 0.22493  0.10562  0.46857  Biso   1.000  H
  H829     1.0000 0.17342  0.13809  0.40498  Biso   1.000  H
  C914     1.0000 0.10312  0.10210  0.47049  Biso   1.000  C
  H830     1.0000 0.22488  0.10562  0.46862  Biso   1.000  H
  H831     1.0000 0.66634  0.81869  0.45100  Biso   1.000  H
  H832     1.0000 0.66628  0.81869  0.45100  Biso   1.000  H
  H833     1.0000 0.80328  0.04688  0.33041  Biso   1.000  H
  H834     1.0000 0.59131  0.30251  0.47598  Biso   1.000  H
  C915     1.0000 0.11013  0.07500  0.53479  Biso   1.000  C
  C916     1.0000 0.02931  0.12818  0.43952  Biso   1.000  C
  C917     1.0000 0.11007  0.07500  0.53479  Biso   1.000  C
  H835     1.0000 0.15929  0.05762  0.55538  Biso   1.000  H
  C918     1.0000 0.04330  0.07388  0.56792  Biso   1.000  C
  C919     1.0000 0.96249  0.12711  0.47270  Biso   1.000  C
  H836     1.0000 0.02460  0.14630  0.39667  Biso   1.000  H
  H837     1.0000 0.02461  0.14630  0.39672  Biso   1.000  H
  C920     1.0000 0.96948  0.09991  0.53690  Biso   1.000  C
  H838     1.0000 0.04802  0.05581  0.61082  Biso   1.000  H
  H839     1.0000 0.91331  0.14439  0.45201  Biso   1.000  H
  H840     1.0000 0.92489  0.09922  0.55901  Biso   1.000  H
  C921     1.0000 0.05710  0.96982  0.77608  Biso   1.000  C
  O141     1.0000 0.03380  0.91479  0.74461  Biso   1.000  O
  O142     1.0000 0.03618  0.02349  0.73348  Biso   1.000  O
  H841     1.0000 0.03141  0.97402  0.81571  Biso   1.000  H
  H842     1.0000 0.11529  0.96909  0.79078  Biso   1.000  H
  C922     1.0000 0.96042  0.88959  0.75569  Biso   1.000  C
  C923     1.0000 0.96189  0.05381  0.73701  Biso   1.000  C
  C924     1.0000 0.88712  0.91269  0.72039  Biso   1.000  C
  C925     1.0000 0.96072  0.84071  0.80397  Biso   1.000  C
  C926     1.0000 0.96073  0.84071  0.80403  Biso   1.000  C
  C927     1.0000 0.88641  0.02979  0.70720  Biso   1.000  C
  C928     1.0000 0.96691  0.11109  0.77507  Biso   1.000  C
  C929     1.0000 0.96692  0.11109  0.77512  Biso   1.000  C
  C930     1.0000 0.88810  0.96660  0.67099  Biso   1.000  C
  C931     1.0000 0.81410  0.88681  0.73328  Biso   1.000  C
  C932     1.0000 0.88771  0.81479  0.81692  Biso   1.000  C
  O143     1.0000 0.03111  0.82421  0.84748  Biso   1.000  O
  C933     1.0000 0.81598  0.06309  0.71541  Biso   1.000  C
  C934     1.0000 0.89640  0.14429  0.78318  Biso   1.000  C
  O144     1.0000 0.03832  0.13160  0.81440  Biso   1.000  O
  C935     1.0000 0.81802  0.96260  0.60539  Biso   1.000  C
  H843     1.0000 0.94018  0.96430  0.65498  Biso   1.000  H
  C936     1.0000 0.81439  0.83788  0.78152  Biso   1.000  C
  H844     1.0000 0.76519  0.90209  0.70972  Biso   1.000  H
  O145     1.0000 0.89549  0.76220  0.86077  Biso   1.000  O
  O146     1.0000 0.89550  0.76220  0.86082  Biso   1.000  O
  C937     1.0000 0.09291  0.80009  0.81097  Biso   1.000  C
  C938     1.0000 0.09292  0.80009  0.81102  Biso   1.000  C
  C939     1.0000 0.05898  0.75902  0.83862  Biso   1.000  C
  C940     1.0000 0.82093  0.12032  0.75342  Biso   1.000  C
  H845     1.0000 0.76571  0.04712  0.69552  Biso   1.000  H
  O147     1.0000 0.90320  0.20348  0.81999  Biso   1.000  O
  C941     1.0000 0.09500  0.16309  0.77830  Biso   1.000  C
  C942     1.0000 0.82378  0.89892  0.56470  Biso   1.000  C
  H846     1.0000 0.76538  0.96460  0.61948  Biso   1.000  H
  H847     1.0000 0.82250  0.00000  0.57658  Biso   1.000  H
  C943     1.0000 0.74054  0.81020  0.79889  Biso   1.000  C
  C944     1.0000 0.74048  0.81020  0.79889  Biso   1.000  C
  C945     1.0000 0.87753  0.77338  0.92271  Biso   1.000  C
  C946     1.0000 0.87747  0.77338  0.92271  Biso   1.000  C
  C947     1.0000 0.17400  0.78798  0.85629  Biso   1.000  C
  H848     1.0000 0.07409  0.75971  0.78852  Biso   1.000  H
  H849     1.0000 0.10060  0.83158  0.77668  Biso   1.000  H
  H850     1.0000 0.07138  0.75302  0.79350  Biso   1.000  H
  H851     1.0000 0.01948  0.72689  0.84672  Biso   1.000  H
  C948     1.0000 0.13681  0.75360  0.89159  Biso   1.000  C
  C949     1.0000 0.74550  0.15460  0.76530  Biso   1.000  C
  C950     1.0000 0.88958  0.20162  0.88298  Biso   1.000  C
  H852     1.0000 0.09681  0.13912  0.73701  Biso   1.000  H
  H853     1.0000 0.07570  0.20680  0.76601  Biso   1.000  H
  C951     1.0000 0.18279  0.16768  0.81918  Biso   1.000  C
  C952     1.0000 0.89690  0.89790  0.52950  Biso   1.000  C
  H854     1.0000 0.77508  0.89438  0.53142  Biso   1.000  H
  H855     1.0000 0.82659  0.86191  0.59501  Biso   1.000  H
  C953     1.0000 0.71343  0.84379  0.85750  Biso   1.000  C
  H856     1.0000 0.75340  0.76508  0.81309  Biso   1.000  H
  C954     1.0000 0.67343  0.80609  0.73348  Biso   1.000  C
  C955     1.0000 0.71337  0.84379  0.85750  Biso   1.000  C
  C956     1.0000 0.67337  0.80609  0.73348  Biso   1.000  C
  O148     1.0000 0.79918  0.77098  0.93489  Biso   1.000  O
  H857     1.0000 0.90849  0.74232  0.95302  Biso   1.000  H
  H858     1.0000 0.89843  0.81640  0.93640  Biso   1.000  H
  H859     1.0000 0.19881  0.82929  0.87049  Biso   1.000  H
  H860     1.0000 0.21003  0.76571  0.82991  Biso   1.000  H
  C957     1.0000 0.17004  0.74701  0.91742  Biso   1.000  C
  C958     1.0000 0.16998  0.74701  0.91742  Biso   1.000  C
  H861     1.0000 0.16298  0.84462  0.85800  Biso   1.000  H
  H862     1.0000 0.22050  0.79022  0.83751  Biso   1.000  H
  H863     1.0000 0.11478  0.74789  0.92709  Biso   1.000  H
  H864     1.0000 0.16097  0.71068  0.89018  Biso   1.000  H
  H865     1.0000 0.12461  0.76102  0.93650  Biso   1.000  H
  C959     1.0000 0.19400  0.80580  0.87361  Biso   1.000  C
  C960     1.0000 0.72329  0.12999  0.83257  Biso   1.000  C
  H866     1.0000 0.75952  0.20089  0.77180  Biso   1.000  H
  C961     1.0000 0.67528  0.15089  0.70408  Biso   1.000  C
  O149     1.0000 0.81374  0.21119  0.89249  Biso   1.000  O
  H867     1.0000 0.90699  0.15929  0.90171  Biso   1.000  H
  H868     1.0000 0.92348  0.23429  0.90861  Biso   1.000  H
  O150     1.0000 0.81368  0.21119  0.89249  Biso   1.000  O
  H869     1.0000 0.22283  0.18131  0.79219  Biso   1.000  H
  H870     1.0000 0.20021  0.12828  0.84421  Biso   1.000  H
  C962     1.0000 0.15842  0.22052  0.86148  Biso   1.000  C
  H871     1.0000 0.22277  0.18131  0.79219  Biso   1.000  H
  C963     1.0000 0.97070  0.87182  0.56047  Biso   1.000  C
  C964     1.0000 0.97071  0.87182  0.56052  Biso   1.000  C
  C965     1.0000 0.88988  0.92500  0.46520  Biso   1.000  C
  C966     1.0000 0.75100  0.82489  0.92160  Biso   1.000  C
  C967     1.0000 0.66191  0.89780  0.84959  Biso   1.000  C
  H872     1.0000 0.69703  0.78871  0.69627  Biso   1.000  H
  H873     1.0000 0.65292  0.84950  0.72109  Biso   1.000  H
  C968     1.0000 0.60611  0.76351  0.74647  Biso   1.000  C
  H874     1.0000 0.69698  0.78871  0.69632  Biso   1.000  H
  C969     1.0000 0.60612  0.76351  0.74652  Biso   1.000  C
  C970     1.0000 0.22700  0.77538  0.97598  Biso   1.000  C
  H875     1.0000 0.18422  0.70248  0.90971  Biso   1.000  H
  C971     1.0000 0.25600  0.82221  0.93439  Biso   1.000  C
  C972     1.0000 0.76129  0.15841  0.89259  Biso   1.000  C
  C973     1.0000 0.67001  0.07788  0.83419  Biso   1.000  C
  H876     1.0000 0.65491  0.10660  0.69869  Biso   1.000  H
  H877     1.0000 0.69512  0.16329  0.66329  Biso   1.000  H
  C974     1.0000 0.60771  0.19669  0.71581  Biso   1.000  C
  H878     1.0000 0.16109  0.26329  0.84129  Biso   1.000  H
  H879     1.0000 0.10511  0.21339  0.87311  Biso   1.000  H
  C975     1.0000 0.22869  0.20919  0.92331  Biso   1.000  C
  C976     1.0000 0.03753  0.87289  0.52729  Biso   1.000  C
  H880     1.0000 0.97542  0.85370  0.60332  Biso   1.000  H
  C977     1.0000 0.95672  0.92612  0.43207  Biso   1.000  C
  C978     1.0000 0.95673  0.92612  0.43212  Biso   1.000  C
  H881     1.0000 0.84073  0.94238  0.44461  Biso   1.000  H
  C979     1.0000 0.73720  0.86010  0.97799  Biso   1.000  C
  C980     1.0000 0.64799  0.93291  0.90599  Biso   1.000  C
  H882     1.0000 0.63679  0.91030  0.80690  Biso   1.000  H
  H883     1.0000 0.62793  0.72308  0.76722  Biso   1.000  H
  H884     1.0000 0.57600  0.78500  0.77739  Biso   1.000  H
  C981     1.0000 0.54813  0.74808  0.67890  Biso   1.000  C
  C982     1.0000 0.54807  0.74808  0.67890  Biso   1.000  C
  O151     1.0000 0.21001  0.84408  0.98489  Biso   1.000  O
  H885     1.0000 0.28269  0.77050  0.96848  Biso   1.000  H
  H886     1.0000 0.28803  0.78402  0.95000  Biso   1.000  H
  H887     1.0000 0.22203  0.75170  0.01702  Biso   1.000  H
  H888     1.0000 0.29203  0.85639  0.92391  Biso   1.000  H
  C983     1.0000 0.74602  0.13458  0.95418  Biso   1.000  C
  C984     1.0000 0.65468  0.05410  0.89582  Biso   1.000  C
  H889     1.0000 0.64474  0.05899  0.79431  Biso   1.000  H
  H890     1.0000 0.64468  0.05899  0.79431  Biso   1.000  H
  H891     1.0000 0.62809  0.24108  0.71762  Biso   1.000  H
  H892     1.0000 0.59301  0.18692  0.75931  Biso   1.000  H
  C985     1.0000 0.53220  0.19332  0.66309  Biso   1.000  C
  H893     1.0000 0.23072  0.24581  0.95418  Biso   1.000  H
  H894     1.0000 0.28032  0.20709  0.90740  Biso   1.000  H
  O152     1.0000 0.21619  0.14888  0.95891  Biso   1.000  O
  H895     1.0000 0.08670  0.85561  0.54798  Biso   1.000  H
  C986     1.0000 0.03053  0.90009  0.46309  Biso   1.000  C
  C987     1.0000 0.03047  0.90009  0.46309  Biso   1.000  C
  H896     1.0000 0.95199  0.94419  0.38917  Biso   1.000  H
  H897     1.0000 0.95200  0.94419  0.38922  Biso   1.000  H
  C988     1.0000 0.68573  0.91411  0.97009  Biso   1.000  C
  C989     1.0000 0.68567  0.91411  0.97009  Biso   1.000  C
  O153     1.0000 0.78383  0.85112  0.04108  Biso   1.000  O
  C990     1.0000 0.60039  0.99512  0.90070  Biso   1.000  C
  C991     1.0000 0.47862  0.78471  0.65599  Biso   1.000  C
  C992     1.0000 0.56530  0.69261  0.64360  Biso   1.000  C
  C993     1.0000 0.25400  0.86542  0.04582  Biso   1.000  C
  C994     1.0000 0.69268  0.08252  0.95579  Biso   1.000  C
  O154     1.0000 0.79000  0.15592  0.01510  Biso   1.000  O
  C995     1.0000 0.47870  0.14288  0.67140  Biso   1.000  C
  C996     1.0000 0.51132  0.23922  0.61198  Biso   1.000  C
  C997     1.0000 0.26282  0.13990  0.02200  Biso   1.000  C
  H898     1.0000 0.07513  0.90078  0.44099  Biso   1.000  H
  O155     1.0000 0.67231  0.94961  0.02839  Biso   1.000  O
  C998     1.0000 0.77132  0.79081  0.07668  Biso   1.000  C
  H899     1.0000 0.57931  0.99961  0.94310  Biso   1.000  H
  C999     1.0000 0.52372  0.99761  0.84159  Biso   1.000  C
  H900     1.0000 0.46723  0.82172  0.67950  Biso   1.000  H
  C1000    1.0000 0.42629  0.76571  0.59788  Biso   1.000  C
  C1001    1.0000 0.51303  0.67371  0.58550  Biso   1.000  C
  H901     1.0000 0.61159  0.66829  0.65881  Biso   1.000  H
  C1002    1.0000 0.51297  0.67371  0.58550  Biso   1.000  C
  C1003    1.0000 0.23872  0.84159  0.10740  Biso   1.000  C
  C1004    1.0000 0.30733  0.91748  0.04421  Biso   1.000  C
  C1005    1.0000 0.30727  0.91748  0.04421  Biso   1.000  C
  O156     1.0000 0.67739  0.06031  0.01848  Biso   1.000  O
  C1006    1.0000 0.77302  0.22462  0.02401  Biso   1.000  C
  C1007    1.0000 0.74402  0.17779  0.06561  Biso   1.000  C
  H902     1.0000 0.49260  0.11221  0.70549  Biso   1.000  H
  C1008    1.0000 0.40421  0.13839  0.62860  Biso   1.000  C
  C1009    1.0000 0.43683  0.23468  0.56918  Biso   1.000  C
  H903     1.0000 0.54691  0.27291  0.60649  Biso   1.000  H
  C1010    1.0000 0.43677  0.23468  0.56918  Biso   1.000  C
  C1011    1.0000 0.24901  0.17511  0.07839  Biso   1.000  C
  C1012    1.0000 0.31428  0.08589  0.02991  Biso   1.000  C
  C1013    1.0000 0.71243  0.00171  0.04471  Biso   1.000  C
  C1014    1.0000 0.84160  0.77948  0.13852  Biso   1.000  C
  H904     1.0000 0.76929  0.75419  0.04582  Biso   1.000  H
  H905     1.0000 0.71970  0.79291  0.09259  Biso   1.000  H
  H906     1.0000 0.54029  0.98530  0.79939  Biso   1.000  H
  C1015    1.0000 0.45803  0.95268  0.85559  Biso   1.000  C
  C1016    1.0000 0.45797  0.95268  0.85559  Biso   1.000  C
  H907     1.0000 0.50303  0.04190  0.83701  Biso   1.000  H
  H908     1.0000 0.38000  0.79008  0.58268  Biso   1.000  H
  C1017    1.0000 0.44348  0.71019  0.56269  Biso   1.000  C
  H909     1.0000 0.52438  0.63660  0.56208  Biso   1.000  H
  O157     1.0000 0.18628  0.78881  0.10750  Biso   1.000  O
  C1018    1.0000 0.27673  0.87001  0.16742  Biso   1.000  C
  O158     1.0000 0.32263  0.93969  0.98152  Biso   1.000  O
  C1019    1.0000 0.34533  0.94590  0.10418  Biso   1.000  C
  C1020    1.0000 0.34527  0.94590  0.10418  Biso   1.000  C
  H910     1.0000 0.77799  0.24830  0.98298  Biso   1.000  H
  C1021    1.0000 0.82997  0.25299  0.08257  Biso   1.000  C
  H911     1.0000 0.71733  0.22950  0.03152  Biso   1.000  H
  C1022    1.0000 0.82998  0.25299  0.08262  Biso   1.000  C
  H912     1.0000 0.71199  0.21598  0.05000  Biso   1.000  H
  C1023    1.0000 0.80602  0.19420  0.12638  Biso   1.000  C
  H913     1.0000 0.70798  0.14361  0.07608  Biso   1.000  H
  H914     1.0000 0.36863  0.10469  0.63419  Biso   1.000  H
  C1024    1.0000 0.38329  0.18429  0.57759  Biso   1.000  C
  H915     1.0000 0.36857  0.10469  0.63419  Biso   1.000  H
  H916     1.0000 0.42289  0.26530  0.53519  Biso   1.000  H
  O159     1.0000 0.20084  0.22902  0.06510  Biso   1.000  O
  C1025    1.0000 0.28658  0.15621  0.14249  Biso   1.000  C
  O160     1.0000 0.20078  0.22902  0.06510  Biso   1.000  O
  O161     1.0000 0.32770  0.05039  0.97160  Biso   1.000  O
  C1026    1.0000 0.35203  0.06709  0.09400  Biso   1.000  C
  H917     1.0000 0.76481  0.99741  0.03051  Biso   1.000  H
  H918     1.0000 0.72201  0.00498  0.09340  Biso   1.000  H
  C1027    1.0000 0.81722  0.83232  0.18081  Biso   1.000  C
  H919     1.0000 0.83893  0.73671  0.15871  Biso   1.000  H
  H920     1.0000 0.89491  0.78661  0.12688  Biso   1.000  H
  H921     1.0000 0.47859  0.90830  0.85891  Biso   1.000  H
  H922     1.0000 0.44320  0.96411  0.89869  Biso   1.000  H
  C1028    1.0000 0.38139  0.95542  0.80080  Biso   1.000  C
  H923     1.0000 0.40871  0.69749  0.52402  Biso   1.000  H
  C1029    1.0000 0.11044  0.79838  0.11701  Biso   1.000  C
  C1030    1.0000 0.11038  0.79838  0.11701  Biso   1.000  C
  C1031    1.0000 0.25452  0.84540  0.23469  Biso   1.000  C
  C1032    1.0000 0.33000  0.92212  0.16581  Biso   1.000  C
  C1033    1.0000 0.28759  0.99829  0.95528  Biso   1.000  C
  C1034    1.0000 0.39963  0.00488  0.09929  Biso   1.000  C
  C1035    1.0000 0.39957  0.00488  0.09929  Biso   1.000  C
  C1036    1.0000 0.82602  0.21202  0.14370  Biso   1.000  C
  H924     1.0000 0.88523  0.25211  0.07291  Biso   1.000  H
  H925     1.0000 0.81579  0.29752  0.09028  Biso   1.000  H
  H926     1.0000 0.83899  0.28932  0.10981  Biso   1.000  H
  H927     1.0000 0.87541  0.23898  0.06349  Biso   1.000  H
  H928     1.0000 0.78999  0.23429  0.17009  Biso   1.000  H
  C1037    1.0000 0.86320  0.24640  0.10840  Biso   1.000  C
  H929     1.0000 0.83703  0.15538  0.14199  Biso   1.000  H
  H930     1.0000 0.77951  0.20978  0.16248  Biso   1.000  H
  H931     1.0000 0.33368  0.18131  0.54899  Biso   1.000  H
  C1038    1.0000 0.12248  0.22662  0.07729  Biso   1.000  C
  C1039    1.0000 0.25948  0.18980  0.20110  Biso   1.000  C
  C1040    1.0000 0.33811  0.10220  0.15040  Biso   1.000  C
  C1041    1.0000 0.90501  0.83691  0.22170  Biso   1.000  C
  H932     1.0000 0.77718  0.81869  0.20780  Biso   1.000  H
  H933     1.0000 0.79981  0.87172  0.15579  Biso   1.000  H
  C1042    1.0000 0.35058  0.89609  0.77361  Biso   1.000  C
  C1043    1.0000 0.34301  0.01382  0.77880  Biso   1.000  C
  O162     1.0000 0.09681  0.79652  0.18001  Biso   1.000  O
  H934     1.0000 0.09302  0.84071  0.09828  Biso   1.000  H
  H935     1.0000 0.07653  0.76571  0.09139  Biso   1.000  H
  H936     1.0000 0.07647  0.76571  0.09139  Biso   1.000  H
  C1044    1.0000 0.17909  0.87968  0.24657  Biso   1.000  C
  H937     1.0000 0.24050  0.79911  0.22819  Biso   1.000  H
  C1045    1.0000 0.32473  0.84911  0.29592  Biso   1.000  C
  C1046    1.0000 0.17910  0.87968  0.24662  Biso   1.000  C
  C1047    1.0000 0.32467  0.84911  0.29592  Biso   1.000  C
  H938     1.0000 0.35528  0.94101  0.20569  Biso   1.000  H
  H939     1.0000 0.27801  0.99502  0.90659  Biso   1.000  H
  H940     1.0000 0.23520  0.00259  0.96948  Biso   1.000  H
  H941     1.0000 0.42070  0.00039  0.05689  Biso   1.000  H
  C1048    1.0000 0.47629  0.00239  0.15840  Biso   1.000  C
  C1049    1.0000 0.90711  0.19991  0.18902  Biso   1.000  C
  H942     1.0000 0.80120  0.17071  0.12950  Biso   1.000  H
  C1050    1.0000 0.94098  0.24098  0.16138  Biso   1.000  C
  H943     1.0000 0.09152  0.25768  0.04697  Biso   1.000  H
  H944     1.0000 0.10159  0.18360  0.06359  Biso   1.000  H
  O163     1.0000 0.10452  0.23780  0.13922  Biso   1.000  O
  H945     1.0000 0.09153  0.25768  0.04703  Biso   1.000  H
  C1051    1.0000 0.18562  0.16212  0.21847  Biso   1.000  C
  H946     1.0000 0.24661  0.23492  0.18690  Biso   1.000  H
  C1052    1.0000 0.32658  0.19391  0.26651  Biso   1.000  C
  C1053    1.0000 0.18563  0.16212  0.21853  Biso   1.000  C
  H947     1.0000 0.36323  0.08970  0.19310  Biso   1.000  H
  O164     1.0000 0.96169  0.86840  0.18559  Biso   1.000  O
  H948     1.0000 0.90320  0.86088  0.26299  Biso   1.000  H
  H949     1.0000 0.92431  0.79320  0.23398  Biso   1.000  H
  C1054    1.0000 0.28133  0.89531  0.72442  Biso   1.000  C
  H950     1.0000 0.37620  0.85722  0.78821  Biso   1.000  H
  H951     1.0000 0.36348  0.05332  0.79698  Biso   1.000  H
  C1055    1.0000 0.27370  0.01299  0.72960  Biso   1.000  C
  C1056    1.0000 0.10361  0.85571  0.21681  Biso   1.000  C
  C1057    1.0000 0.18403  0.93691  0.28459  Biso   1.000  C
  C1058    1.0000 0.18397  0.93691  0.28459  Biso   1.000  C
  H952     1.0000 0.34511  0.89340  0.30130  Biso   1.000  H
  H953     1.0000 0.30490  0.83671  0.33670  Biso   1.000  H
  C1059    1.0000 0.39231  0.80331  0.28418  Biso   1.000  C
  H954     1.0000 0.49699  0.95810  0.16299  Biso   1.000  H
  H955     1.0000 0.45972  0.01470  0.20060  Biso   1.000  H
  C1060    1.0000 0.54198  0.04732  0.14441  Biso   1.000  C
  O165     1.0000 0.96891  0.17579  0.15251  Biso   1.000  O
  H956     1.0000 0.92592  0.24029  0.21148  Biso   1.000  H
  H957     1.0000 0.89942  0.16842  0.22331  Biso   1.000  H
  H958     1.0000 0.92863  0.24698  0.20649  Biso   1.000  H
  H959     1.0000 0.98054  0.27311  0.15332  Biso   1.000  H
  C1061    1.0000 0.11230  0.18521  0.18308  Biso   1.000  C
  C1062    1.0000 0.18591  0.11319  0.26671  Biso   1.000  C
  H960     1.0000 0.30299  0.21129  0.30372  Biso   1.000  H
  H961     1.0000 0.34710  0.15050  0.27890  Biso   1.000  H
  C1063    1.0000 0.39391  0.23649  0.25352  Biso   1.000  C
  C1064    1.0000 0.03310  0.88891  0.22492  Biso   1.000  C
  C1065    1.0000 0.24289  0.95371  0.70241  Biso   1.000  C
  H962     1.0000 0.26079  0.85580  0.70619  Biso   1.000  H
  H963     1.0000 0.24808  0.05191  0.71500  Biso   1.000  H
  C1066    1.0000 0.11361  0.97021  0.29279  Biso   1.000  C
  H964     1.0000 0.23430  0.95288  0.30448  Biso   1.000  H
  H965     1.0000 0.37193  0.75892  0.28237  Biso   1.000  H
  H966     1.0000 0.40700  0.81308  0.24068  Biso   1.000  H
  C1067    1.0000 0.46782  0.80668  0.33690  Biso   1.000  C
  H967     1.0000 0.37188  0.75892  0.28242  Biso   1.000  H
  H968     1.0000 0.52142  0.09170  0.14108  Biso   1.000  H
  H969     1.0000 0.55682  0.03589  0.10130  Biso   1.000  H
  C1068    1.0000 0.61862  0.04458  0.19919  Biso   1.000  C
  C1069    1.0000 0.03930  0.15929  0.19602  Biso   1.000  C
  C1070    1.0000 0.11289  0.08731  0.27960  Biso   1.000  C
  H970     1.0000 0.23482  0.09791  0.29028  Biso   1.000  H
  H971     1.0000 0.37209  0.27692  0.23277  Biso   1.000  H
  H972     1.0000 0.42402  0.21500  0.22260  Biso   1.000  H
  C1071    1.0000 0.45188  0.25192  0.32109  Biso   1.000  C
  H973     1.0000 0.37210  0.27692  0.23283  Biso   1.000  H
  C1072    1.0000 0.03812  0.94619  0.26299  Biso   1.000  C
  H974     1.0000 0.19673  0.95312  0.66958  Biso   1.000  H
  H975     1.0000 0.19667  0.95312  0.66958  Biso   1.000  H
  C1073    1.0000 0.11192  0.03340  0.32900  Biso   1.000  C
  C1074    1.0000 0.52131  0.85712  0.32860  Biso   1.000  C
  C1075    1.0000 0.48870  0.76078  0.38801  Biso   1.000  C
  C1076    1.0000 0.65700  0.98618  0.22119  Biso   1.000  C
  C1077    1.0000 0.64943  0.10391  0.22638  Biso   1.000  C
  C1078    1.0000 0.64937  0.10391  0.22638  Biso   1.000  C
  C1079    1.0000 0.03960  0.11041  0.24431  Biso   1.000  C
  C1080    1.0000 0.52140  0.21529  0.34400  Biso   1.000  C
  C1081    1.0000 0.43471  0.30739  0.35639  Biso   1.000  C
  O166     1.0000 0.96383  0.97651  0.26651  Biso   1.000  O
  O167     1.0000 0.96377  0.97651  0.26651  Biso   1.000  O
  H976     1.0000 0.05984  0.03570  0.34501  Biso   1.000  H
  C1082    1.0000 0.18199  0.03740  0.39461  Biso   1.000  C
  H977     1.0000 0.05978  0.03570  0.34501  Biso   1.000  H
  H978     1.0000 0.50741  0.88779  0.29451  Biso   1.000  H
  C1083    1.0000 0.59581  0.86161  0.37139  Biso   1.000  C
  C1084    1.0000 0.56319  0.76532  0.43081  Biso   1.000  C
  H979     1.0000 0.45310  0.72709  0.39350  Biso   1.000  H
  H980     1.0000 0.63653  0.94668  0.20302  Biso   1.000  H
  C1085    1.0000 0.72632  0.98701  0.27039  Biso   1.000  C
  C1086    1.0000 0.71869  0.10469  0.27557  Biso   1.000  C
  H981     1.0000 0.62382  0.14278  0.21178  Biso   1.000  H
  C1087    1.0000 0.71870  0.10469  0.27562  Biso   1.000  C
  O168     1.0000 0.96622  0.08521  0.25538  Biso   1.000  O
  H982     1.0000 0.53278  0.17828  0.32049  Biso   1.000  H
  C1088    1.0000 0.57372  0.23429  0.40211  Biso   1.000  C
  C1089    1.0000 0.48698  0.32629  0.41450  Biso   1.000  C
  H983     1.0000 0.38842  0.33171  0.34118  Biso   1.000  H
  C1090    1.0000 0.94292  0.03018  0.22391  Biso   1.000  C
  H984     1.0000 0.17751  0.00000  0.42341  Biso   1.000  H
  H985     1.0000 0.23463  0.03540  0.38051  Biso   1.000  H
  C1091    1.0000 0.17623  0.10108  0.43529  Biso   1.000  C
  C1092    1.0000 0.17617  0.10108  0.43529  Biso   1.000  C
  H986     1.0000 0.63138  0.89531  0.36581  Biso   1.000  H
  C1093    1.0000 0.61672  0.81571  0.42240  Biso   1.000  C
  H987     1.0000 0.57713  0.73470  0.46480  Biso   1.000  H
  H988     1.0000 0.75193  0.94809  0.28499  Biso   1.000  H
  H989     1.0000 0.75187  0.94809  0.28499  Biso   1.000  H
  C1094    1.0000 0.75713  0.04629  0.29758  Biso   1.000  C
  C1095    1.0000 0.75707  0.04629  0.29758  Biso   1.000  C
  H990     1.0000 0.73923  0.14420  0.29380  Biso   1.000  H
  H991     1.0000 0.62001  0.20992  0.41732  Biso   1.000  H
  C1096    1.0000 0.55653  0.28981  0.43731  Biso   1.000  C
  C1097    1.0000 0.55647  0.28981  0.43731  Biso   1.000  C
  H992     1.0000 0.47563  0.36340  0.43791  Biso   1.000  H
  H993     1.0000 0.47557  0.36340  0.43791  Biso   1.000  H
  H994     1.0000 0.96860  0.02598  0.18429  Biso   1.000  H
  H995     1.0000 0.88472  0.03091  0.20921  Biso   1.000  H
  H996     1.0000 0.22493  0.10562  0.46857  Biso   1.000  H
  H997     1.0000 0.17342  0.13809  0.40498  Biso   1.000  H
  C1098    1.0000 0.10312  0.10210  0.47049  Biso   1.000  C
  H998     1.0000 0.22488  0.10562  0.46862  Biso   1.000  H
  H999     1.0000 0.66634  0.81869  0.45100  Biso   1.000  H
  H1000    1.0000 0.66628  0.81869  0.45100  Biso   1.000  H
  H1001    1.0000 0.80328  0.04688  0.33041  Biso   1.000  H
  H1002    1.0000 0.59131  0.30251  0.47598  Biso   1.000  H
  C1099    1.0000 0.11013  0.07500  0.53479  Biso   1.000  C
  C1100    1.0000 0.02931  0.12818  0.43952  Biso   1.000  C
  C1101    1.0000 0.11007  0.07500  0.53479  Biso   1.000  C
  H1003    1.0000 0.15929  0.05762  0.55538  Biso   1.000  H
  C1102    1.0000 0.04330  0.07388  0.56792  Biso   1.000  C
  C1103    1.0000 0.96249  0.12711  0.47270  Biso   1.000  C
  H1004    1.0000 0.02460  0.14630  0.39667  Biso   1.000  H
  H1005    1.0000 0.02461  0.14630  0.39672  Biso   1.000  H
  C1104    1.0000 0.96948  0.09991  0.53690  Biso   1.000  C
  H1006    1.0000 0.04802  0.05581  0.61082  Biso   1.000  H
  H1007    1.0000 0.91331  0.14439  0.45201  Biso   1.000  H
  H1008    1.0000 0.92489  0.09922  0.55901  Biso   1.000  H
  C1105    1.0000 0.05710  0.96982  0.77608  Biso   1.000  C
  O169     1.0000 0.03380  0.91479  0.74461  Biso   1.000  O
  O170     1.0000 0.03618  0.02349  0.73348  Biso   1.000  O
  H1009    1.0000 0.03141  0.97402  0.81571  Biso   1.000  H
  H1010    1.0000 0.11529  0.96909  0.79078  Biso   1.000  H
  C1106    1.0000 0.96042  0.88959  0.75569  Biso   1.000  C
  C1107    1.0000 0.96189  0.05381  0.73701  Biso   1.000  C
  C1108    1.0000 0.88712  0.91269  0.72039  Biso   1.000  C
  C1109    1.0000 0.96072  0.84071  0.80397  Biso   1.000  C
  C1110    1.0000 0.96073  0.84071  0.80403  Biso   1.000  C
  C1111    1.0000 0.88641  0.02979  0.70720  Biso   1.000  C
  C1112    1.0000 0.96691  0.11109  0.77507  Biso   1.000  C
  C1113    1.0000 0.96692  0.11109  0.77512  Biso   1.000  C
  C1114    1.0000 0.88810  0.96660  0.67099  Biso   1.000  C
  C1115    1.0000 0.81410  0.88681  0.73328  Biso   1.000  C
  C1116    1.0000 0.88771  0.81479  0.81692  Biso   1.000  C
  O171     1.0000 0.03111  0.82421  0.84748  Biso   1.000  O
  C1117    1.0000 0.81598  0.06309  0.71541  Biso   1.000  C
  C1118    1.0000 0.89640  0.14429  0.78318  Biso   1.000  C
  O172     1.0000 0.03832  0.13160  0.81440  Biso   1.000  O
  C1119    1.0000 0.81802  0.96260  0.60539  Biso   1.000  C
  H1011    1.0000 0.94018  0.96430  0.65498  Biso   1.000  H
  C1120    1.0000 0.81439  0.83788  0.78152  Biso   1.000  C
  H1012    1.0000 0.76519  0.90209  0.70972  Biso   1.000  H
  O173     1.0000 0.89549  0.76220  0.86077  Biso   1.000  O
  O174     1.0000 0.89550  0.76220  0.86082  Biso   1.000  O
  C1121    1.0000 0.09291  0.80009  0.81097  Biso   1.000  C
  C1122    1.0000 0.09292  0.80009  0.81102  Biso   1.000  C
  C1123    1.0000 0.05898  0.75902  0.83862  Biso   1.000  C
  C1124    1.0000 0.82093  0.12032  0.75342  Biso   1.000  C
  H1013    1.0000 0.76571  0.04712  0.69552  Biso   1.000  H
  O175     1.0000 0.90320  0.20348  0.81999  Biso   1.000  O
  C1125    1.0000 0.09500  0.16309  0.77830  Biso   1.000  C
  C1126    1.0000 0.82378  0.89892  0.56470  Biso   1.000  C
  H1014    1.0000 0.76538  0.96460  0.61948  Biso   1.000  H
  H1015    1.0000 0.82250  0.00000  0.57658  Biso   1.000  H
  C1127    1.0000 0.74054  0.81020  0.79889  Biso   1.000  C
  C1128    1.0000 0.74048  0.81020  0.79889  Biso   1.000  C
  C1129    1.0000 0.87753  0.77338  0.92271  Biso   1.000  C
  C1130    1.0000 0.87747  0.77338  0.92271  Biso   1.000  C
  C1131    1.0000 0.17400  0.78798  0.85629  Biso   1.000  C
  H1016    1.0000 0.07409  0.75971  0.78852  Biso   1.000  H
  H1017    1.0000 0.10060  0.83158  0.77668  Biso   1.000  H
  H1018    1.0000 0.07138  0.75302  0.79350  Biso   1.000  H
  H1019    1.0000 0.01948  0.72689  0.84672  Biso   1.000  H
  C1132    1.0000 0.13681  0.75360  0.89159  Biso   1.000  C
  C1133    1.0000 0.74550  0.15460  0.76530  Biso   1.000  C
  C1134    1.0000 0.88958  0.20162  0.88298  Biso   1.000  C
  H1020    1.0000 0.09681  0.13912  0.73701  Biso   1.000  H
  H1021    1.0000 0.07570  0.20680  0.76601  Biso   1.000  H
  C1135    1.0000 0.18279  0.16768  0.81918  Biso   1.000  C
  C1136    1.0000 0.89690  0.89790  0.52950  Biso   1.000  C
  H1022    1.0000 0.77508  0.89438  0.53142  Biso   1.000  H
  H1023    1.0000 0.82659  0.86191  0.59501  Biso   1.000  H
  C1137    1.0000 0.71343  0.84379  0.85750  Biso   1.000  C
  H1024    1.0000 0.75340  0.76508  0.81309  Biso   1.000  H
  C1138    1.0000 0.67343  0.80609  0.73348  Biso   1.000  C
  C1139    1.0000 0.71337  0.84379  0.85750  Biso   1.000  C
  C1140    1.0000 0.67337  0.80609  0.73348  Biso   1.000  C
  O176     1.0000 0.79918  0.77098  0.93489  Biso   1.000  O
  H1025    1.0000 0.90849  0.74232  0.95302  Biso   1.000  H
  H1026    1.0000 0.89843  0.81640  0.93640  Biso   1.000  H
  H1027    1.0000 0.19881  0.82929  0.87049  Biso   1.000  H
  H1028    1.0000 0.21003  0.76571  0.82991  Biso   1.000  H
  C1141    1.0000 0.17004  0.74701  0.91742  Biso   1.000  C
  C1142    1.0000 0.16998  0.74701  0.91742  Biso   1.000  C
  H1029    1.0000 0.16298  0.84462  0.85800  Biso   1.000  H
  H1030    1.0000 0.22050  0.79022  0.83751  Biso   1.000  H
  H1031    1.0000 0.11478  0.74789  0.92709  Biso   1.000  H
  H1032    1.0000 0.16097  0.71068  0.89018  Biso   1.000  H
  H1033    1.0000 0.12461  0.76102  0.93650  Biso   1.000  H
  C1143    1.0000 0.19400  0.80580  0.87361  Biso   1.000  C
  C1144    1.0000 0.72329  0.12999  0.83257  Biso   1.000  C
  H1034    1.0000 0.75952  0.20089  0.77180  Biso   1.000  H
  C1145    1.0000 0.67528  0.15089  0.70408  Biso   1.000  C
  O177     1.0000 0.81374  0.21119  0.89249  Biso   1.000  O
  H1035    1.0000 0.90699  0.15929  0.90171  Biso   1.000  H
  H1036    1.0000 0.92348  0.23429  0.90861  Biso   1.000  H
  O178     1.0000 0.81368  0.21119  0.89249  Biso   1.000  O
  H1037    1.0000 0.22283  0.18131  0.79219  Biso   1.000  H
  H1038    1.0000 0.20021  0.12828  0.84421  Biso   1.000  H
  C1146    1.0000 0.15842  0.22052  0.86148  Biso   1.000  C
  H1039    1.0000 0.22277  0.18131  0.79219  Biso   1.000  H
  C1147    1.0000 0.97070  0.87182  0.56047  Biso   1.000  C
  C1148    1.0000 0.97071  0.87182  0.56052  Biso   1.000  C
  C1149    1.0000 0.88988  0.92500  0.46520  Biso   1.000  C
  C1150    1.0000 0.75100  0.82489  0.92160  Biso   1.000  C
  C1151    1.0000 0.66191  0.89780  0.84959  Biso   1.000  C
  H1040    1.0000 0.69703  0.78871  0.69627  Biso   1.000  H
  H1041    1.0000 0.65292  0.84950  0.72109  Biso   1.000  H
  C1152    1.0000 0.60611  0.76351  0.74647  Biso   1.000  C
  H1042    1.0000 0.69698  0.78871  0.69632  Biso   1.000  H
  C1153    1.0000 0.60612  0.76351  0.74652  Biso   1.000  C
  C1154    1.0000 0.22700  0.77538  0.97598  Biso   1.000  C
  H1043    1.0000 0.18422  0.70248  0.90971  Biso   1.000  H
  C1155    1.0000 0.25600  0.82221  0.93439  Biso   1.000  C
  C1156    1.0000 0.76129  0.15841  0.89259  Biso   1.000  C
  C1157    1.0000 0.67001  0.07788  0.83419  Biso   1.000  C
  H1044    1.0000 0.65491  0.10660  0.69869  Biso   1.000  H
  H1045    1.0000 0.69512  0.16329  0.66329  Biso   1.000  H
  C1158    1.0000 0.60771  0.19669  0.71581  Biso   1.000  C
  H1046    1.0000 0.16109  0.26329  0.84129  Biso   1.000  H
  H1047    1.0000 0.10511  0.21339  0.87311  Biso   1.000  H
  C1159    1.0000 0.22869  0.20919  0.92331  Biso   1.000  C
  C1160    1.0000 0.03753  0.87289  0.52729  Biso   1.000  C
  H1048    1.0000 0.97542  0.85370  0.60332  Biso   1.000  H
  C1161    1.0000 0.95672  0.92612  0.43207  Biso   1.000  C
  C1162    1.0000 0.95673  0.92612  0.43212  Biso   1.000  C
  H1049    1.0000 0.84073  0.94238  0.44461  Biso   1.000  H
  C1163    1.0000 0.73720  0.86010  0.97799  Biso   1.000  C
  C1164    1.0000 0.64799  0.93291  0.90599  Biso   1.000  C
  H1050    1.0000 0.63679  0.91030  0.80690  Biso   1.000  H
  H1051    1.0000 0.62793  0.72308  0.76722  Biso   1.000  H
  H1052    1.0000 0.57600  0.78500  0.77739  Biso   1.000  H
  C1165    1.0000 0.54813  0.74808  0.67890  Biso   1.000  C
  C1166    1.0000 0.54807  0.74808  0.67890  Biso   1.000  C
  O179     1.0000 0.21001  0.84408  0.98489  Biso   1.000  O
  H1053    1.0000 0.28269  0.77050  0.96848  Biso   1.000  H
  H1054    1.0000 0.28803  0.78402  0.95000  Biso   1.000  H
  H1055    1.0000 0.22203  0.75170  0.01702  Biso   1.000  H
  H1056    1.0000 0.29203  0.85639  0.92391  Biso   1.000  H
  C1167    1.0000 0.74602  0.13458  0.95418  Biso   1.000  C
  C1168    1.0000 0.65468  0.05410  0.89582  Biso   1.000  C
  H1057    1.0000 0.64474  0.05899  0.79431  Biso   1.000  H
  H1058    1.0000 0.64468  0.05899  0.79431  Biso   1.000  H
  H1059    1.0000 0.62809  0.24108  0.71762  Biso   1.000  H
  H1060    1.0000 0.59301  0.18692  0.75931  Biso   1.000  H
  C1169    1.0000 0.53220  0.19332  0.66309  Biso   1.000  C
  H1061    1.0000 0.23072  0.24581  0.95418  Biso   1.000  H
  H1062    1.0000 0.28032  0.20709  0.90740  Biso   1.000  H
  O180     1.0000 0.21619  0.14888  0.95891  Biso   1.000  O
  H1063    1.0000 0.08670  0.85561  0.54798  Biso   1.000  H
  C1170    1.0000 0.03053  0.90009  0.46309  Biso   1.000  C
  C1171    1.0000 0.03047  0.90009  0.46309  Biso   1.000  C
  H1064    1.0000 0.95199  0.94419  0.38917  Biso   1.000  H
  H1065    1.0000 0.95200  0.94419  0.38922  Biso   1.000  H
  C1172    1.0000 0.68573  0.91411  0.97009  Biso   1.000  C
  C1173    1.0000 0.68567  0.91411  0.97009  Biso   1.000  C
  O181     1.0000 0.78383  0.85112  0.04108  Biso   1.000  O
  C1174    1.0000 0.60039  0.99512  0.90070  Biso   1.000  C
  C1175    1.0000 0.47862  0.78471  0.65599  Biso   1.000  C
  C1176    1.0000 0.56530  0.69261  0.64360  Biso   1.000  C
  C1177    1.0000 0.25400  0.86542  0.04582  Biso   1.000  C
  C1178    1.0000 0.69268  0.08252  0.95579  Biso   1.000  C
  O182     1.0000 0.79000  0.15592  0.01510  Biso   1.000  O
  C1179    1.0000 0.47870  0.14288  0.67140  Biso   1.000  C
  C1180    1.0000 0.51132  0.23922  0.61198  Biso   1.000  C
  C1181    1.0000 0.26282  0.13990  0.02200  Biso   1.000  C
  H1066    1.0000 0.07513  0.90078  0.44099  Biso   1.000  H
  O183     1.0000 0.67231  0.94961  0.02839  Biso   1.000  O
  C1182    1.0000 0.77132  0.79081  0.07668  Biso   1.000  C
  H1067    1.0000 0.57931  0.99961  0.94310  Biso   1.000  H
  C1183    1.0000 0.52372  0.99761  0.84159  Biso   1.000  C
  H1068    1.0000 0.46723  0.82172  0.67950  Biso   1.000  H
  C1184    1.0000 0.42629  0.76571  0.59788  Biso   1.000  C
  C1185    1.0000 0.51303  0.67371  0.58550  Biso   1.000  C
  H1069    1.0000 0.61159  0.66829  0.65881  Biso   1.000  H
  C1186    1.0000 0.51297  0.67371  0.58550  Biso   1.000  C
  C1187    1.0000 0.23872  0.84159  0.10740  Biso   1.000  C
  C1188    1.0000 0.30733  0.91748  0.04421  Biso   1.000  C
  C1189    1.0000 0.30727  0.91748  0.04421  Biso   1.000  C
  O184     1.0000 0.67739  0.06031  0.01848  Biso   1.000  O
  C1190    1.0000 0.77302  0.22462  0.02401  Biso   1.000  C
  C1191    1.0000 0.74402  0.17779  0.06561  Biso   1.000  C
  H1070    1.0000 0.49260  0.11221  0.70549  Biso   1.000  H
  C1192    1.0000 0.40421  0.13839  0.62860  Biso   1.000  C
  C1193    1.0000 0.43683  0.23468  0.56918  Biso   1.000  C
  H1071    1.0000 0.54691  0.27291  0.60649  Biso   1.000  H
  C1194    1.0000 0.43677  0.23468  0.56918  Biso   1.000  C
  C1195    1.0000 0.24901  0.17511  0.07839  Biso   1.000  C
  C1196    1.0000 0.31428  0.08589  0.02991  Biso   1.000  C
  C1197    1.0000 0.71243  0.00171  0.04471  Biso   1.000  C
  C1198    1.0000 0.84160  0.77948  0.13852  Biso   1.000  C
  H1072    1.0000 0.76929  0.75419  0.04582  Biso   1.000  H
  H1073    1.0000 0.71970  0.79291  0.09259  Biso   1.000  H
  H1074    1.0000 0.54029  0.98530  0.79939  Biso   1.000  H
  C1199    1.0000 0.45803  0.95268  0.85559  Biso   1.000  C
  C1200    1.0000 0.45797  0.95268  0.85559  Biso   1.000  C
  H1075    1.0000 0.50303  0.04190  0.83701  Biso   1.000  H
  H1076    1.0000 0.38000  0.79008  0.58268  Biso   1.000  H
  C1201    1.0000 0.44348  0.71019  0.56269  Biso   1.000  C
  H1077    1.0000 0.52438  0.63660  0.56208  Biso   1.000  H
  O185     1.0000 0.18628  0.78881  0.10750  Biso   1.000  O
  C1202    1.0000 0.27673  0.87001  0.16742  Biso   1.000  C
  O186     1.0000 0.32263  0.93969  0.98152  Biso   1.000  O
  C1203    1.0000 0.34533  0.94590  0.10418  Biso   1.000  C
  C1204    1.0000 0.34527  0.94590  0.10418  Biso   1.000  C
  H1078    1.0000 0.77799  0.24830  0.98298  Biso   1.000  H
  C1205    1.0000 0.82997  0.25299  0.08257  Biso   1.000  C
  H1079    1.0000 0.71733  0.22950  0.03152  Biso   1.000  H
  C1206    1.0000 0.82998  0.25299  0.08262  Biso   1.000  C
  H1080    1.0000 0.71199  0.21598  0.05000  Biso   1.000  H
  C1207    1.0000 0.80602  0.19420  0.12638  Biso   1.000  C
  H1081    1.0000 0.70798  0.14361  0.07608  Biso   1.000  H
  H1082    1.0000 0.36863  0.10469  0.63419  Biso   1.000  H
  C1208    1.0000 0.38329  0.18429  0.57759  Biso   1.000  C
  H1083    1.0000 0.36857  0.10469  0.63419  Biso   1.000  H
  H1084    1.0000 0.42289  0.26530  0.53519  Biso   1.000  H
  O187     1.0000 0.20084  0.22902  0.06510  Biso   1.000  O
  C1209    1.0000 0.28658  0.15621  0.14249  Biso   1.000  C
  O188     1.0000 0.20078  0.22902  0.06510  Biso   1.000  O
  O189     1.0000 0.32770  0.05039  0.97160  Biso   1.000  O
  C1210    1.0000 0.35203  0.06709  0.09400  Biso   1.000  C
  H1085    1.0000 0.76481  0.99741  0.03051  Biso   1.000  H
  H1086    1.0000 0.72201  0.00498  0.09340  Biso   1.000  H
  C1211    1.0000 0.81722  0.83232  0.18081  Biso   1.000  C
  H1087    1.0000 0.83893  0.73671  0.15871  Biso   1.000  H
  H1088    1.0000 0.89491  0.78661  0.12688  Biso   1.000  H
  H1089    1.0000 0.47859  0.90830  0.85891  Biso   1.000  H
  H1090    1.0000 0.44320  0.96411  0.89869  Biso   1.000  H
  C1212    1.0000 0.38139  0.95542  0.80080  Biso   1.000  C
  H1091    1.0000 0.40871  0.69749  0.52402  Biso   1.000  H
  C1213    1.0000 0.11044  0.79838  0.11701  Biso   1.000  C
  C1214    1.0000 0.11038  0.79838  0.11701  Biso   1.000  C
  C1215    1.0000 0.25452  0.84540  0.23469  Biso   1.000  C
  C1216    1.0000 0.33000  0.92212  0.16581  Biso   1.000  C
  C1217    1.0000 0.28759  0.99829  0.95528  Biso   1.000  C
  C1218    1.0000 0.39963  0.00488  0.09929  Biso   1.000  C
  C1219    1.0000 0.39957  0.00488  0.09929  Biso   1.000  C
  C1220    1.0000 0.82602  0.21202  0.14370  Biso   1.000  C
  H1092    1.0000 0.88523  0.25211  0.07291  Biso   1.000  H
  H1093    1.0000 0.81579  0.29752  0.09028  Biso   1.000  H
  H1094    1.0000 0.83899  0.28932  0.10981  Biso   1.000  H
  H1095    1.0000 0.87541  0.23898  0.06349  Biso   1.000  H
  H1096    1.0000 0.78999  0.23429  0.17009  Biso   1.000  H
  C1221    1.0000 0.86320  0.24640  0.10840  Biso   1.000  C
  H1097    1.0000 0.83703  0.15538  0.14199  Biso   1.000  H
  H1098    1.0000 0.77951  0.20978  0.16248  Biso   1.000  H
  H1099    1.0000 0.33368  0.18131  0.54899  Biso   1.000  H
  C1222    1.0000 0.12248  0.22662  0.07729  Biso   1.000  C
  C1223    1.0000 0.25948  0.18980  0.20110  Biso   1.000  C
  C1224    1.0000 0.33811  0.10220  0.15040  Biso   1.000  C
  C1225    1.0000 0.90501  0.83691  0.22170  Biso   1.000  C
  H1100    1.0000 0.77718  0.81869  0.20780  Biso   1.000  H
  H1101    1.0000 0.79981  0.87172  0.15579  Biso   1.000  H
  C1226    1.0000 0.35058  0.89609  0.77361  Biso   1.000  C
  C1227    1.0000 0.34301  0.01382  0.77880  Biso   1.000  C
  O190     1.0000 0.09681  0.79652  0.18001  Biso   1.000  O
  H1102    1.0000 0.09302  0.84071  0.09828  Biso   1.000  H
  H1103    1.0000 0.07653  0.76571  0.09139  Biso   1.000  H
  H1104    1.0000 0.07647  0.76571  0.09139  Biso   1.000  H
  C1228    1.0000 0.17909  0.87968  0.24657  Biso   1.000  C
  H1105    1.0000 0.24050  0.79911  0.22819  Biso   1.000  H
  C1229    1.0000 0.32473  0.84911  0.29592  Biso   1.000  C
  C1230    1.0000 0.17910  0.87968  0.24662  Biso   1.000  C
  C1231    1.0000 0.32467  0.84911  0.29592  Biso   1.000  C
  H1106    1.0000 0.35528  0.94101  0.20569  Biso   1.000  H
  H1107    1.0000 0.27801  0.99502  0.90659  Biso   1.000  H
  H1108    1.0000 0.23520  0.00259  0.96948  Biso   1.000  H
  H1109    1.0000 0.42070  0.00039  0.05689  Biso   1.000  H
  C1232    1.0000 0.47629  0.00239  0.15840  Biso   1.000  C
  C1233    1.0000 0.90711  0.19991  0.18902  Biso   1.000  C
  H1110    1.0000 0.80120  0.17071  0.12950  Biso   1.000  H
  C1234    1.0000 0.94098  0.24098  0.16138  Biso   1.000  C
  H1111    1.0000 0.09152  0.25768  0.04697  Biso   1.000  H
  H1112    1.0000 0.10159  0.18360  0.06359  Biso   1.000  H
  O191     1.0000 0.10452  0.23780  0.13922  Biso   1.000  O
  H1113    1.0000 0.09153  0.25768  0.04703  Biso   1.000  H
  C1235    1.0000 0.18562  0.16212  0.21847  Biso   1.000  C
  H1114    1.0000 0.24661  0.23492  0.18690  Biso   1.000  H
  C1236    1.0000 0.32658  0.19391  0.26651  Biso   1.000  C
  C1237    1.0000 0.18563  0.16212  0.21853  Biso   1.000  C
  H1115    1.0000 0.36323  0.08970  0.19310  Biso   1.000  H
  O192     1.0000 0.96169  0.86840  0.18559  Biso   1.000  O
  H1116    1.0000 0.90320  0.86088  0.26299  Biso   1.000  H
  H1117    1.0000 0.92431  0.79320  0.23398  Biso   1.000  H
  C1238    1.0000 0.28133  0.89531  0.72442  Biso   1.000  C
  H1118    1.0000 0.37620  0.85722  0.78821  Biso   1.000  H
  H1119    1.0000 0.36348  0.05332  0.79698  Biso   1.000  H
  C1239    1.0000 0.27370  0.01299  0.72960  Biso   1.000  C
  C1240    1.0000 0.10361  0.85571  0.21681  Biso   1.000  C
  C1241    1.0000 0.18403  0.93691  0.28459  Biso   1.000  C
  C1242    1.0000 0.18397  0.93691  0.28459  Biso   1.000  C
  H1120    1.0000 0.34511  0.89340  0.30130  Biso   1.000  H
  H1121    1.0000 0.30490  0.83671  0.33670  Biso   1.000  H
  C1243    1.0000 0.39231  0.80331  0.28418  Biso   1.000  C
  H1122    1.0000 0.49699  0.95810  0.16299  Biso   1.000  H
  H1123    1.0000 0.45972  0.01470  0.20060  Biso   1.000  H
  C1244    1.0000 0.54198  0.04732  0.14441  Biso   1.000  C
  O193     1.0000 0.96891  0.17579  0.15251  Biso   1.000  O
  H1124    1.0000 0.92592  0.24029  0.21148  Biso   1.000  H
  H1125    1.0000 0.89942  0.16842  0.22331  Biso   1.000  H
  H1126    1.0000 0.92863  0.24698  0.20649  Biso   1.000  H
  H1127    1.0000 0.98054  0.27311  0.15332  Biso   1.000  H
  C1245    1.0000 0.11230  0.18521  0.18308  Biso   1.000  C
  C1246    1.0000 0.18591  0.11319  0.26671  Biso   1.000  C
  H1128    1.0000 0.30299  0.21129  0.30372  Biso   1.000  H
  H1129    1.0000 0.34710  0.15050  0.27890  Biso   1.000  H
  C1247    1.0000 0.39391  0.23649  0.25352  Biso   1.000  C
  C1248    1.0000 0.03310  0.88891  0.22492  Biso   1.000  C
  C1249    1.0000 0.24289  0.95371  0.70241  Biso   1.000  C
  H1130    1.0000 0.26079  0.85580  0.70619  Biso   1.000  H
  H1131    1.0000 0.24808  0.05191  0.71500  Biso   1.000  H
  C1250    1.0000 0.11361  0.97021  0.29279  Biso   1.000  C
  H1132    1.0000 0.23430  0.95288  0.30448  Biso   1.000  H
  H1133    1.0000 0.37193  0.75892  0.28237  Biso   1.000  H
  H1134    1.0000 0.40700  0.81308  0.24068  Biso   1.000  H
  C1251    1.0000 0.46782  0.80668  0.33690  Biso   1.000  C
  H1135    1.0000 0.37188  0.75892  0.28242  Biso   1.000  H
  H1136    1.0000 0.52142  0.09170  0.14108  Biso   1.000  H
  H1137    1.0000 0.55682  0.03589  0.10130  Biso   1.000  H
  C1252    1.0000 0.61862  0.04458  0.19919  Biso   1.000  C
  C1253    1.0000 0.03930  0.15929  0.19602  Biso   1.000  C
  C1254    1.0000 0.11289  0.08731  0.27960  Biso   1.000  C
  H1138    1.0000 0.23482  0.09791  0.29028  Biso   1.000  H
  H1139    1.0000 0.37209  0.27692  0.23277  Biso   1.000  H
  H1140    1.0000 0.42402  0.21500  0.22260  Biso   1.000  H
  C1255    1.0000 0.45188  0.25192  0.32109  Biso   1.000  C
  H1141    1.0000 0.37210  0.27692  0.23283  Biso   1.000  H
  C1256    1.0000 0.03812  0.94619  0.26299  Biso   1.000  C
  H1142    1.0000 0.19673  0.95312  0.66958  Biso   1.000  H
  H1143    1.0000 0.19667  0.95312  0.66958  Biso   1.000  H
  C1257    1.0000 0.11192  0.03340  0.32900  Biso   1.000  C
  C1258    1.0000 0.52131  0.85712  0.32860  Biso   1.000  C
  C1259    1.0000 0.48870  0.76078  0.38801  Biso   1.000  C
  C1260    1.0000 0.65700  0.98618  0.22119  Biso   1.000  C
  C1261    1.0000 0.64943  0.10391  0.22638  Biso   1.000  C
  C1262    1.0000 0.64937  0.10391  0.22638  Biso   1.000  C
  C1263    1.0000 0.03960  0.11041  0.24431  Biso   1.000  C
  C1264    1.0000 0.52140  0.21529  0.34400  Biso   1.000  C
  C1265    1.0000 0.43471  0.30739  0.35639  Biso   1.000  C
  O194     1.0000 0.96383  0.97651  0.26651  Biso   1.000  O
  O195     1.0000 0.96377  0.97651  0.26651  Biso   1.000  O
  H1144    1.0000 0.05984  0.03570  0.34501  Biso   1.000  H
  C1266    1.0000 0.18199  0.03740  0.39461  Biso   1.000  C
  H1145    1.0000 0.05978  0.03570  0.34501  Biso   1.000  H
  H1146    1.0000 0.50741  0.88779  0.29451  Biso   1.000  H
  C1267    1.0000 0.59581  0.86161  0.37139  Biso   1.000  C
  C1268    1.0000 0.56319  0.76532  0.43081  Biso   1.000  C
  H1147    1.0000 0.45310  0.72709  0.39350  Biso   1.000  H
  H1148    1.0000 0.63653  0.94668  0.20302  Biso   1.000  H
  C1269    1.0000 0.72632  0.98701  0.27039  Biso   1.000  C
  C1270    1.0000 0.71869  0.10469  0.27557  Biso   1.000  C
  H1149    1.0000 0.62382  0.14278  0.21178  Biso   1.000  H
  C1271    1.0000 0.71870  0.10469  0.27562  Biso   1.000  C
  O196     1.0000 0.96622  0.08521  0.25538  Biso   1.000  O
  H1150    1.0000 0.53278  0.17828  0.32049  Biso   1.000  H
  C1272    1.0000 0.57372  0.23429  0.40211  Biso   1.000  C
  C1273    1.0000 0.48698  0.32629  0.41450  Biso   1.000  C
  H1151    1.0000 0.38842  0.33171  0.34118  Biso   1.000  H
  C1274    1.0000 0.94292  0.03018  0.22391  Biso   1.000  C
  H1152    1.0000 0.17751  0.00000  0.42341  Biso   1.000  H
  H1153    1.0000 0.23463  0.03540  0.38051  Biso   1.000  H
  C1275    1.0000 0.17623  0.10108  0.43529  Biso   1.000  C
  C1276    1.0000 0.17617  0.10108  0.43529  Biso   1.000  C
  H1154    1.0000 0.63138  0.89531  0.36581  Biso   1.000  H
  C1277    1.0000 0.61672  0.81571  0.42240  Biso   1.000  C
  H1155    1.0000 0.57713  0.73470  0.46480  Biso   1.000  H
  H1156    1.0000 0.75193  0.94809  0.28499  Biso   1.000  H
  H1157    1.0000 0.75187  0.94809  0.28499  Biso   1.000  H
  C1278    1.0000 0.75713  0.04629  0.29758  Biso   1.000  C
  C1279    1.0000 0.75707  0.04629  0.29758  Biso   1.000  C
  H1158    1.0000 0.73923  0.14420  0.29380  Biso   1.000  H
  H1159    1.0000 0.62001  0.20992  0.41732  Biso   1.000  H
  C1280    1.0000 0.55653  0.28981  0.43731  Biso   1.000  C
  C1281    1.0000 0.55647  0.28981  0.43731  Biso   1.000  C
  H1160    1.0000 0.47563  0.36340  0.43791  Biso   1.000  H
  H1161    1.0000 0.47557  0.36340  0.43791  Biso   1.000  H
  H1162    1.0000 0.96860  0.02598  0.18429  Biso   1.000  H
  H1163    1.0000 0.88472  0.03091  0.20921  Biso   1.000  H
  H1164    1.0000 0.22493  0.10562  0.46857  Biso   1.000  H
  H1165    1.0000 0.17342  0.13809  0.40498  Biso   1.000  H
  C1282    1.0000 0.10312  0.10210  0.47049  Biso   1.000  C
  H1166    1.0000 0.22488  0.10562  0.46862  Biso   1.000  H
  H1167    1.0000 0.66634  0.81869  0.45100  Biso   1.000  H
  H1168    1.0000 0.66628  0.81869  0.45100  Biso   1.000  H
  H1169    1.0000 0.80328  0.04688  0.33041  Biso   1.000  H
  H1170    1.0000 0.59131  0.30251  0.47598  Biso   1.000  H
  C1283    1.0000 0.11013  0.07500  0.53479  Biso   1.000  C
  C1284    1.0000 0.02931  0.12818  0.43952  Biso   1.000  C
  C1285    1.0000 0.11007  0.07500  0.53479  Biso   1.000  C
  H1171    1.0000 0.15929  0.05762  0.55538  Biso   1.000  H
  C1286    1.0000 0.04330  0.07388  0.56792  Biso   1.000  C
  C1287    1.0000 0.96249  0.12711  0.47270  Biso   1.000  C
  H1172    1.0000 0.02460  0.14630  0.39667  Biso   1.000  H
  H1173    1.0000 0.02461  0.14630  0.39672  Biso   1.000  H
  C1288    1.0000 0.96948  0.09991  0.53690  Biso   1.000  C
  H1174    1.0000 0.04802  0.05581  0.61082  Biso   1.000  H
  H1175    1.0000 0.91331  0.14439  0.45201  Biso   1.000  H
  H1176    1.0000 0.92489  0.09922  0.55901  Biso   1.000  H
  C1289    1.0000 0.05710  0.96982  0.77608  Biso   1.000  C
  O197     1.0000 0.03380  0.91479  0.74461  Biso   1.000  O
  O198     1.0000 0.03618  0.02349  0.73348  Biso   1.000  O
  H1177    1.0000 0.03141  0.97402  0.81571  Biso   1.000  H
  H1178    1.0000 0.11529  0.96909  0.79078  Biso   1.000  H
  C1290    1.0000 0.96042  0.88959  0.75569  Biso   1.000  C
  C1291    1.0000 0.96189  0.05381  0.73701  Biso   1.000  C
  C1292    1.0000 0.88712  0.91269  0.72039  Biso   1.000  C
  C1293    1.0000 0.96072  0.84071  0.80397  Biso   1.000  C
  C1294    1.0000 0.96073  0.84071  0.80403  Biso   1.000  C
  C1295    1.0000 0.88641  0.02979  0.70720  Biso   1.000  C
  C1296    1.0000 0.96691  0.11109  0.77507  Biso   1.000  C
  C1297    1.0000 0.96692  0.11109  0.77512  Biso   1.000  C
  C1298    1.0000 0.88810  0.96660  0.67099  Biso   1.000  C
  C1299    1.0000 0.81410  0.88681  0.73328  Biso   1.000  C
  C1300    1.0000 0.88771  0.81479  0.81692  Biso   1.000  C
  O199     1.0000 0.03111  0.82421  0.84748  Biso   1.000  O
  C1301    1.0000 0.81598  0.06309  0.71541  Biso   1.000  C
  C1302    1.0000 0.89640  0.14429  0.78318  Biso   1.000  C
  O200     1.0000 0.03832  0.13160  0.81440  Biso   1.000  O
  C1303    1.0000 0.81802  0.96260  0.60539  Biso   1.000  C
  H1179    1.0000 0.94018  0.96430  0.65498  Biso   1.000  H
  C1304    1.0000 0.81439  0.83788  0.78152  Biso   1.000  C
  H1180    1.0000 0.76519  0.90209  0.70972  Biso   1.000  H
  O201     1.0000 0.89549  0.76220  0.86077  Biso   1.000  O
  O202     1.0000 0.89550  0.76220  0.86082  Biso   1.000  O
  C1305    1.0000 0.09291  0.80009  0.81097  Biso   1.000  C
  C1306    1.0000 0.09292  0.80009  0.81102  Biso   1.000  C
  C1307    1.0000 0.05898  0.75902  0.83862  Biso   1.000  C
  C1308    1.0000 0.82093  0.12032  0.75342  Biso   1.000  C
  H1181    1.0000 0.76571  0.04712  0.69552  Biso   1.000  H
  O203     1.0000 0.90320  0.20348  0.81999  Biso   1.000  O
  C1309    1.0000 0.09500  0.16309  0.77830  Biso   1.000  C
  C1310    1.0000 0.82378  0.89892  0.56470  Biso   1.000  C
  H1182    1.0000 0.76538  0.96460  0.61948  Biso   1.000  H
  H1183    1.0000 0.82250  0.00000  0.57658  Biso   1.000  H
  C1311    1.0000 0.74054  0.81020  0.79889  Biso   1.000  C
  C1312    1.0000 0.74048  0.81020  0.79889  Biso   1.000  C
  C1313    1.0000 0.87753  0.77338  0.92271  Biso   1.000  C
  C1314    1.0000 0.87747  0.77338  0.92271  Biso   1.000  C
  C1315    1.0000 0.17400  0.78798  0.85629  Biso   1.000  C
  H1184    1.0000 0.07409  0.75971  0.78852  Biso   1.000  H
  H1185    1.0000 0.10060  0.83158  0.77668  Biso   1.000  H
  H1186    1.0000 0.07138  0.75302  0.79350  Biso   1.000  H
  H1187    1.0000 0.01948  0.72689  0.84672  Biso   1.000  H
  C1316    1.0000 0.13681  0.75360  0.89159  Biso   1.000  C
  C1317    1.0000 0.74550  0.15460  0.76530  Biso   1.000  C
  C1318    1.0000 0.88958  0.20162  0.88298  Biso   1.000  C
  H1188    1.0000 0.09681  0.13912  0.73701  Biso   1.000  H
  H1189    1.0000 0.07570  0.20680  0.76601  Biso   1.000  H
  C1319    1.0000 0.18279  0.16768  0.81918  Biso   1.000  C
  C1320    1.0000 0.89690  0.89790  0.52950  Biso   1.000  C
  H1190    1.0000 0.77508  0.89438  0.53142  Biso   1.000  H
  H1191    1.0000 0.82659  0.86191  0.59501  Biso   1.000  H
  C1321    1.0000 0.71343  0.84379  0.85750  Biso   1.000  C
  H1192    1.0000 0.75340  0.76508  0.81309  Biso   1.000  H
  C1322    1.0000 0.67343  0.80609  0.73348  Biso   1.000  C
  C1323    1.0000 0.71337  0.84379  0.85750  Biso   1.000  C
  C1324    1.0000 0.67337  0.80609  0.73348  Biso   1.000  C
  O204     1.0000 0.79918  0.77098  0.93489  Biso   1.000  O
  H1193    1.0000 0.90849  0.74232  0.95302  Biso   1.000  H
  H1194    1.0000 0.89843  0.81640  0.93640  Biso   1.000  H
  H1195    1.0000 0.19881  0.82929  0.87049  Biso   1.000  H
  H1196    1.0000 0.21003  0.76571  0.82991  Biso   1.000  H
  C1325    1.0000 0.17004  0.74701  0.91742  Biso   1.000  C
  C1326    1.0000 0.16998  0.74701  0.91742  Biso   1.000  C
  H1197    1.0000 0.16298  0.84462  0.85800  Biso   1.000  H
  H1198    1.0000 0.22050  0.79022  0.83751  Biso   1.000  H
  H1199    1.0000 0.11478  0.74789  0.92709  Biso   1.000  H
  H1200    1.0000 0.16097  0.71068  0.89018  Biso   1.000  H
  H1201    1.0000 0.12461  0.76102  0.93650  Biso   1.000  H
  C1327    1.0000 0.19400  0.80580  0.87361  Biso   1.000  C
  C1328    1.0000 0.72329  0.12999  0.83257  Biso   1.000  C
  H1202    1.0000 0.75952  0.20089  0.77180  Biso   1.000  H
  C1329    1.0000 0.67528  0.15089  0.70408  Biso   1.000  C
  O205     1.0000 0.81374  0.21119  0.89249  Biso   1.000  O
  H1203    1.0000 0.90699  0.15929  0.90171  Biso   1.000  H
  H1204    1.0000 0.92348  0.23429  0.90861  Biso   1.000  H
  O206     1.0000 0.81368  0.21119  0.89249  Biso   1.000  O
  H1205    1.0000 0.22283  0.18131  0.79219  Biso   1.000  H
  H1206    1.0000 0.20021  0.12828  0.84421  Biso   1.000  H
  C1330    1.0000 0.15842  0.22052  0.86148  Biso   1.000  C
  H1207    1.0000 0.22277  0.18131  0.79219  Biso   1.000  H
  C1331    1.0000 0.97070  0.87182  0.56047  Biso   1.000  C
  C1332    1.0000 0.97071  0.87182  0.56052  Biso   1.000  C
  C1333    1.0000 0.88988  0.92500  0.46520  Biso   1.000  C
  C1334    1.0000 0.75100  0.82489  0.92160  Biso   1.000  C
  C1335    1.0000 0.66191  0.89780  0.84959  Biso   1.000  C
  H1208    1.0000 0.69703  0.78871  0.69627  Biso   1.000  H
  H1209    1.0000 0.65292  0.84950  0.72109  Biso   1.000  H
  C1336    1.0000 0.60611  0.76351  0.74647  Biso   1.000  C
  H1210    1.0000 0.69698  0.78871  0.69632  Biso   1.000  H
  C1337    1.0000 0.60612  0.76351  0.74652  Biso   1.000  C
  C1338    1.0000 0.22700  0.77538  0.97598  Biso   1.000  C
  H1211    1.0000 0.18422  0.70248  0.90971  Biso   1.000  H
  C1339    1.0000 0.25600  0.82221  0.93439  Biso   1.000  C
  C1340    1.0000 0.76129  0.15841  0.89259  Biso   1.000  C
  C1341    1.0000 0.67001  0.07788  0.83419  Biso   1.000  C
  H1212    1.0000 0.65491  0.10660  0.69869  Biso   1.000  H
  H1213    1.0000 0.69512  0.16329  0.66329  Biso   1.000  H
  C1342    1.0000 0.60771  0.19669  0.71581  Biso   1.000  C
  H1214    1.0000 0.16109  0.26329  0.84129  Biso   1.000  H
  H1215    1.0000 0.10511  0.21339  0.87311  Biso   1.000  H
  C1343    1.0000 0.22869  0.20919  0.92331  Biso   1.000  C
  C1344    1.0000 0.03753  0.87289  0.52729  Biso   1.000  C
  H1216    1.0000 0.97542  0.85370  0.60332  Biso   1.000  H
  C1345    1.0000 0.95672  0.92612  0.43207  Biso   1.000  C
  C1346    1.0000 0.95673  0.92612  0.43212  Biso   1.000  C
  H1217    1.0000 0.84073  0.94238  0.44461  Biso   1.000  H
  C1347    1.0000 0.73720  0.86010  0.97799  Biso   1.000  C
  C1348    1.0000 0.64799  0.93291  0.90599  Biso   1.000  C
  H1218    1.0000 0.63679  0.91030  0.80690  Biso   1.000  H
  H1219    1.0000 0.62793  0.72308  0.76722  Biso   1.000  H
  H1220    1.0000 0.57600  0.78500  0.77739  Biso   1.000  H
  C1349    1.0000 0.54813  0.74808  0.67890  Biso   1.000  C
  C1350    1.0000 0.54807  0.74808  0.67890  Biso   1.000  C
  O207     1.0000 0.21001  0.84408  0.98489  Biso   1.000  O
  H1221    1.0000 0.28269  0.77050  0.96848  Biso   1.000  H
  H1222    1.0000 0.28803  0.78402  0.95000  Biso   1.000  H
  H1223    1.0000 0.22203  0.75170  0.01702  Biso   1.000  H
  H1224    1.0000 0.29203  0.85639  0.92391  Biso   1.000  H
  C1351    1.0000 0.74602  0.13458  0.95418  Biso   1.000  C
  C1352    1.0000 0.65468  0.05410  0.89582  Biso   1.000  C
  H1225    1.0000 0.64474  0.05899  0.79431  Biso   1.000  H
  H1226    1.0000 0.64468  0.05899  0.79431  Biso   1.000  H
  H1227    1.0000 0.62809  0.24108  0.71762  Biso   1.000  H
  H1228    1.0000 0.59301  0.18692  0.75931  Biso   1.000  H
  C1353    1.0000 0.53220  0.19332  0.66309  Biso   1.000  C
  H1229    1.0000 0.23072  0.24581  0.95418  Biso   1.000  H
  H1230    1.0000 0.28032  0.20709  0.90740  Biso   1.000  H
  O208     1.0000 0.21619  0.14888  0.95891  Biso   1.000  O
  H1231    1.0000 0.08670  0.85561  0.54798  Biso   1.000  H
  C1354    1.0000 0.03053  0.90009  0.46309  Biso   1.000  C
  C1355    1.0000 0.03047  0.90009  0.46309  Biso   1.000  C
  H1232    1.0000 0.95199  0.94419  0.38917  Biso   1.000  H
  H1233    1.0000 0.95200  0.94419  0.38922  Biso   1.000  H
  C1356    1.0000 0.68573  0.91411  0.97009  Biso   1.000  C
  C1357    1.0000 0.68567  0.91411  0.97009  Biso   1.000  C
  O209     1.0000 0.78383  0.85112  0.04108  Biso   1.000  O
  C1358    1.0000 0.60039  0.99512  0.90070  Biso   1.000  C
  C1359    1.0000 0.47862  0.78471  0.65599  Biso   1.000  C
  C1360    1.0000 0.56530  0.69261  0.64360  Biso   1.000  C
  C1361    1.0000 0.25400  0.86542  0.04582  Biso   1.000  C
  C1362    1.0000 0.69268  0.08252  0.95579  Biso   1.000  C
  O210     1.0000 0.79000  0.15592  0.01510  Biso   1.000  O
  C1363    1.0000 0.47870  0.14288  0.67140  Biso   1.000  C
  C1364    1.0000 0.51132  0.23922  0.61198  Biso   1.000  C
  C1365    1.0000 0.26282  0.13990  0.02200  Biso   1.000  C
  H1234    1.0000 0.07513  0.90078  0.44099  Biso   1.000  H
  O211     1.0000 0.67231  0.94961  0.02839  Biso   1.000  O
  C1366    1.0000 0.77132  0.79081  0.07668  Biso   1.000  C
  H1235    1.0000 0.57931  0.99961  0.94310  Biso   1.000  H
  C1367    1.0000 0.52372  0.99761  0.84159  Biso   1.000  C
  H1236    1.0000 0.46723  0.82172  0.67950  Biso   1.000  H
  C1368    1.0000 0.42629  0.76571  0.59788  Biso   1.000  C
  C1369    1.0000 0.51303  0.67371  0.58550  Biso   1.000  C
  H1237    1.0000 0.61159  0.66829  0.65881  Biso   1.000  H
  C1370    1.0000 0.51297  0.67371  0.58550  Biso   1.000  C
  C1371    1.0000 0.23872  0.84159  0.10740  Biso   1.000  C
  C1372    1.0000 0.30733  0.91748  0.04421  Biso   1.000  C
  C1373    1.0000 0.30727  0.91748  0.04421  Biso   1.000  C
  O212     1.0000 0.67739  0.06031  0.01848  Biso   1.000  O
  C1374    1.0000 0.77302  0.22462  0.02401  Biso   1.000  C
  C1375    1.0000 0.74402  0.17779  0.06561  Biso   1.000  C
  H1238    1.0000 0.49260  0.11221  0.70549  Biso   1.000  H
  C1376    1.0000 0.40421  0.13839  0.62860  Biso   1.000  C
  C1377    1.0000 0.43683  0.23468  0.56918  Biso   1.000  C
  H1239    1.0000 0.54691  0.27291  0.60649  Biso   1.000  H
  C1378    1.0000 0.43677  0.23468  0.56918  Biso   1.000  C
  C1379    1.0000 0.24901  0.17511  0.07839  Biso   1.000  C
  C1380    1.0000 0.31428  0.08589  0.02991  Biso   1.000  C
  C1381    1.0000 0.71243  0.00171  0.04471  Biso   1.000  C
  C1382    1.0000 0.84160  0.77948  0.13852  Biso   1.000  C
  H1240    1.0000 0.76929  0.75419  0.04582  Biso   1.000  H
  H1241    1.0000 0.71970  0.79291  0.09259  Biso   1.000  H
  H1242    1.0000 0.54029  0.98530  0.79939  Biso   1.000  H
  C1383    1.0000 0.45803  0.95268  0.85559  Biso   1.000  C
  C1384    1.0000 0.45797  0.95268  0.85559  Biso   1.000  C
  H1243    1.0000 0.50303  0.04190  0.83701  Biso   1.000  H
  H1244    1.0000 0.38000  0.79008  0.58268  Biso   1.000  H
  C1385    1.0000 0.44348  0.71019  0.56269  Biso   1.000  C
  H1245    1.0000 0.52438  0.63660  0.56208  Biso   1.000  H
  O213     1.0000 0.18628  0.78881  0.10750  Biso   1.000  O
  C1386    1.0000 0.27673  0.87001  0.16742  Biso   1.000  C
  O214     1.0000 0.32263  0.93969  0.98152  Biso   1.000  O
  C1387    1.0000 0.34533  0.94590  0.10418  Biso   1.000  C
  C1388    1.0000 0.34527  0.94590  0.10418  Biso   1.000  C
  H1246    1.0000 0.77799  0.24830  0.98298  Biso   1.000  H
  C1389    1.0000 0.82997  0.25299  0.08257  Biso   1.000  C
  H1247    1.0000 0.71733  0.22950  0.03152  Biso   1.000  H
  C1390    1.0000 0.82998  0.25299  0.08262  Biso   1.000  C
  H1248    1.0000 0.71199  0.21598  0.05000  Biso   1.000  H
  C1391    1.0000 0.80602  0.19420  0.12638  Biso   1.000  C
  H1249    1.0000 0.70798  0.14361  0.07608  Biso   1.000  H
  H1250    1.0000 0.36863  0.10469  0.63419  Biso   1.000  H
  C1392    1.0000 0.38329  0.18429  0.57759  Biso   1.000  C
  H1251    1.0000 0.36857  0.10469  0.63419  Biso   1.000  H
  H1252    1.0000 0.42289  0.26530  0.53519  Biso   1.000  H
  O215     1.0000 0.20084  0.22902  0.06510  Biso   1.000  O
  C1393    1.0000 0.28658  0.15621  0.14249  Biso   1.000  C
  O216     1.0000 0.20078  0.22902  0.06510  Biso   1.000  O
  O217     1.0000 0.32770  0.05039  0.97160  Biso   1.000  O
  C1394    1.0000 0.35203  0.06709  0.09400  Biso   1.000  C
  H1253    1.0000 0.76481  0.99741  0.03051  Biso   1.000  H
  H1254    1.0000 0.72201  0.00498  0.09340  Biso   1.000  H
  C1395    1.0000 0.81722  0.83232  0.18081  Biso   1.000  C
  H1255    1.0000 0.83893  0.73671  0.15871  Biso   1.000  H
  H1256    1.0000 0.89491  0.78661  0.12688  Biso   1.000  H
  H1257    1.0000 0.47859  0.90830  0.85891  Biso   1.000  H
  H1258    1.0000 0.44320  0.96411  0.89869  Biso   1.000  H
  C1396    1.0000 0.38139  0.95542  0.80080  Biso   1.000  C
  H1259    1.0000 0.40871  0.69749  0.52402  Biso   1.000  H
  C1397    1.0000 0.11044  0.79838  0.11701  Biso   1.000  C
  C1398    1.0000 0.11038  0.79838  0.11701  Biso   1.000  C
  C1399    1.0000 0.25452  0.84540  0.23469  Biso   1.000  C
  C1400    1.0000 0.33000  0.92212  0.16581  Biso   1.000  C
  C1401    1.0000 0.28759  0.99829  0.95528  Biso   1.000  C
  C1402    1.0000 0.39963  0.00488  0.09929  Biso   1.000  C
  C1403    1.0000 0.39957  0.00488  0.09929  Biso   1.000  C
  C1404    1.0000 0.82602  0.21202  0.14370  Biso   1.000  C
  H1260    1.0000 0.88523  0.25211  0.07291  Biso   1.000  H
  H1261    1.0000 0.81579  0.29752  0.09028  Biso   1.000  H
  H1262    1.0000 0.83899  0.28932  0.10981  Biso   1.000  H
  H1263    1.0000 0.87541  0.23898  0.06349  Biso   1.000  H
  H1264    1.0000 0.78999  0.23429  0.17009  Biso   1.000  H
  C1405    1.0000 0.86320  0.24640  0.10840  Biso   1.000  C
  H1265    1.0000 0.83703  0.15538  0.14199  Biso   1.000  H
  H1266    1.0000 0.77951  0.20978  0.16248  Biso   1.000  H
  H1267    1.0000 0.33368  0.18131  0.54899  Biso   1.000  H
  C1406    1.0000 0.12248  0.22662  0.07729  Biso   1.000  C
  C1407    1.0000 0.25948  0.18980  0.20110  Biso   1.000  C
  C1408    1.0000 0.33811  0.10220  0.15040  Biso   1.000  C
  C1409    1.0000 0.90501  0.83691  0.22170  Biso   1.000  C
  H1268    1.0000 0.77718  0.81869  0.20780  Biso   1.000  H
  H1269    1.0000 0.79981  0.87172  0.15579  Biso   1.000  H
  C1410    1.0000 0.35058  0.89609  0.77361  Biso   1.000  C
  C1411    1.0000 0.34301  0.01382  0.77880  Biso   1.000  C
  O218     1.0000 0.09681  0.79652  0.18001  Biso   1.000  O
  H1270    1.0000 0.09302  0.84071  0.09828  Biso   1.000  H
  H1271    1.0000 0.07653  0.76571  0.09139  Biso   1.000  H
  H1272    1.0000 0.07647  0.76571  0.09139  Biso   1.000  H
  C1412    1.0000 0.17909  0.87968  0.24657  Biso   1.000  C
  H1273    1.0000 0.24050  0.79911  0.22819  Biso   1.000  H
  C1413    1.0000 0.32473  0.84911  0.29592  Biso   1.000  C
  C1414    1.0000 0.17910  0.87968  0.24662  Biso   1.000  C
  C1415    1.0000 0.32467  0.84911  0.29592  Biso   1.000  C
  H1274    1.0000 0.35528  0.94101  0.20569  Biso   1.000  H
  H1275    1.0000 0.27801  0.99502  0.90659  Biso   1.000  H
  H1276    1.0000 0.23520  0.00259  0.96948  Biso   1.000  H
  H1277    1.0000 0.42070  0.00039  0.05689  Biso   1.000  H
  C1416    1.0000 0.47629  0.00239  0.15840  Biso   1.000  C
  C1417    1.0000 0.90711  0.19991  0.18902  Biso   1.000  C
  H1278    1.0000 0.80120  0.17071  0.12950  Biso   1.000  H
  C1418    1.0000 0.94098  0.24098  0.16138  Biso   1.000  C
  H1279    1.0000 0.09152  0.25768  0.04697  Biso   1.000  H
  H1280    1.0000 0.10159  0.18360  0.06359  Biso   1.000  H
  O219     1.0000 0.10452  0.23780  0.13922  Biso   1.000  O
  H1281    1.0000 0.09153  0.25768  0.04703  Biso   1.000  H
  C1419    1.0000 0.18562  0.16212  0.21847  Biso   1.000  C
  H1282    1.0000 0.24661  0.23492  0.18690  Biso   1.000  H
  C1420    1.0000 0.32658  0.19391  0.26651  Biso   1.000  C
  C1421    1.0000 0.18563  0.16212  0.21853  Biso   1.000  C
  H1283    1.0000 0.36323  0.08970  0.19310  Biso   1.000  H
  O220     1.0000 0.96169  0.86840  0.18559  Biso   1.000  O
  H1284    1.0000 0.90320  0.86088  0.26299  Biso   1.000  H
  H1285    1.0000 0.92431  0.79320  0.23398  Biso   1.000  H
  C1422    1.0000 0.28133  0.89531  0.72442  Biso   1.000  C
  H1286    1.0000 0.37620  0.85722  0.78821  Biso   1.000  H
  H1287    1.0000 0.36348  0.05332  0.79698  Biso   1.000  H
  C1423    1.0000 0.27370  0.01299  0.72960  Biso   1.000  C
  C1424    1.0000 0.10361  0.85571  0.21681  Biso   1.000  C
  C1425    1.0000 0.18403  0.93691  0.28459  Biso   1.000  C
  C1426    1.0000 0.18397  0.93691  0.28459  Biso   1.000  C
  H1288    1.0000 0.34511  0.89340  0.30130  Biso   1.000  H
  H1289    1.0000 0.30490  0.83671  0.33670  Biso   1.000  H
  C1427    1.0000 0.39231  0.80331  0.28418  Biso   1.000  C
  H1290    1.0000 0.49699  0.95810  0.16299  Biso   1.000  H
  H1291    1.0000 0.45972  0.01470  0.20060  Biso   1.000  H
  C1428    1.0000 0.54198  0.04732  0.14441  Biso   1.000  C
  O221     1.0000 0.96891  0.17579  0.15251  Biso   1.000  O
  H1292    1.0000 0.92592  0.24029  0.21148  Biso   1.000  H
  H1293    1.0000 0.89942  0.16842  0.22331  Biso   1.000  H
  H1294    1.0000 0.92863  0.24698  0.20649  Biso   1.000  H
  H1295    1.0000 0.98054  0.27311  0.15332  Biso   1.000  H
  C1429    1.0000 0.11230  0.18521  0.18308  Biso   1.000  C
  C1430    1.0000 0.18591  0.11319  0.26671  Biso   1.000  C
  H1296    1.0000 0.30299  0.21129  0.30372  Biso   1.000  H
  H1297    1.0000 0.34710  0.15050  0.27890  Biso   1.000  H
  C1431    1.0000 0.39391  0.23649  0.25352  Biso   1.000  C
  C1432    1.0000 0.03310  0.88891  0.22492  Biso   1.000  C
  C1433    1.0000 0.24289  0.95371  0.70241  Biso   1.000  C
  H1298    1.0000 0.26079  0.85580  0.70619  Biso   1.000  H
  H1299    1.0000 0.24808  0.05191  0.71500  Biso   1.000  H
  C1434    1.0000 0.11361  0.97021  0.29279  Biso   1.000  C
  H1300    1.0000 0.23430  0.95288  0.30448  Biso   1.000  H
  H1301    1.0000 0.37193  0.75892  0.28237  Biso   1.000  H
  H1302    1.0000 0.40700  0.81308  0.24068  Biso   1.000  H
  C1435    1.0000 0.46782  0.80668  0.33690  Biso   1.000  C
  H1303    1.0000 0.37188  0.75892  0.28242  Biso   1.000  H
  H1304    1.0000 0.52142  0.09170  0.14108  Biso   1.000  H
  H1305    1.0000 0.55682  0.03589  0.10130  Biso   1.000  H
  C1436    1.0000 0.61862  0.04458  0.19919  Biso   1.000  C
  C1437    1.0000 0.03930  0.15929  0.19602  Biso   1.000  C
  C1438    1.0000 0.11289  0.08731  0.27960  Biso   1.000  C
  H1306    1.0000 0.23482  0.09791  0.29028  Biso   1.000  H
  H1307    1.0000 0.37209  0.27692  0.23277  Biso   1.000  H
  H1308    1.0000 0.42402  0.21500  0.22260  Biso   1.000  H
  C1439    1.0000 0.45188  0.25192  0.32109  Biso   1.000  C
  H1309    1.0000 0.37210  0.27692  0.23283  Biso   1.000  H
  C1440    1.0000 0.03812  0.94619  0.26299  Biso   1.000  C
  H1310    1.0000 0.19673  0.95312  0.66958  Biso   1.000  H
  H1311    1.0000 0.19667  0.95312  0.66958  Biso   1.000  H
  C1441    1.0000 0.11192  0.03340  0.32900  Biso   1.000  C
  C1442    1.0000 0.52131  0.85712  0.32860  Biso   1.000  C
  C1443    1.0000 0.48870  0.76078  0.38801  Biso   1.000  C
  C1444    1.0000 0.65700  0.98618  0.22119  Biso   1.000  C
  C1445    1.0000 0.64943  0.10391  0.22638  Biso   1.000  C
  C1446    1.0000 0.64937  0.10391  0.22638  Biso   1.000  C
  C1447    1.0000 0.03960  0.11041  0.24431  Biso   1.000  C
  C1448    1.0000 0.52140  0.21529  0.34400  Biso   1.000  C
  C1449    1.0000 0.43471  0.30739  0.35639  Biso   1.000  C
  O222     1.0000 0.96383  0.97651  0.26651  Biso   1.000  O
  O223     1.0000 0.96377  0.97651  0.26651  Biso   1.000  O
  H1312    1.0000 0.05984  0.03570  0.34501  Biso   1.000  H
  C1450    1.0000 0.18199  0.03740  0.39461  Biso   1.000  C
  H1313    1.0000 0.05978  0.03570  0.34501  Biso   1.000  H
  H1314    1.0000 0.50741  0.88779  0.29451  Biso   1.000  H
  C1451    1.0000 0.59581  0.86161  0.37139  Biso   1.000  C
  C1452    1.0000 0.56319  0.76532  0.43081  Biso   1.000  C
  H1315    1.0000 0.45310  0.72709  0.39350  Biso   1.000  H
  H1316    1.0000 0.63653  0.94668  0.20302  Biso   1.000  H
  C1453    1.0000 0.72632  0.98701  0.27039  Biso   1.000  C
  C1454    1.0000 0.71869  0.10469  0.27557  Biso   1.000  C
  H1317    1.0000 0.62382  0.14278  0.21178  Biso   1.000  H
  C1455    1.0000 0.71870  0.10469  0.27562  Biso   1.000  C
  O224     1.0000 0.96622  0.08521  0.25538  Biso   1.000  O
  H1318    1.0000 0.53278  0.17828  0.32049  Biso   1.000  H
  C1456    1.0000 0.57372  0.23429  0.40211  Biso   1.000  C
  C1457    1.0000 0.48698  0.32629  0.41450  Biso   1.000  C
  H1319    1.0000 0.38842  0.33171  0.34118  Biso   1.000  H
  C1458    1.0000 0.94292  0.03018  0.22391  Biso   1.000  C
  H1320    1.0000 0.17751  0.00000  0.42341  Biso   1.000  H
  H1321    1.0000 0.23463  0.03540  0.38051  Biso   1.000  H
  C1459    1.0000 0.17623  0.10108  0.43529  Biso   1.000  C
  C1460    1.0000 0.17617  0.10108  0.43529  Biso   1.000  C
  H1322    1.0000 0.63138  0.89531  0.36581  Biso   1.000  H
  C1461    1.0000 0.61672  0.81571  0.42240  Biso   1.000  C
  H1323    1.0000 0.57713  0.73470  0.46480  Biso   1.000  H
  H1324    1.0000 0.75193  0.94809  0.28499  Biso   1.000  H
  H1325    1.0000 0.75187  0.94809  0.28499  Biso   1.000  H
  C1462    1.0000 0.75713  0.04629  0.29758  Biso   1.000  C
  C1463    1.0000 0.75707  0.04629  0.29758  Biso   1.000  C
  H1326    1.0000 0.73923  0.14420  0.29380  Biso   1.000  H
  H1327    1.0000 0.62001  0.20992  0.41732  Biso   1.000  H
  C1464    1.0000 0.55653  0.28981  0.43731  Biso   1.000  C
  C1465    1.0000 0.55647  0.28981  0.43731  Biso   1.000  C
  H1328    1.0000 0.47563  0.36340  0.43791  Biso   1.000  H
  H1329    1.0000 0.47557  0.36340  0.43791  Biso   1.000  H
  H1330    1.0000 0.96860  0.02598  0.18429  Biso   1.000  H
  H1331    1.0000 0.88472  0.03091  0.20921  Biso   1.000  H
  H1332    1.0000 0.22493  0.10562  0.46857  Biso   1.000  H
  H1333    1.0000 0.17342  0.13809  0.40498  Biso   1.000  H
  C1466    1.0000 0.10312  0.10210  0.47049  Biso   1.000  C
  H1334    1.0000 0.22488  0.10562  0.46862  Biso   1.000  H
  H1335    1.0000 0.66634  0.81869  0.45100  Biso   1.000  H
  H1336    1.0000 0.66628  0.81869  0.45100  Biso   1.000  H
  H1337    1.0000 0.80328  0.04688  0.33041  Biso   1.000  H
  H1338    1.0000 0.59131  0.30251  0.47598  Biso   1.000  H
  C1467    1.0000 0.11013  0.07500  0.53479  Biso   1.000  C
  C1468    1.0000 0.02931  0.12818  0.43952  Biso   1.000  C
  C1469    1.0000 0.11007  0.07500  0.53479  Biso   1.000  C
  H1339    1.0000 0.15929  0.05762  0.55538  Biso   1.000  H
  C1470    1.0000 0.04330  0.07388  0.56792  Biso   1.000  C
  C1471    1.0000 0.96249  0.12711  0.47270  Biso   1.000  C
  H1340    1.0000 0.02460  0.14630  0.39667  Biso   1.000  H
  H1341    1.0000 0.02461  0.14630  0.39672  Biso   1.000  H
  C1472    1.0000 0.96948  0.09991  0.53690  Biso   1.000  C
  H1342    1.0000 0.04802  0.05581  0.61082  Biso   1.000  H
  H1343    1.0000 0.91331  0.14439  0.45201  Biso   1.000  H
  H1344    1.0000 0.92489  0.09922  0.55901  Biso   1.000  H
  C1473    1.0000 0.77132  0.70921  0.57668  Biso   1.000  C
  O225     1.0000 0.78382  0.64891  0.54109  Biso   1.000  O
  C1474    1.0000 0.84159  0.72049  0.63852  Biso   1.000  C
  H1345    1.0000 0.76929  0.74579  0.54582  Biso   1.000  H
  H1346    1.0000 0.71969  0.70711  0.59260  Biso   1.000  H
  C1475    1.0000 0.73719  0.63992  0.47799  Biso   1.000  C
  C1476    1.0000 0.81722  0.66771  0.68081  Biso   1.000  C
  H1347    1.0000 0.83892  0.76332  0.65871  Biso   1.000  H
  H1348    1.0000 0.89490  0.71341  0.62689  Biso   1.000  H
  C1477    1.0000 0.68573  0.58592  0.47009  Biso   1.000  C
  C1478    1.0000 0.75100  0.67508  0.42160  Biso   1.000  C
  C1479    1.0000 0.90501  0.66312  0.72170  Biso   1.000  C
  H1349    1.0000 0.77718  0.68128  0.70780  Biso   1.000  H
  H1350    1.0000 0.79980  0.62830  0.65579  Biso   1.000  H
  C1480    1.0000 0.64798  0.56712  0.40599  Biso   1.000  C
  O226     1.0000 0.67231  0.55042  0.52840  Biso   1.000  O
  C1481    1.0000 0.71343  0.65618  0.35750  Biso   1.000  C
  O227     1.0000 0.79917  0.72899  0.43489  Biso   1.000  O
  O228     1.0000 0.96169  0.63162  0.68560  Biso   1.000  O
  H1351    1.0000 0.90320  0.63909  0.76299  Biso   1.000  H
  H1352    1.0000 0.92431  0.70682  0.73399  Biso   1.000  H
  C1482    1.0000 0.60038  0.50491  0.40070  Biso   1.000  C
  C1483    1.0000 0.66190  0.60218  0.34960  Biso   1.000  C
  C1484    1.0000 0.71242  0.49832  0.54471  Biso   1.000  C
  C1485    1.0000 0.74047  0.68978  0.29889  Biso   1.000  C
  C1486    1.0000 0.87753  0.72660  0.42271  Biso   1.000  C
  C1487    1.0000 0.03310  0.61111  0.72492  Biso   1.000  C
  C1488    1.0000 0.65468  0.44592  0.39582  Biso   1.000  C
  H1353    1.0000 0.57931  0.50042  0.44310  Biso   1.000  H
  C1489    1.0000 0.52372  0.50242  0.34159  Biso   1.000  C
  H1354    1.0000 0.63679  0.58968  0.30690  Biso   1.000  H
  O229     1.0000 0.67738  0.43972  0.51848  Biso   1.000  O
  H1355    1.0000 0.72201  0.49499  0.59340  Biso   1.000  H
  H1356    1.0000 0.76481  0.50261  0.53051  Biso   1.000  H
  C1490    1.0000 0.81439  0.66209  0.28152  Biso   1.000  C
  H1357    1.0000 0.75340  0.73490  0.31309  Biso   1.000  H
  C1491    1.0000 0.67343  0.69388  0.23348  Biso   1.000  C
  O230     1.0000 0.89550  0.73778  0.36082  Biso   1.000  O
  H1358    1.0000 0.90849  0.75770  0.45302  Biso   1.000  H
  H1359    1.0000 0.89842  0.68358  0.43640  Biso   1.000  H
  C1492    1.0000 0.03812  0.55379  0.76299  Biso   1.000  C
  C1493    1.0000 0.10361  0.64432  0.71681  Biso   1.000  C
  C1494    1.0000 0.67001  0.42209  0.33419  Biso   1.000  C
  C1495    1.0000 0.69268  0.41750  0.45579  Biso   1.000  C
  H1360    1.0000 0.54029  0.51472  0.29939  Biso   1.000  H
  H1361    1.0000 0.50303  0.45808  0.33701  Biso   1.000  H
  C1496    1.0000 0.45797  0.54729  0.35559  Biso   1.000  C
  C1497    1.0000 0.81410  0.61321  0.23328  Biso   1.000  C
  C1498    1.0000 0.88771  0.68519  0.31692  Biso   1.000  C
  H1362    1.0000 0.69703  0.71131  0.19632  Biso   1.000  H
  H1363    1.0000 0.65291  0.65052  0.22110  Biso   1.000  H
  C1499    1.0000 0.60612  0.73651  0.24652  Biso   1.000  C
  O231     1.0000 0.96383  0.52351  0.76651  Biso   1.000  O
  C1500    1.0000 0.11360  0.52981  0.79280  Biso   1.000  C
  C1501    1.0000 0.17910  0.62029  0.74662  Biso   1.000  C
  O232     1.0000 0.09681  0.70350  0.68001  Biso   1.000  O
  C1502    1.0000 0.72328  0.36999  0.33258  Biso   1.000  C
  H1364    1.0000 0.64467  0.44099  0.29431  Biso   1.000  H
  C1503    1.0000 0.74601  0.36540  0.45418  Biso   1.000  C
  H1365    1.0000 0.47859  0.59168  0.35891  Biso   1.000  H
  H1366    1.0000 0.44319  0.53591  0.39869  Biso   1.000  H
  C1504    1.0000 0.38139  0.54461  0.30080  Biso   1.000  C
  C1505    1.0000 0.88712  0.58728  0.22039  Biso   1.000  C
  H1367    1.0000 0.76519  0.59788  0.20972  Biso   1.000  H
  C1506    1.0000 0.96071  0.65931  0.30398  Biso   1.000  C
  H1368    1.0000 0.62792  0.77689  0.26722  Biso   1.000  H
  H1369    1.0000 0.57600  0.71498  0.27739  Biso   1.000  H
  C1507    1.0000 0.54813  0.75189  0.17890  Biso   1.000  C
  C1508    1.0000 0.94291  0.46980  0.72391  Biso   1.000  C
  C1509    1.0000 0.11191  0.46662  0.82900  Biso   1.000  C
  C1510    1.0000 0.18397  0.56311  0.78459  Biso   1.000  C
  C1511    1.0000 0.25451  0.65462  0.73469  Biso   1.000  C
  C1512    1.0000 0.11037  0.70160  0.61702  Biso   1.000  C
  C1513    1.0000 0.74549  0.34538  0.26531  Biso   1.000  C
  C1514    1.0000 0.76129  0.34162  0.39260  Biso   1.000  C
  O233     1.0000 0.79000  0.34411  0.51510  Biso   1.000  O
  C1515    1.0000 0.34301  0.48621  0.27880  Biso   1.000  C
  C1516    1.0000 0.35058  0.60389  0.27361  Biso   1.000  C
  C1517    1.0000 0.88809  0.53338  0.17100  Biso   1.000  C
  C1518    1.0000 0.96041  0.61038  0.25569  Biso   1.000  C
  O234     1.0000 0.03110  0.67581  0.34748  Biso   1.000  O
  C1519    1.0000 0.47861  0.71532  0.15599  Biso   1.000  C
  C1520    1.0000 0.56530  0.80741  0.14360  Biso   1.000  C
  O235     1.0000 0.96621  0.41482  0.75538  Biso   1.000  O
  H1370    1.0000 0.96860  0.47400  0.68429  Biso   1.000  H
  H1371    1.0000 0.88472  0.46911  0.70921  Biso   1.000  H
  C1521    1.0000 0.11289  0.41272  0.77960  Biso   1.000  C
  H1372    1.0000 0.05977  0.46428  0.84501  Biso   1.000  H
  C1522    1.0000 0.18199  0.46262  0.89461  Biso   1.000  C
  H1373    1.0000 0.23430  0.54710  0.80448  Biso   1.000  H
  C1523    1.0000 0.27672  0.63001  0.66742  Biso   1.000  C
  H1374    1.0000 0.24049  0.70091  0.72819  Biso   1.000  H
  C1524    1.0000 0.32473  0.65091  0.79592  Biso   1.000  C
  O236     1.0000 0.18627  0.71122  0.60750  Biso   1.000  O
  H1375    1.0000 0.09302  0.65931  0.59829  Biso   1.000  H
  H1376    1.0000 0.07653  0.73431  0.59139  Biso   1.000  H
  C1525    1.0000 0.67528  0.34909  0.20408  Biso   1.000  C
  C1526    1.0000 0.82092  0.37971  0.25342  Biso   1.000  C
  H1377    1.0000 0.75951  0.29909  0.27180  Biso   1.000  H
  O237     1.0000 0.81367  0.28878  0.39250  Biso   1.000  O
  C1527    1.0000 0.77301  0.27540  0.52402  Biso   1.000  C
  C1528    1.0000 0.74401  0.32218  0.56561  Biso   1.000  C
  H1378    1.0000 0.36348  0.44670  0.29698  Biso   1.000  H
  C1529    1.0000 0.27369  0.48699  0.22961  Biso   1.000  C
  C1530    1.0000 0.28132  0.60472  0.22442  Biso   1.000  C
  H1379    1.0000 0.37619  0.64280  0.28822  Biso   1.000  H
  C1531    1.0000 0.88640  0.47019  0.20720  Biso   1.000  C
  H1380    1.0000 0.94017  0.53572  0.15498  Biso   1.000  H
  C1532    1.0000 0.81802  0.53738  0.10539  Biso   1.000  C
  O238     1.0000 0.03379  0.58518  0.24461  Biso   1.000  O
  C1533    1.0000 0.09290  0.69989  0.31098  Biso   1.000  C
  C1534    1.0000 0.05897  0.74100  0.33862  Biso   1.000  C
  H1381    1.0000 0.46723  0.67830  0.17951  Biso   1.000  H
  C1535    1.0000 0.42629  0.73431  0.09788  Biso   1.000  C
  C1536    1.0000 0.51303  0.82631  0.08550  Biso   1.000  C
  H1382    1.0000 0.61159  0.83168  0.15881  Biso   1.000  H
  C1537    1.0000 0.03959  0.38962  0.74431  Biso   1.000  C
  C1538    1.0000 0.18591  0.38679  0.76671  Biso   1.000  C
  H1383    1.0000 0.17751  0.50002  0.92341  Biso   1.000  H
  H1384    1.0000 0.23463  0.46462  0.88051  Biso   1.000  H
  C1539    1.0000 0.17617  0.39890  0.93529  Biso   1.000  C
  C1540    1.0000 0.33000  0.57791  0.66581  Biso   1.000  C
  C1541    1.0000 0.23872  0.65838  0.60740  Biso   1.000  C
  H1385    1.0000 0.34510  0.60662  0.80131  Biso   1.000  H
  H1386    1.0000 0.30489  0.66331  0.83670  Biso   1.000  H
  C1542    1.0000 0.39230  0.69671  0.78419  Biso   1.000  C
  C1543    1.0000 0.60770  0.30329  0.21581  Biso   1.000  C
  H1387    1.0000 0.65490  0.39338  0.19869  Biso   1.000  H
  H1388    1.0000 0.69511  0.33669  0.16329  Biso   1.000  H
  C1544    1.0000 0.89640  0.35568  0.28318  Biso   1.000  C
  C1545    1.0000 0.81598  0.43689  0.21541  Biso   1.000  C
  C1546    1.0000 0.88957  0.29840  0.38298  Biso   1.000  C
  C1547    1.0000 0.82997  0.24698  0.58258  Biso   1.000  C
  H1389    1.0000 0.71732  0.27052  0.53152  Biso   1.000  H
  H1390    1.0000 0.77798  0.25172  0.48298  Biso   1.000  H
  H1391    1.0000 0.71198  0.28400  0.55000  Biso   1.000  H
  C1548    1.0000 0.80601  0.30578  0.62638  Biso   1.000  C
  H1392    1.0000 0.70798  0.35641  0.57608  Biso   1.000  H
  H1393    1.0000 0.24808  0.44812  0.21500  Biso   1.000  H
  C1549    1.0000 0.24288  0.54632  0.20242  Biso   1.000  C
  H1394    1.0000 0.26078  0.64422  0.20619  Biso   1.000  H
  C1550    1.0000 0.96189  0.44621  0.23701  Biso   1.000  C
  H1395    1.0000 0.82250  0.49998  0.07659  Biso   1.000  H
  H1396    1.0000 0.76538  0.53538  0.11949  Biso   1.000  H
  C1551    1.0000 0.82378  0.60110  0.06470  Biso   1.000  C
  C1552    1.0000 0.05709  0.53020  0.27608  Biso   1.000  C
  C1553    1.0000 0.17399  0.71200  0.35629  Biso   1.000  C
  H1397    1.0000 0.07409  0.74032  0.28852  Biso   1.000  H
  H1398    1.0000 0.10059  0.66839  0.27669  Biso   1.000  H
  H1399    1.0000 0.07138  0.74701  0.29350  Biso   1.000  H
  H1400    1.0000 0.01947  0.77308  0.34668  Biso   1.000  H
  C1554    1.0000 0.13681  0.74642  0.39159  Biso   1.000  C
  H1401    1.0000 0.38000  0.70990  0.08268  Biso   1.000  H
  C1555    1.0000 0.44348  0.78978  0.06269  Biso   1.000  C
  H1402    1.0000 0.52438  0.86342  0.06208  Biso   1.000  H
  C1556    1.0000 0.03929  0.34069  0.69602  Biso   1.000  C
  C1557    1.0000 0.18562  0.33791  0.71848  Biso   1.000  C
  H1403    1.0000 0.23482  0.40212  0.79028  Biso   1.000  H
  H1404    1.0000 0.22487  0.39440  0.96858  Biso   1.000  H
  H1405    1.0000 0.17342  0.36188  0.90498  Biso   1.000  H
  C1558    1.0000 0.10312  0.39792  0.97049  Biso   1.000  C
  C1559    1.0000 0.34527  0.55408  0.60418  Biso   1.000  C
  H1406    1.0000 0.35527  0.55901  0.70569  Biso   1.000  H
  C1560    1.0000 0.25399  0.63460  0.54582  Biso   1.000  C
  H1407    1.0000 0.37188  0.74110  0.78242  Biso   1.000  H
  H1408    1.0000 0.40700  0.68690  0.74068  Biso   1.000  H
  C1561    1.0000 0.46781  0.69330  0.83691  Biso   1.000  C
  C1562    1.0000 0.53219  0.30670  0.16309  Biso   1.000  C
  H1409    1.0000 0.62808  0.25890  0.21762  Biso   1.000  H
  H1410    1.0000 0.59301  0.31310  0.25931  Biso   1.000  H
  O239     1.0000 0.90320  0.29650  0.31999  Biso   1.000  O
  C1563    1.0000 0.96692  0.38889  0.27512  Biso   1.000  C
  H1411    1.0000 0.76571  0.45290  0.19552  Biso   1.000  H
  H1412    1.0000 0.90699  0.34069  0.40171  Biso   1.000  H
  H1413    1.0000 0.92348  0.26569  0.40861  Biso   1.000  H
  C1564    1.0000 0.82602  0.28800  0.64370  Biso   1.000  C
  H1414    1.0000 0.88523  0.24791  0.57291  Biso   1.000  H
  H1415    1.0000 0.81579  0.20250  0.59028  Biso   1.000  H
  H1416    1.0000 0.83898  0.21070  0.60982  Biso   1.000  H
  H1417    1.0000 0.87540  0.26100  0.56349  Biso   1.000  H
  H1418    1.0000 0.78998  0.26569  0.67009  Biso   1.000  H
  C1565    1.0000 0.86320  0.25358  0.60841  Biso   1.000  C
  H1419    1.0000 0.83703  0.34460  0.64199  Biso   1.000  H
  H1420    1.0000 0.77951  0.29020  0.66248  Biso   1.000  H
  H1421    1.0000 0.19673  0.54690  0.16959  Biso   1.000  H
  O240     1.0000 0.03618  0.47649  0.23348  Biso   1.000  O
  H1422    1.0000 0.77508  0.60560  0.03142  Biso   1.000  H
  H1423    1.0000 0.82659  0.63812  0.09501  Biso   1.000  H
  C1566    1.0000 0.89689  0.60208  0.02951  Biso   1.000  C
  H1424    1.0000 0.03141  0.52600  0.31571  Biso   1.000  H
  H1425    1.0000 0.11529  0.53089  0.29078  Biso   1.000  H
  C1567    1.0000 0.16998  0.75302  0.41742  Biso   1.000  C
  H1426    1.0000 0.19881  0.67069  0.37049  Biso   1.000  H
  H1427    1.0000 0.21002  0.73431  0.32991  Biso   1.000  H
  H1428    1.0000 0.16298  0.65540  0.35800  Biso   1.000  H
  H1429    1.0000 0.22050  0.70980  0.33751  Biso   1.000  H
  H1430    1.0000 0.11478  0.75209  0.42709  Biso   1.000  H
  H1431    1.0000 0.16102  0.78930  0.39018  Biso   1.000  H
  H1432    1.0000 0.12460  0.73900  0.43650  Biso   1.000  H
  C1568    1.0000 0.19399  0.69422  0.37361  Biso   1.000  C
  H1433    1.0000 0.40870  0.80248  0.02402  Biso   1.000  H
  O241     1.0000 0.96890  0.32419  0.65252  Biso   1.000  O
  C1569    1.0000 0.11230  0.31481  0.68308  Biso   1.000  C
  C1570    1.0000 0.25948  0.31022  0.70111  Biso   1.000  C
  C1571    1.0000 0.02931  0.37180  0.93952  Biso   1.000  C
  C1572    1.0000 0.11007  0.42502  0.03479  Biso   1.000  C
  C1573    1.0000 0.39962  0.49509  0.59929  Biso   1.000  C
  C1574    1.0000 0.30733  0.58250  0.54421  Biso   1.000  C
  O242     1.0000 0.21001  0.65589  0.48489  Biso   1.000  O
  C1575    1.0000 0.52131  0.64290  0.82860  Biso   1.000  C
  C1576    1.0000 0.48869  0.73920  0.88801  Biso   1.000  C
  C1577    1.0000 0.47870  0.35710  0.17140  Biso   1.000  C
  C1578    1.0000 0.51131  0.26080  0.11198  Biso   1.000  C
  O243     1.0000 0.03832  0.36838  0.31440  Biso   1.000  O
  C1579    1.0000 0.90710  0.30011  0.68902  Biso   1.000  C
  H1434    1.0000 0.80120  0.32931  0.62950  Biso   1.000  H
  C1580    1.0000 0.94097  0.25900  0.66138  Biso   1.000  C
  C1581    1.0000 0.97071  0.62820  0.06052  Biso   1.000  C
  C1582    1.0000 0.88988  0.57498  0.96521  Biso   1.000  C
  C1583    1.0000 0.22699  0.72460  0.47598  Biso   1.000  C
  H1435    1.0000 0.18422  0.79750  0.40972  Biso   1.000  H
  C1584    1.0000 0.25599  0.67782  0.43439  Biso   1.000  C
  O244     1.0000 0.10452  0.26222  0.63922  Biso   1.000  O
  C1585    1.0000 0.28658  0.34382  0.64250  Biso   1.000  C
  H1436    1.0000 0.24661  0.26510  0.68691  Biso   1.000  H
  C1586    1.0000 0.32658  0.30612  0.76651  Biso   1.000  C
  C1587    1.0000 0.96248  0.37292  0.97271  Biso   1.000  C
  H1437    1.0000 0.02461  0.35368  0.89672  Biso   1.000  H
  H1438    1.0000 0.15928  0.44240  0.05538  Biso   1.000  H
  C1588    1.0000 0.04330  0.42610  0.06792  Biso   1.000  C
  C1589    1.0000 0.35203  0.43288  0.59401  Biso   1.000  C
  H1439    1.0000 0.42070  0.49958  0.55690  Biso   1.000  H
  C1590    1.0000 0.47629  0.49758  0.65841  Biso   1.000  C
  O245     1.0000 0.32262  0.56028  0.48152  Biso   1.000  O
  H1440    1.0000 0.50741  0.61219  0.79451  Biso   1.000  H
  C1591    1.0000 0.59580  0.63841  0.87140  Biso   1.000  C
  C1592    1.0000 0.56318  0.73470  0.93081  Biso   1.000  C
  H1441    1.0000 0.45310  0.77289  0.89350  Biso   1.000  H
  C1593    1.0000 0.40420  0.36159  0.12860  Biso   1.000  C
  H1442    1.0000 0.49260  0.38781  0.20549  Biso   1.000  H
  C1594    1.0000 0.43682  0.26530  0.06918  Biso   1.000  C
  H1443    1.0000 0.54691  0.22711  0.10650  Biso   1.000  H
  C1595    1.0000 0.09500  0.33688  0.27830  Biso   1.000  C
  H1444    1.0000 0.92592  0.25968  0.71148  Biso   1.000  H
  H1445    1.0000 0.89941  0.33161  0.72331  Biso   1.000  H
  H1446    1.0000 0.92857  0.25299  0.70649  Biso   1.000  H
  H1447    1.0000 0.98048  0.22692  0.65332  Biso   1.000  H
  H1448    1.0000 0.97541  0.64632  0.10332  Biso   1.000  H
  C1596    1.0000 0.03752  0.62708  0.02729  Biso   1.000  C
  H1449    1.0000 0.84072  0.55760  0.94461  Biso   1.000  H
  C1597    1.0000 0.95672  0.57390  0.93213  Biso   1.000  C
  H1450    1.0000 0.28268  0.72948  0.46848  Biso   1.000  H
  H1451    1.0000 0.22202  0.74828  0.51702  Biso   1.000  H
  H1452    1.0000 0.28802  0.71600  0.45000  Biso   1.000  H
  H1453    1.0000 0.29203  0.64359  0.42392  Biso   1.000  H
  C1598    1.0000 0.12248  0.27340  0.57729  Biso   1.000  C
  C1599    1.0000 0.24901  0.32492  0.57840  Biso   1.000  C
  C1600    1.0000 0.33810  0.39782  0.65040  Biso   1.000  C
  H1454    1.0000 0.30298  0.28869  0.80372  Biso   1.000  H
  H1455    1.0000 0.34709  0.34948  0.77890  Biso   1.000  H
  C1601    1.0000 0.39390  0.26349  0.75352  Biso   1.000  C
  H1456    1.0000 0.91331  0.35558  0.95201  Biso   1.000  H
  C1602    1.0000 0.96948  0.40012  0.03690  Biso   1.000  C
  H1457    1.0000 0.04802  0.44421  0.11082  Biso   1.000  H
  C1603    1.0000 0.31428  0.41408  0.52991  Biso   1.000  C
  H1458    1.0000 0.45972  0.48528  0.70060  Biso   1.000  H
  H1459    1.0000 0.49698  0.54192  0.66299  Biso   1.000  H
  C1604    1.0000 0.54198  0.45271  0.64441  Biso   1.000  C
  C1605    1.0000 0.28758  0.50168  0.45529  Biso   1.000  C
  H1460    1.0000 0.63138  0.60472  0.86581  Biso   1.000  H
  C1606    1.0000 0.61672  0.68431  0.92240  Biso   1.000  C
  H1461    1.0000 0.57713  0.76532  0.96480  Biso   1.000  H
  H1462    1.0000 0.36857  0.39528  0.13419  Biso   1.000  H
  C1607    1.0000 0.38329  0.31569  0.07759  Biso   1.000  C
  H1463    1.0000 0.42288  0.23468  0.03520  Biso   1.000  H
  H1464    1.0000 0.09681  0.36091  0.23701  Biso   1.000  H
  H1465    1.0000 0.07570  0.29318  0.26601  Biso   1.000  H
  C1608    1.0000 0.18279  0.33229  0.31918  Biso   1.000  C
  C1609    1.0000 0.03047  0.59988  0.96309  Biso   1.000  C
  H1466    1.0000 0.08670  0.64442  0.04799  Biso   1.000  H
  H1467    1.0000 0.95200  0.55579  0.88922  Biso   1.000  H
  O246     1.0000 0.20077  0.27101  0.56510  Biso   1.000  O
  H1468    1.0000 0.09152  0.24230  0.54698  Biso   1.000  H
  H1469    1.0000 0.10158  0.31642  0.56359  Biso   1.000  H
  C1610    1.0000 0.26281  0.36008  0.52200  Biso   1.000  C
  H1470    1.0000 0.36322  0.41032  0.69310  Biso   1.000  H
  H1471    1.0000 0.37208  0.22311  0.73278  Biso   1.000  H
  H1472    1.0000 0.42401  0.28502  0.72261  Biso   1.000  H
  C1611    1.0000 0.45188  0.24811  0.82109  Biso   1.000  C
  H1473    1.0000 0.92488  0.40080  0.05901  Biso   1.000  H
  O247     1.0000 0.32770  0.44958  0.47160  Biso   1.000  O
  H1474    1.0000 0.52142  0.40832  0.64109  Biso   1.000  H
  H1475    1.0000 0.55681  0.46409  0.60131  Biso   1.000  H
  C1612    1.0000 0.61862  0.45539  0.69919  Biso   1.000  C
  H1476    1.0000 0.27800  0.50501  0.40659  Biso   1.000  H
  H1477    1.0000 0.23520  0.49739  0.46948  Biso   1.000  H
  H1478    1.0000 0.66627  0.68128  0.95100  Biso   1.000  H
  H1479    1.0000 0.33367  0.31872  0.04899  Biso   1.000  H
  H1480    1.0000 0.22283  0.31872  0.29219  Biso   1.000  H
  H1481    1.0000 0.20021  0.37170  0.34421  Biso   1.000  H
  C1613    1.0000 0.15841  0.27951  0.36148  Biso   1.000  C
  H1482    1.0000 0.07512  0.59920  0.94099  Biso   1.000  H
  O248     1.0000 0.21618  0.35109  0.45891  Biso   1.000  O
  C1614    1.0000 0.52139  0.28468  0.84400  Biso   1.000  C
  C1615    1.0000 0.43471  0.19259  0.85639  Biso   1.000  C
  C1616    1.0000 0.65700  0.51379  0.72120  Biso   1.000  C
  C1617    1.0000 0.64937  0.39611  0.72638  Biso   1.000  C
  H1483    1.0000 0.16108  0.23668  0.34129  Biso   1.000  H
  H1484    1.0000 0.10510  0.28659  0.37311  Biso   1.000  H
  C1618    1.0000 0.22869  0.29079  0.42331  Biso   1.000  C
  H1485    1.0000 0.53278  0.32170  0.82049  Biso   1.000  H
  C1619    1.0000 0.57372  0.26569  0.90211  Biso   1.000  C
  C1620    1.0000 0.48698  0.17369  0.91450  Biso   1.000  C
  H1486    1.0000 0.38842  0.16832  0.84119  Biso   1.000  H
  H1487    1.0000 0.63653  0.55330  0.70302  Biso   1.000  H
  C1621    1.0000 0.72631  0.51301  0.77039  Biso   1.000  C
  C1622    1.0000 0.71868  0.39528  0.77558  Biso   1.000  C
  H1488    1.0000 0.62381  0.35720  0.71178  Biso   1.000  H
  H1489    1.0000 0.23072  0.25421  0.45418  Biso   1.000  H
  H1490    1.0000 0.28031  0.29289  0.40740  Biso   1.000  H
  H1491    1.0000 0.62001  0.29010  0.91732  Biso   1.000  H
  C1623    1.0000 0.55653  0.21022  0.93731  Biso   1.000  C
  H1492    1.0000 0.47563  0.13658  0.93791  Biso   1.000  H
  H1493    1.0000 0.75193  0.55188  0.78499  Biso   1.000  H
  C1624    1.0000 0.75712  0.45368  0.79758  Biso   1.000  C
  H1494    1.0000 0.73922  0.35578  0.79380  Biso   1.000  H
  H1495    1.0000 0.59130  0.19752  0.97598  Biso   1.000  H
  H1496    1.0000 0.80328  0.45310  0.83041  Biso   1.000  H
  C1625    1.0000 0.77132  0.70921  0.57668  Biso   1.000  C
  O249     1.0000 0.78382  0.64891  0.54109  Biso   1.000  O
  C1626    1.0000 0.84159  0.72049  0.63852  Biso   1.000  C
  H1497    1.0000 0.76929  0.74579  0.54582  Biso   1.000  H
  H1498    1.0000 0.71969  0.70711  0.59260  Biso   1.000  H
  C1627    1.0000 0.73719  0.63992  0.47799  Biso   1.000  C
  C1628    1.0000 0.81722  0.66771  0.68081  Biso   1.000  C
  H1499    1.0000 0.83892  0.76332  0.65871  Biso   1.000  H
  H1500    1.0000 0.89490  0.71341  0.62689  Biso   1.000  H
  C1629    1.0000 0.68573  0.58592  0.47009  Biso   1.000  C
  C1630    1.0000 0.75100  0.67508  0.42160  Biso   1.000  C
  C1631    1.0000 0.90501  0.66312  0.72170  Biso   1.000  C
  H1501    1.0000 0.77718  0.68128  0.70780  Biso   1.000  H
  H1502    1.0000 0.79980  0.62830  0.65579  Biso   1.000  H
  C1632    1.0000 0.64798  0.56712  0.40599  Biso   1.000  C
  O250     1.0000 0.67231  0.55042  0.52840  Biso   1.000  O
  C1633    1.0000 0.71343  0.65618  0.35750  Biso   1.000  C
  O251     1.0000 0.79917  0.72899  0.43489  Biso   1.000  O
  O252     1.0000 0.96169  0.63162  0.68560  Biso   1.000  O
  H1503    1.0000 0.90320  0.63909  0.76299  Biso   1.000  H
  H1504    1.0000 0.92431  0.70682  0.73399  Biso   1.000  H
  C1634    1.0000 0.60038  0.50491  0.40070  Biso   1.000  C
  C1635    1.0000 0.66190  0.60218  0.34960  Biso   1.000  C
  C1636    1.0000 0.71242  0.49832  0.54471  Biso   1.000  C
  C1637    1.0000 0.74047  0.68978  0.29889  Biso   1.000  C
  C1638    1.0000 0.87753  0.72660  0.42271  Biso   1.000  C
  C1639    1.0000 0.03310  0.61111  0.72492  Biso   1.000  C
  C1640    1.0000 0.65468  0.44592  0.39582  Biso   1.000  C
  H1505    1.0000 0.57931  0.50042  0.44310  Biso   1.000  H
  C1641    1.0000 0.52372  0.50242  0.34159  Biso   1.000  C
  H1506    1.0000 0.63679  0.58968  0.30690  Biso   1.000  H
  O253     1.0000 0.67738  0.43972  0.51848  Biso   1.000  O
  H1507    1.0000 0.72201  0.49499  0.59340  Biso   1.000  H
  H1508    1.0000 0.76481  0.50261  0.53051  Biso   1.000  H
  C1642    1.0000 0.81439  0.66209  0.28152  Biso   1.000  C
  H1509    1.0000 0.75340  0.73490  0.31309  Biso   1.000  H
  C1643    1.0000 0.67343  0.69388  0.23348  Biso   1.000  C
  O254     1.0000 0.89550  0.73778  0.36082  Biso   1.000  O
  H1510    1.0000 0.90849  0.75770  0.45302  Biso   1.000  H
  H1511    1.0000 0.89842  0.68358  0.43640  Biso   1.000  H
  C1644    1.0000 0.03812  0.55379  0.76299  Biso   1.000  C
  C1645    1.0000 0.10361  0.64432  0.71681  Biso   1.000  C
  C1646    1.0000 0.67001  0.42209  0.33419  Biso   1.000  C
  C1647    1.0000 0.69268  0.41750  0.45579  Biso   1.000  C
  H1512    1.0000 0.54029  0.51472  0.29939  Biso   1.000  H
  H1513    1.0000 0.50303  0.45808  0.33701  Biso   1.000  H
  C1648    1.0000 0.45797  0.54729  0.35559  Biso   1.000  C
  C1649    1.0000 0.81410  0.61321  0.23328  Biso   1.000  C
  C1650    1.0000 0.88771  0.68519  0.31692  Biso   1.000  C
  H1514    1.0000 0.69703  0.71131  0.19632  Biso   1.000  H
  H1515    1.0000 0.65291  0.65052  0.22110  Biso   1.000  H
  C1651    1.0000 0.60612  0.73651  0.24652  Biso   1.000  C
  O255     1.0000 0.96383  0.52351  0.76651  Biso   1.000  O
  C1652    1.0000 0.11360  0.52981  0.79280  Biso   1.000  C
  C1653    1.0000 0.17910  0.62029  0.74662  Biso   1.000  C
  O256     1.0000 0.09681  0.70350  0.68001  Biso   1.000  O
  C1654    1.0000 0.72328  0.36999  0.33258  Biso   1.000  C
  H1516    1.0000 0.64467  0.44099  0.29431  Biso   1.000  H
  C1655    1.0000 0.74601  0.36540  0.45418  Biso   1.000  C
  H1517    1.0000 0.47859  0.59168  0.35891  Biso   1.000  H
  H1518    1.0000 0.44319  0.53591  0.39869  Biso   1.000  H
  C1656    1.0000 0.38139  0.54461  0.30080  Biso   1.000  C
  C1657    1.0000 0.88712  0.58728  0.22039  Biso   1.000  C
  H1519    1.0000 0.76519  0.59788  0.20972  Biso   1.000  H
  C1658    1.0000 0.96071  0.65931  0.30398  Biso   1.000  C
  H1520    1.0000 0.62792  0.77689  0.26722  Biso   1.000  H
  H1521    1.0000 0.57600  0.71498  0.27739  Biso   1.000  H
  C1659    1.0000 0.54813  0.75189  0.17890  Biso   1.000  C
  C1660    1.0000 0.94291  0.46980  0.72391  Biso   1.000  C
  C1661    1.0000 0.11191  0.46662  0.82900  Biso   1.000  C
  C1662    1.0000 0.18397  0.56311  0.78459  Biso   1.000  C
  C1663    1.0000 0.25451  0.65462  0.73469  Biso   1.000  C
  C1664    1.0000 0.11037  0.70160  0.61702  Biso   1.000  C
  C1665    1.0000 0.74549  0.34538  0.26531  Biso   1.000  C
  C1666    1.0000 0.76129  0.34162  0.39260  Biso   1.000  C
  O257     1.0000 0.79000  0.34411  0.51510  Biso   1.000  O
  C1667    1.0000 0.34301  0.48621  0.27880  Biso   1.000  C
  C1668    1.0000 0.35058  0.60389  0.27361  Biso   1.000  C
  C1669    1.0000 0.88809  0.53338  0.17100  Biso   1.000  C
  C1670    1.0000 0.96041  0.61038  0.25569  Biso   1.000  C
  O258     1.0000 0.03110  0.67581  0.34748  Biso   1.000  O
  C1671    1.0000 0.47861  0.71532  0.15599  Biso   1.000  C
  C1672    1.0000 0.56530  0.80741  0.14360  Biso   1.000  C
  O259     1.0000 0.96621  0.41482  0.75538  Biso   1.000  O
  H1522    1.0000 0.96860  0.47400  0.68429  Biso   1.000  H
  H1523    1.0000 0.88472  0.46911  0.70921  Biso   1.000  H
  C1673    1.0000 0.11289  0.41272  0.77960  Biso   1.000  C
  H1524    1.0000 0.05977  0.46428  0.84501  Biso   1.000  H
  C1674    1.0000 0.18199  0.46262  0.89461  Biso   1.000  C
  H1525    1.0000 0.23430  0.54710  0.80448  Biso   1.000  H
  C1675    1.0000 0.27672  0.63001  0.66742  Biso   1.000  C
  H1526    1.0000 0.24049  0.70091  0.72819  Biso   1.000  H
  C1676    1.0000 0.32473  0.65091  0.79592  Biso   1.000  C
  O260     1.0000 0.18627  0.71122  0.60750  Biso   1.000  O
  H1527    1.0000 0.09302  0.65931  0.59829  Biso   1.000  H
  H1528    1.0000 0.07653  0.73431  0.59139  Biso   1.000  H
  C1677    1.0000 0.67528  0.34909  0.20408  Biso   1.000  C
  C1678    1.0000 0.82092  0.37971  0.25342  Biso   1.000  C
  H1529    1.0000 0.75951  0.29909  0.27180  Biso   1.000  H
  O261     1.0000 0.81367  0.28878  0.39250  Biso   1.000  O
  C1679    1.0000 0.77301  0.27540  0.52402  Biso   1.000  C
  C1680    1.0000 0.74401  0.32218  0.56561  Biso   1.000  C
  H1530    1.0000 0.36348  0.44670  0.29698  Biso   1.000  H
  C1681    1.0000 0.27369  0.48699  0.22961  Biso   1.000  C
  C1682    1.0000 0.28132  0.60472  0.22442  Biso   1.000  C
  H1531    1.0000 0.37619  0.64280  0.28822  Biso   1.000  H
  C1683    1.0000 0.88640  0.47019  0.20720  Biso   1.000  C
  H1532    1.0000 0.94017  0.53572  0.15498  Biso   1.000  H
  C1684    1.0000 0.81802  0.53738  0.10539  Biso   1.000  C
  O262     1.0000 0.03379  0.58518  0.24461  Biso   1.000  O
  C1685    1.0000 0.09290  0.69989  0.31098  Biso   1.000  C
  C1686    1.0000 0.05897  0.74100  0.33862  Biso   1.000  C
  H1533    1.0000 0.46723  0.67830  0.17951  Biso   1.000  H
  C1687    1.0000 0.42629  0.73431  0.09788  Biso   1.000  C
  C1688    1.0000 0.51303  0.82631  0.08550  Biso   1.000  C
  H1534    1.0000 0.61159  0.83168  0.15881  Biso   1.000  H
  C1689    1.0000 0.03959  0.38962  0.74431  Biso   1.000  C
  C1690    1.0000 0.18591  0.38679  0.76671  Biso   1.000  C
  H1535    1.0000 0.17751  0.50002  0.92341  Biso   1.000  H
  H1536    1.0000 0.23463  0.46462  0.88051  Biso   1.000  H
  C1691    1.0000 0.17617  0.39890  0.93529  Biso   1.000  C
  C1692    1.0000 0.33000  0.57791  0.66581  Biso   1.000  C
  C1693    1.0000 0.23872  0.65838  0.60740  Biso   1.000  C
  H1537    1.0000 0.34510  0.60662  0.80131  Biso   1.000  H
  H1538    1.0000 0.30489  0.66331  0.83670  Biso   1.000  H
  C1694    1.0000 0.39230  0.69671  0.78419  Biso   1.000  C
  C1695    1.0000 0.60770  0.30329  0.21581  Biso   1.000  C
  H1539    1.0000 0.65490  0.39338  0.19869  Biso   1.000  H
  H1540    1.0000 0.69511  0.33669  0.16329  Biso   1.000  H
  C1696    1.0000 0.89640  0.35568  0.28318  Biso   1.000  C
  C1697    1.0000 0.81598  0.43689  0.21541  Biso   1.000  C
  C1698    1.0000 0.88957  0.29840  0.38298  Biso   1.000  C
  C1699    1.0000 0.82997  0.24698  0.58258  Biso   1.000  C
  H1541    1.0000 0.71732  0.27052  0.53152  Biso   1.000  H
  H1542    1.0000 0.77798  0.25172  0.48298  Biso   1.000  H
  H1543    1.0000 0.71198  0.28400  0.55000  Biso   1.000  H
  C1700    1.0000 0.80601  0.30578  0.62638  Biso   1.000  C
  H1544    1.0000 0.70798  0.35641  0.57608  Biso   1.000  H
  H1545    1.0000 0.24808  0.44812  0.21500  Biso   1.000  H
  C1701    1.0000 0.24288  0.54632  0.20242  Biso   1.000  C
  H1546    1.0000 0.26078  0.64422  0.20619  Biso   1.000  H
  C1702    1.0000 0.96189  0.44621  0.23701  Biso   1.000  C
  H1547    1.0000 0.82250  0.49998  0.07659  Biso   1.000  H
  H1548    1.0000 0.76538  0.53538  0.11949  Biso   1.000  H
  C1703    1.0000 0.82378  0.60110  0.06470  Biso   1.000  C
  C1704    1.0000 0.05709  0.53020  0.27608  Biso   1.000  C
  C1705    1.0000 0.17399  0.71200  0.35629  Biso   1.000  C
  H1549    1.0000 0.07409  0.74032  0.28852  Biso   1.000  H
  H1550    1.0000 0.10059  0.66839  0.27669  Biso   1.000  H
  H1551    1.0000 0.07138  0.74701  0.29350  Biso   1.000  H
  H1552    1.0000 0.01947  0.77308  0.34668  Biso   1.000  H
  C1706    1.0000 0.13681  0.74642  0.39159  Biso   1.000  C
  H1553    1.0000 0.38000  0.70990  0.08268  Biso   1.000  H
  C1707    1.0000 0.44348  0.78978  0.06269  Biso   1.000  C
  H1554    1.0000 0.52438  0.86342  0.06208  Biso   1.000  H
  C1708    1.0000 0.03929  0.34069  0.69602  Biso   1.000  C
  C1709    1.0000 0.18562  0.33791  0.71848  Biso   1.000  C
  H1555    1.0000 0.23482  0.40212  0.79028  Biso   1.000  H
  H1556    1.0000 0.22487  0.39440  0.96858  Biso   1.000  H
  H1557    1.0000 0.17342  0.36188  0.90498  Biso   1.000  H
  C1710    1.0000 0.10312  0.39792  0.97049  Biso   1.000  C
  C1711    1.0000 0.34527  0.55408  0.60418  Biso   1.000  C
  H1558    1.0000 0.35527  0.55901  0.70569  Biso   1.000  H
  C1712    1.0000 0.25399  0.63460  0.54582  Biso   1.000  C
  H1559    1.0000 0.37188  0.74110  0.78242  Biso   1.000  H
  H1560    1.0000 0.40700  0.68690  0.74068  Biso   1.000  H
  C1713    1.0000 0.46781  0.69330  0.83691  Biso   1.000  C
  C1714    1.0000 0.53219  0.30670  0.16309  Biso   1.000  C
  H1561    1.0000 0.62808  0.25890  0.21762  Biso   1.000  H
  H1562    1.0000 0.59301  0.31310  0.25931  Biso   1.000  H
  O263     1.0000 0.90320  0.29650  0.31999  Biso   1.000  O
  C1715    1.0000 0.96692  0.38889  0.27512  Biso   1.000  C
  H1563    1.0000 0.76571  0.45290  0.19552  Biso   1.000  H
  H1564    1.0000 0.90699  0.34069  0.40171  Biso   1.000  H
  H1565    1.0000 0.92348  0.26569  0.40861  Biso   1.000  H
  C1716    1.0000 0.82602  0.28800  0.64370  Biso   1.000  C
  H1566    1.0000 0.88523  0.24791  0.57291  Biso   1.000  H
  H1567    1.0000 0.81579  0.20250  0.59028  Biso   1.000  H
  H1568    1.0000 0.83898  0.21070  0.60982  Biso   1.000  H
  H1569    1.0000 0.87540  0.26100  0.56349  Biso   1.000  H
  H1570    1.0000 0.78998  0.26569  0.67009  Biso   1.000  H
  C1717    1.0000 0.86320  0.25358  0.60841  Biso   1.000  C
  H1571    1.0000 0.83703  0.34460  0.64199  Biso   1.000  H
  H1572    1.0000 0.77951  0.29020  0.66248  Biso   1.000  H
  H1573    1.0000 0.19673  0.54690  0.16959  Biso   1.000  H
  O264     1.0000 0.03618  0.47649  0.23348  Biso   1.000  O
  H1574    1.0000 0.77508  0.60560  0.03142  Biso   1.000  H
  H1575    1.0000 0.82659  0.63812  0.09501  Biso   1.000  H
  C1718    1.0000 0.89689  0.60208  0.02951  Biso   1.000  C
  H1576    1.0000 0.03141  0.52600  0.31571  Biso   1.000  H
  H1577    1.0000 0.11529  0.53089  0.29078  Biso   1.000  H
  C1719    1.0000 0.16998  0.75302  0.41742  Biso   1.000  C
  H1578    1.0000 0.19881  0.67069  0.37049  Biso   1.000  H
  H1579    1.0000 0.21002  0.73431  0.32991  Biso   1.000  H
  H1580    1.0000 0.16298  0.65540  0.35800  Biso   1.000  H
  H1581    1.0000 0.22050  0.70980  0.33751  Biso   1.000  H
  H1582    1.0000 0.11478  0.75209  0.42709  Biso   1.000  H
  H1583    1.0000 0.16102  0.78930  0.39018  Biso   1.000  H
  H1584    1.0000 0.12460  0.73900  0.43650  Biso   1.000  H
  C1720    1.0000 0.19399  0.69422  0.37361  Biso   1.000  C
  H1585    1.0000 0.40870  0.80248  0.02402  Biso   1.000  H
  O265     1.0000 0.96890  0.32419  0.65252  Biso   1.000  O
  C1721    1.0000 0.11230  0.31481  0.68308  Biso   1.000  C
  C1722    1.0000 0.25948  0.31022  0.70111  Biso   1.000  C
  C1723    1.0000 0.02931  0.37180  0.93952  Biso   1.000  C
  C1724    1.0000 0.11007  0.42502  0.03479  Biso   1.000  C
  C1725    1.0000 0.39962  0.49509  0.59929  Biso   1.000  C
  C1726    1.0000 0.30733  0.58250  0.54421  Biso   1.000  C
  O266     1.0000 0.21001  0.65589  0.48489  Biso   1.000  O
  C1727    1.0000 0.52131  0.64290  0.82860  Biso   1.000  C
  C1728    1.0000 0.48869  0.73920  0.88801  Biso   1.000  C
  C1729    1.0000 0.47870  0.35710  0.17140  Biso   1.000  C
  C1730    1.0000 0.51131  0.26080  0.11198  Biso   1.000  C
  O267     1.0000 0.03832  0.36838  0.31440  Biso   1.000  O
  C1731    1.0000 0.90710  0.30011  0.68902  Biso   1.000  C
  H1586    1.0000 0.80120  0.32931  0.62950  Biso   1.000  H
  C1732    1.0000 0.94097  0.25900  0.66138  Biso   1.000  C
  C1733    1.0000 0.97071  0.62820  0.06052  Biso   1.000  C
  C1734    1.0000 0.88988  0.57498  0.96521  Biso   1.000  C
  C1735    1.0000 0.22699  0.72460  0.47598  Biso   1.000  C
  H1587    1.0000 0.18422  0.79750  0.40972  Biso   1.000  H
  C1736    1.0000 0.25599  0.67782  0.43439  Biso   1.000  C
  O268     1.0000 0.10452  0.26222  0.63922  Biso   1.000  O
  C1737    1.0000 0.28658  0.34382  0.64250  Biso   1.000  C
  H1588    1.0000 0.24661  0.26510  0.68691  Biso   1.000  H
  C1738    1.0000 0.32658  0.30612  0.76651  Biso   1.000  C
  C1739    1.0000 0.96248  0.37292  0.97271  Biso   1.000  C
  H1589    1.0000 0.02461  0.35368  0.89672  Biso   1.000  H
  H1590    1.0000 0.15928  0.44240  0.05538  Biso   1.000  H
  C1740    1.0000 0.04330  0.42610  0.06792  Biso   1.000  C
  C1741    1.0000 0.35203  0.43288  0.59401  Biso   1.000  C
  H1591    1.0000 0.42070  0.49958  0.55690  Biso   1.000  H
  C1742    1.0000 0.47629  0.49758  0.65841  Biso   1.000  C
  O269     1.0000 0.32262  0.56028  0.48152  Biso   1.000  O
  H1592    1.0000 0.50741  0.61219  0.79451  Biso   1.000  H
  C1743    1.0000 0.59580  0.63841  0.87140  Biso   1.000  C
  C1744    1.0000 0.56318  0.73470  0.93081  Biso   1.000  C
  H1593    1.0000 0.45310  0.77289  0.89350  Biso   1.000  H
  C1745    1.0000 0.40420  0.36159  0.12860  Biso   1.000  C
  H1594    1.0000 0.49260  0.38781  0.20549  Biso   1.000  H
  C1746    1.0000 0.43682  0.26530  0.06918  Biso   1.000  C
  H1595    1.0000 0.54691  0.22711  0.10650  Biso   1.000  H
  C1747    1.0000 0.09500  0.33688  0.27830  Biso   1.000  C
  H1596    1.0000 0.92592  0.25968  0.71148  Biso   1.000  H
  H1597    1.0000 0.89941  0.33161  0.72331  Biso   1.000  H
  H1598    1.0000 0.92857  0.25299  0.70649  Biso   1.000  H
  H1599    1.0000 0.98048  0.22692  0.65332  Biso   1.000  H
  H1600    1.0000 0.97541  0.64632  0.10332  Biso   1.000  H
  C1748    1.0000 0.03752  0.62708  0.02729  Biso   1.000  C
  H1601    1.0000 0.84072  0.55760  0.94461  Biso   1.000  H
  C1749    1.0000 0.95672  0.57390  0.93213  Biso   1.000  C
  H1602    1.0000 0.28268  0.72948  0.46848  Biso   1.000  H
  H1603    1.0000 0.22202  0.74828  0.51702  Biso   1.000  H
  H1604    1.0000 0.28802  0.71600  0.45000  Biso   1.000  H
  H1605    1.0000 0.29203  0.64359  0.42392  Biso   1.000  H
  C1750    1.0000 0.12248  0.27340  0.57729  Biso   1.000  C
  C1751    1.0000 0.24901  0.32492  0.57840  Biso   1.000  C
  C1752    1.0000 0.33810  0.39782  0.65040  Biso   1.000  C
  H1606    1.0000 0.30298  0.28869  0.80372  Biso   1.000  H
  H1607    1.0000 0.34709  0.34948  0.77890  Biso   1.000  H
  C1753    1.0000 0.39390  0.26349  0.75352  Biso   1.000  C
  H1608    1.0000 0.91331  0.35558  0.95201  Biso   1.000  H
  C1754    1.0000 0.96948  0.40012  0.03690  Biso   1.000  C
  H1609    1.0000 0.04802  0.44421  0.11082  Biso   1.000  H
  C1755    1.0000 0.31428  0.41408  0.52991  Biso   1.000  C
  H1610    1.0000 0.45972  0.48528  0.70060  Biso   1.000  H
  H1611    1.0000 0.49698  0.54192  0.66299  Biso   1.000  H
  C1756    1.0000 0.54198  0.45271  0.64441  Biso   1.000  C
  C1757    1.0000 0.28758  0.50168  0.45529  Biso   1.000  C
  H1612    1.0000 0.63138  0.60472  0.86581  Biso   1.000  H
  C1758    1.0000 0.61672  0.68431  0.92240  Biso   1.000  C
  H1613    1.0000 0.57713  0.76532  0.96480  Biso   1.000  H
  H1614    1.0000 0.36857  0.39528  0.13419  Biso   1.000  H
  C1759    1.0000 0.38329  0.31569  0.07759  Biso   1.000  C
  H1615    1.0000 0.42288  0.23468  0.03520  Biso   1.000  H
  H1616    1.0000 0.09681  0.36091  0.23701  Biso   1.000  H
  H1617    1.0000 0.07570  0.29318  0.26601  Biso   1.000  H
  C1760    1.0000 0.18279  0.33229  0.31918  Biso   1.000  C
  C1761    1.0000 0.03047  0.59988  0.96309  Biso   1.000  C
  H1618    1.0000 0.08670  0.64442  0.04799  Biso   1.000  H
  H1619    1.0000 0.95200  0.55579  0.88922  Biso   1.000  H
  O270     1.0000 0.20077  0.27101  0.56510  Biso   1.000  O
  H1620    1.0000 0.09152  0.24230  0.54698  Biso   1.000  H
  H1621    1.0000 0.10158  0.31642  0.56359  Biso   1.000  H
  C1762    1.0000 0.26281  0.36008  0.52200  Biso   1.000  C
  H1622    1.0000 0.36322  0.41032  0.69310  Biso   1.000  H
  H1623    1.0000 0.37208  0.22311  0.73278  Biso   1.000  H
  H1624    1.0000 0.42401  0.28502  0.72261  Biso   1.000  H
  C1763    1.0000 0.45188  0.24811  0.82109  Biso   1.000  C
  H1625    1.0000 0.92488  0.40080  0.05901  Biso   1.000  H
  O271     1.0000 0.32770  0.44958  0.47160  Biso   1.000  O
  H1626    1.0000 0.52142  0.40832  0.64109  Biso   1.000  H
  H1627    1.0000 0.55681  0.46409  0.60131  Biso   1.000  H
  C1764    1.0000 0.61862  0.45539  0.69919  Biso   1.000  C
  H1628    1.0000 0.27800  0.50501  0.40659  Biso   1.000  H
  H1629    1.0000 0.23520  0.49739  0.46948  Biso   1.000  H
  H1630    1.0000 0.66627  0.68128  0.95100  Biso   1.000  H
  H1631    1.0000 0.33367  0.31872  0.04899  Biso   1.000  H
  H1632    1.0000 0.22283  0.31872  0.29219  Biso   1.000  H
  H1633    1.0000 0.20021  0.37170  0.34421  Biso   1.000  H
  C1765    1.0000 0.15841  0.27951  0.36148  Biso   1.000  C
  H1634    1.0000 0.07512  0.59920  0.94099  Biso   1.000  H
  O272     1.0000 0.21618  0.35109  0.45891  Biso   1.000  O
  C1766    1.0000 0.52139  0.28468  0.84400  Biso   1.000  C
  C1767    1.0000 0.43471  0.19259  0.85639  Biso   1.000  C
  C1768    1.0000 0.65700  0.51379  0.72120  Biso   1.000  C
  C1769    1.0000 0.64937  0.39611  0.72638  Biso   1.000  C
  H1635    1.0000 0.16108  0.23668  0.34129  Biso   1.000  H
  H1636    1.0000 0.10510  0.28659  0.37311  Biso   1.000  H
  C1770    1.0000 0.22869  0.29079  0.42331  Biso   1.000  C
  H1637    1.0000 0.53278  0.32170  0.82049  Biso   1.000  H
  C1771    1.0000 0.57372  0.26569  0.90211  Biso   1.000  C
  C1772    1.0000 0.48698  0.17369  0.91450  Biso   1.000  C
  H1638    1.0000 0.38842  0.16832  0.84119  Biso   1.000  H
  H1639    1.0000 0.63653  0.55330  0.70302  Biso   1.000  H
  C1773    1.0000 0.72631  0.51301  0.77039  Biso   1.000  C
  C1774    1.0000 0.71868  0.39528  0.77558  Biso   1.000  C
  H1640    1.0000 0.62381  0.35720  0.71178  Biso   1.000  H
  H1641    1.0000 0.23072  0.25421  0.45418  Biso   1.000  H
  H1642    1.0000 0.28031  0.29289  0.40740  Biso   1.000  H
  H1643    1.0000 0.62001  0.29010  0.91732  Biso   1.000  H
  C1775    1.0000 0.55653  0.21022  0.93731  Biso   1.000  C
  H1644    1.0000 0.47563  0.13658  0.93791  Biso   1.000  H
  H1645    1.0000 0.75193  0.55188  0.78499  Biso   1.000  H
  C1776    1.0000 0.75712  0.45368  0.79758  Biso   1.000  C
  H1646    1.0000 0.73922  0.35578  0.79380  Biso   1.000  H
  H1647    1.0000 0.59130  0.19752  0.97598  Biso   1.000  H
  H1648    1.0000 0.80328  0.45310  0.83041  Biso   1.000  H
