data_image0
_cell_length_a       16.72
_cell_length_b       20.559
_cell_length_c       20.168
_cell_angle_alpha    90
_cell_angle_beta     98.52
_cell_angle_gamma    90

_symmetry_space_group_name_H-M    "P 1"
_symmetry_int_tables_number       1

loop_
  _symmetry_equiv_pos_as_xyz
  'x, y, z'

loop_
  _atom_site_label
  _atom_site_occupancy
  _atom_site_fract_x
  _atom_site_fract_y
  _atom_site_fract_z
  _atom_site_thermal_displace_type
  _atom_site_B_iso_or_equiv
  _atom_site_type_symbol
  C1       1.0000 0.17575  0.16489  0.82249  Biso   1.000  C
  C2       1.0000 0.09478  0.15419  0.77567  Biso   1.000  C
  C3       1.0000 0.09473  0.15419  0.77572  Biso   1.000  C
  H1       1.0000 0.21806  0.17729  0.79687  Biso   1.000  H
  H2       1.0000 0.19216  0.12559  0.84736  Biso   1.000  H
  C4       1.0000 0.16017  0.21679  0.86747  Biso   1.000  C
  H3       1.0000 0.21801  0.17729  0.79687  Biso   1.000  H
  H4       1.0000 0.19211  0.12559  0.84741  Biso   1.000  H
  C5       1.0000 0.16011  0.21679  0.86747  Biso   1.000  C
  O1       1.0000 0.03513  0.12569  0.81407  Biso   1.000  O
  H5       1.0000 0.10316  0.12530  0.73927  Biso   1.000  H
  H6       1.0000 0.07484  0.19549  0.75646  Biso   1.000  H
  H7       1.0000 0.10311  0.12530  0.73932  Biso   1.000  H
  H8       1.0000 0.07485  0.19549  0.75651  Biso   1.000  H
  H9       1.0000 0.15876  0.25852  0.84486  Biso   1.000  H
  H10      1.0000 0.10866  0.20998  0.88316  Biso   1.000  H
  C6       1.0000 0.23316  0.21460  0.92919  Biso   1.000  C
  H11      1.0000 0.15871  0.25852  0.84491  Biso   1.000  H
  H12      1.0000 0.10861  0.20998  0.88321  Biso   1.000  H
  C7       1.0000 0.23310  0.21460  0.92919  Biso   1.000  C
  C8       1.0000 0.96367  0.10808  0.77597  Biso   1.000  C
  C9       1.0000 0.96361  0.10808  0.77597  Biso   1.000  C
  H13      1.0000 0.23265  0.25288  0.95716  Biso   1.000  H
  H14      1.0000 0.28492  0.21178  0.91329  Biso   1.000  H
  O2       1.0000 0.21722  0.15560  0.96619  Biso   1.000  O
  H15      1.0000 0.23260  0.25288  0.95721  Biso   1.000  H
  C10      1.0000 0.96157  0.05039  0.73977  Biso   1.000  C
  C11      1.0000 0.89225  0.14130  0.78058  Biso   1.000  C
  C12      1.0000 0.96151  0.05039  0.73977  Biso   1.000  C
  C13      1.0000 0.26692  0.14461  0.02610  Biso   1.000  C
  C14      1.0000 0.26686  0.14461  0.02610  Biso   1.000  C
  O3       1.0000 0.03405  0.01800  0.73440  Biso   1.000  O
  C15      1.0000 0.88818  0.02602  0.70828  Biso   1.000  C
  C16      1.0000 0.88812  0.02602  0.70828  Biso   1.000  C
  C17      1.0000 0.81886  0.11688  0.74909  Biso   1.000  C
  O4       1.0000 0.89876  0.20040  0.81437  Biso   1.000  O
  O5       1.0000 0.89870  0.20040  0.81437  Biso   1.000  O
  C18      1.0000 0.25558  0.17992  0.08275  Biso   1.000  C
  C19      1.0000 0.31527  0.08930  0.03227  Biso   1.000  C
  C20      1.0000 0.25559  0.17992  0.08280  Biso   1.000  C
  C21      1.0000 0.05097  0.96371  0.77517  Biso   1.000  C
  C22      1.0000 0.05092  0.96371  0.77522  Biso   1.000  C
  C23      1.0000 0.88727  0.96182  0.67008  Biso   1.000  C
  C24      1.0000 0.88721  0.96182  0.67008  Biso   1.000  C
  C25      1.0000 0.81677  0.05920  0.71300  Biso   1.000  C
  C26      1.0000 0.81671  0.05920  0.71300  Biso   1.000  C
  C27      1.0000 0.74026  0.15010  0.76278  Biso   1.000  C
  C28      1.0000 0.88655  0.19991  0.88156  Biso   1.000  C
  C29      1.0000 0.88656  0.19991  0.88161  Biso   1.000  C
  O6       1.0000 0.21248  0.23810  0.07318  Biso   1.000  O
  C30      1.0000 0.29278  0.15988  0.14568  Biso   1.000  C
  O7       1.0000 0.32473  0.05579  0.97376  Biso   1.000  O
  O8       1.0000 0.32474  0.05579  0.97381  Biso   1.000  O
  C31      1.0000 0.35249  0.06931  0.09529  Biso   1.000  C
  O9       1.0000 0.02986  0.90491  0.74408  Biso   1.000  O
  H16      1.0000 0.02254  0.96799  0.81357  Biso   1.000  H
  H17      1.0000 0.10844  0.96308  0.79186  Biso   1.000  H
  H18      1.0000 0.10845  0.96308  0.79191  Biso   1.000  H
  C32      1.0000 0.88305  0.90700  0.71876  Biso   1.000  C
  H19      1.0000 0.93917  0.95812  0.65328  Biso   1.000  H
  C33      1.0000 0.81926  0.96011  0.60776  Biso   1.000  C
  C34      1.0000 0.88306  0.90700  0.71881  Biso   1.000  C
  H20      1.0000 0.93911  0.95812  0.65328  Biso   1.000  H
  C35      1.0000 0.81927  0.96011  0.60781  Biso   1.000  C
  H21      1.0000 0.76766  0.04290  0.69189  Biso   1.000  H
  C36      1.0000 0.72047  0.12690  0.83006  Biso   1.000  C
  H22      1.0000 0.75334  0.19641  0.76870  Biso   1.000  H
  C37      1.0000 0.67065  0.14680  0.70427  Biso   1.000  C
  C38      1.0000 0.72042  0.12690  0.83011  Biso   1.000  C
  H23      1.0000 0.92101  0.23250  0.90607  Biso   1.000  H
  H24      1.0000 0.90222  0.15779  0.90096  Biso   1.000  H
  O10      1.0000 0.80722  0.21222  0.88878  Biso   1.000  O
  H25      1.0000 0.90222  0.15779  0.90101  Biso   1.000  H
  C39      1.0000 0.13009  0.23659  0.08235  Biso   1.000  C
  C40      1.0000 0.13010  0.23659  0.08240  Biso   1.000  C
  C41      1.0000 0.26936  0.19500  0.20709  Biso   1.000  C
  C42      1.0000 0.34116  0.10458  0.15199  Biso   1.000  C
  C43      1.0000 0.27854  0.00049  0.95857  Biso   1.000  C
  C44      1.0000 0.40111  0.00618  0.09890  Biso   1.000  C
  C45      1.0000 0.40105  0.00618  0.09890  Biso   1.000  C
  C46      1.0000 0.95485  0.88331  0.75406  Biso   1.000  C
  C47      1.0000 0.95486  0.88331  0.75411  Biso   1.000  C
  C48      1.0000 0.80949  0.88098  0.72979  Biso   1.000  C
  C49      1.0000 0.80943  0.88098  0.72979  Biso   1.000  C
  H26      1.0000 0.82345  0.99859  0.58068  Biso   1.000  H
  H27      1.0000 0.76688  0.96089  0.62290  Biso   1.000  H
  C50      1.0000 0.82560  0.89858  0.56429  Biso   1.000  C
  H28      1.0000 0.76682  0.96089  0.62290  Biso   1.000  H
  C51      1.0000 0.82554  0.89858  0.56429  Biso   1.000  C
  C52      1.0000 0.66877  0.07442  0.83327  Biso   1.000  C
  C53      1.0000 0.75873  0.15550  0.88888  Biso   1.000  C
  C54      1.0000 0.66871  0.07442  0.83327  Biso   1.000  C
  H29      1.0000 0.68974  0.15988  0.66316  Biso   1.000  H
  H30      1.0000 0.65107  0.10239  0.69876  Biso   1.000  H
  C55      1.0000 0.60145  0.19189  0.71796  Biso   1.000  C
  H31      1.0000 0.68975  0.15988  0.66321  Biso   1.000  H
  H32      1.0000 0.65102  0.10239  0.69881  Biso   1.000  H
  C56      1.0000 0.60146  0.19189  0.71801  Biso   1.000  C
  H33      1.0000 0.10068  0.26908  0.05367  Biso   1.000  H
  H34      1.0000 0.10759  0.19442  0.06857  Biso   1.000  H
  O11      1.0000 0.11880  0.24821  0.14838  Biso   1.000  O
  O12      1.0000 0.11874  0.24821  0.14838  Biso   1.000  O
  C57      1.0000 0.19237  0.16869  0.22369  Biso   1.000  C
  H35      1.0000 0.25855  0.24028  0.19346  Biso   1.000  H
  C58      1.0000 0.33618  0.19709  0.26906  Biso   1.000  C
  H36      1.0000 0.25856  0.24028  0.19351  Biso   1.000  H
  C59      1.0000 0.33612  0.19709  0.26906  Biso   1.000  C
  H37      1.0000 0.36596  0.09120  0.19406  Biso   1.000  H
  H38      1.0000 0.36597  0.09120  0.19411  Biso   1.000  H
  H39      1.0000 0.22905  0.00438  0.97817  Biso   1.000  H
  H40      1.0000 0.22899  0.00438  0.97817  Biso   1.000  H
  O13      1.0000 0.31831  0.94309  0.98198  Biso   1.000  O
  H41      1.0000 0.26353  0.99762  0.91038  Biso   1.000  H
  C60      1.0000 0.34450  0.94951  0.10476  Biso   1.000  C
  C61      1.0000 0.34444  0.94951  0.10476  Biso   1.000  C
  H42      1.0000 0.42097  0.00141  0.05578  Biso   1.000  H
  C62      1.0000 0.47590  0.00589  0.15400  Biso   1.000  C
  C63      1.0000 0.47584  0.00589  0.15400  Biso   1.000  C
  C64      1.0000 0.95294  0.83360  0.80058  Biso   1.000  C
  H43      1.0000 0.76149  0.89688  0.70618  Biso   1.000  H
  C65      1.0000 0.80756  0.83131  0.77627  Biso   1.000  C
  H44      1.0000 0.76143  0.89688  0.70618  Biso   1.000  H
  C66      1.0000 0.80750  0.83131  0.77627  Biso   1.000  C
  H45      1.0000 0.77665  0.89508  0.53200  Biso   1.000  H
  H46      1.0000 0.82829  0.86069  0.59307  Biso   1.000  H
  C67      1.0000 0.89626  0.89761  0.52759  Biso   1.000  C
  H47      1.0000 0.82824  0.86069  0.59312  Biso   1.000  H
  H48      1.0000 0.64314  0.05540  0.79397  Biso   1.000  H
  C68      1.0000 0.65543  0.05049  0.89519  Biso   1.000  C
  H49      1.0000 0.64315  0.05540  0.79402  Biso   1.000  H
  C69      1.0000 0.74543  0.13152  0.95069  Biso   1.000  C
  H50      1.0000 0.62037  0.23649  0.71906  Biso   1.000  H
  H51      1.0000 0.58745  0.18182  0.76178  Biso   1.000  H
  C70      1.0000 0.52713  0.18610  0.66657  Biso   1.000  C
  H52      1.0000 0.62032  0.23649  0.71911  Biso   1.000  H
  C71      1.0000 0.12061  0.19242  0.18829  Biso   1.000  C
  C72      1.0000 0.12055  0.19242  0.18829  Biso   1.000  C
  C73      1.0000 0.19044  0.11902  0.27017  Biso   1.000  C
  H53      1.0000 0.31346  0.21528  0.30656  Biso   1.000  H
  H54      1.0000 0.35319  0.15302  0.28089  Biso   1.000  H
  C74      1.0000 0.40315  0.23309  0.25959  Biso   1.000  C
  H55      1.0000 0.35313  0.15302  0.28089  Biso   1.000  H
  C75      1.0000 0.30620  0.92101  0.04605  Biso   1.000  C
  C76      1.0000 0.30614  0.92101  0.04610  Biso   1.000  C
  C77      1.0000 0.33116  0.92558  0.16668  Biso   1.000  C
  H56      1.0000 0.49636  0.96182  0.15966  Biso   1.000  H
  H57      1.0000 0.45930  0.01931  0.19596  Biso   1.000  H
  C78      1.0000 0.54259  0.04942  0.13926  Biso   1.000  C
  H58      1.0000 0.45924  0.01931  0.19596  Biso   1.000  H
  C79      1.0000 0.54254  0.04942  0.13931  Biso   1.000  C
  C80      1.0000 0.87932  0.80758  0.81166  Biso   1.000  C
  C81      1.0000 0.87933  0.80758  0.81171  Biso   1.000  C
  O14      1.0000 0.02187  0.81740  0.84460  Biso   1.000  O
  O15      1.0000 0.02181  0.81740  0.84460  Biso   1.000  O
  C82      1.0000 0.73057  0.80500  0.79286  Biso   1.000  C
  C83      1.0000 0.73052  0.80500  0.79291  Biso   1.000  C
  C84      1.0000 0.88885  0.92748  0.46507  Biso   1.000  C
  C85      1.0000 0.96956  0.86998  0.55527  Biso   1.000  C
  C86      1.0000 0.88886  0.92748  0.46512  Biso   1.000  C
  C87      1.0000 0.96957  0.86998  0.55532  Biso   1.000  C
  C88      1.0000 0.59882  0.99382  0.90106  Biso   1.000  C
  C89      1.0000 0.59883  0.99382  0.90111  Biso   1.000  C
  C90      1.0000 0.69373  0.07899  0.95390  Biso   1.000  C
  O16      1.0000 0.79019  0.15521  0.01036  Biso   1.000  O
  O17      1.0000 0.79020  0.15521  0.01041  Biso   1.000  O
  C91      1.0000 0.47314  0.13639  0.67499  Biso   1.000  C
  C92      1.0000 0.50904  0.23022  0.61418  Biso   1.000  C
  C93      1.0000 0.04699  0.16640  0.19937  Biso   1.000  C
  C94      1.0000 0.04693  0.16640  0.19937  Biso   1.000  C
  H59      1.0000 0.23844  0.10312  0.29378  Biso   1.000  H
  C95      1.0000 0.11688  0.09300  0.28120  Biso   1.000  C
  H60      1.0000 0.38554  0.27020  0.23136  Biso   1.000  H
  H61      1.0000 0.43765  0.20658  0.23577  Biso   1.000  H
  C96      1.0000 0.45405  0.25828  0.32587  Biso   1.000  C
  H62      1.0000 0.38555  0.27020  0.23141  Biso   1.000  H
  C97      1.0000 0.25450  0.86848  0.04926  Biso   1.000  C
  C98      1.0000 0.25445  0.86848  0.04931  Biso   1.000  C
  C99      1.0000 0.27946  0.87310  0.16989  Biso   1.000  C
  H63      1.0000 0.35679  0.94460  0.20599  Biso   1.000  H
  H64      1.0000 0.52150  0.09320  0.13269  Biso   1.000  H
  H65      1.0000 0.55927  0.03551  0.09739  Biso   1.000  H
  C100     1.0000 0.61767  0.05132  0.19326  Biso   1.000  C
  H66      1.0000 0.52144  0.09320  0.13269  Biso   1.000  H
  C101     1.0000 0.61768  0.05132  0.19331  Biso   1.000  C
  O18      1.0000 0.88113  0.75179  0.85157  Biso   1.000  O
  C102     1.0000 0.05922  0.75728  0.83608  Biso   1.000  C
  C103     1.0000 0.08522  0.79581  0.81121  Biso   1.000  C
  C104     1.0000 0.70715  0.84012  0.85428  Biso   1.000  C
  H67      1.0000 0.74138  0.75972  0.80650  Biso   1.000  H
  C105     1.0000 0.66375  0.80291  0.73089  Biso   1.000  C
  H68      1.0000 0.74132  0.75972  0.80650  Biso   1.000  H
  H69      1.0000 0.83979  0.94601  0.44657  Biso   1.000  H
  C106     1.0000 0.95468  0.92981  0.43047  Biso   1.000  C
  H70      1.0000 0.83974  0.94601  0.44662  Biso   1.000  H
  H71      1.0000 0.97447  0.84999  0.59708  Biso   1.000  H
  C107     1.0000 0.03537  0.87242  0.52057  Biso   1.000  C
  C108     1.0000 0.64744  0.93069  0.90467  Biso   1.000  C
  H72      1.0000 0.57896  0.99859  0.94418  Biso   1.000  H
  C109     1.0000 0.52403  0.99411  0.84596  Biso   1.000  C
  H73      1.0000 0.57890  0.99859  0.94418  Biso   1.000  H
  C110     1.0000 0.52403  0.99411  0.84601  Biso   1.000  C
  O19      1.0000 0.68162  0.05691  0.01798  Biso   1.000  O
  O20      1.0000 0.68156  0.05691  0.01798  Biso   1.000  O
  C111     1.0000 0.74420  0.18342  0.05658  Biso   1.000  C
  C112     1.0000 0.74414  0.18342  0.05658  Biso   1.000  C
  C113     1.0000 0.77022  0.21971  0.02580  Biso   1.000  C
  H74      1.0000 0.48525  0.10691  0.70999  Biso   1.000  H
  C114     1.0000 0.40107  0.13089  0.63117  Biso   1.000  C
  C115     1.0000 0.40101  0.13089  0.63117  Biso   1.000  C
  C116     1.0000 0.43698  0.22462  0.57041  Biso   1.000  C
  H75      1.0000 0.54518  0.26339  0.60856  Biso   1.000  H
  H76      1.0000 0.54513  0.26339  0.60861  Biso   1.000  H
  O21      1.0000 0.97806  0.18260  0.15535  Biso   1.000  O
  O22      1.0000 0.97807  0.18260  0.15540  Biso   1.000  O
  C117     1.0000 0.04508  0.11669  0.24590  Biso   1.000  C
  C118     1.0000 0.11266  0.03818  0.32988  Biso   1.000  C
  C119     1.0000 0.52337  0.22370  0.35099  Biso   1.000  C
  C120     1.0000 0.43278  0.31339  0.35916  Biso   1.000  C
  C121     1.0000 0.43273  0.31339  0.35921  Biso   1.000  C
  O23      1.0000 0.20974  0.84479  0.98960  Biso   1.000  O
  C122     1.0000 0.24120  0.84450  0.11108  Biso   1.000  C
  C123     1.0000 0.24114  0.84450  0.11108  Biso   1.000  C
  C124     1.0000 0.25967  0.84990  0.23718  Biso   1.000  C
  C125     1.0000 0.65929  0.99421  0.21196  Biso   1.000  C
  C126     1.0000 0.65924  0.99421  0.21201  Biso   1.000  C
  C127     1.0000 0.64460  0.10998  0.22279  Biso   1.000  C
  C128     1.0000 0.64454  0.10998  0.22279  Biso   1.000  C
  C129     1.0000 0.86984  0.76341  0.91760  Biso   1.000  C
  C130     1.0000 0.12894  0.75072  0.89188  Biso   1.000  C
  H77      1.0000 0.02115  0.72202  0.83789  Biso   1.000  H
  H78      1.0000 0.07843  0.75592  0.79296  Biso   1.000  H
  H79      1.0000 0.07844  0.75592  0.79301  Biso   1.000  H
  H80      1.0000 0.07162  0.75320  0.79201  Biso   1.000  H
  H81      1.0000 0.09084  0.82538  0.77471  Biso   1.000  H
  C131     1.0000 0.16455  0.79162  0.85719  Biso   1.000  C
  C132     1.0000 0.65877  0.89542  0.84796  Biso   1.000  C
  C133     1.0000 0.74435  0.82008  0.91720  Biso   1.000  C
  C134     1.0000 0.65872  0.89542  0.84801  Biso   1.000  C
  H82      1.0000 0.68647  0.78472  0.69339  Biso   1.000  H
  H83      1.0000 0.64674  0.84698  0.71906  Biso   1.000  H
  C135     1.0000 0.59678  0.76691  0.74037  Biso   1.000  C
  H84      1.0000 0.68641  0.78472  0.69339  Biso   1.000  H
  H85      1.0000 0.64675  0.84698  0.71911  Biso   1.000  H
  C136     1.0000 0.59672  0.76691  0.74037  Biso   1.000  C
  H86      1.0000 0.94978  0.94980  0.38866  Biso   1.000  H
  H87      1.0000 0.94979  0.94980  0.38871  Biso   1.000  H
  C137     1.0000 0.02800  0.90218  0.45820  Biso   1.000  C
  C138     1.0000 0.02794  0.90218  0.45820  Biso   1.000  C
  H88      1.0000 0.08439  0.85388  0.53917  Biso   1.000  H
  H89      1.0000 0.08433  0.85388  0.53917  Biso   1.000  H
  C139     1.0000 0.68466  0.91070  0.96769  Biso   1.000  C
  C140     1.0000 0.68460  0.91070  0.96769  Biso   1.000  C
  H90      1.0000 0.54063  0.98069  0.80399  Biso   1.000  H
  C141     1.0000 0.45734  0.95058  0.86070  Biso   1.000  C
  H91      1.0000 0.50358  0.03818  0.84029  Biso   1.000  H
  H92      1.0000 0.50352  0.03818  0.84029  Biso   1.000  H
  C142     1.0000 0.72139  0.99951  0.04139  Biso   1.000  C
  C143     1.0000 0.80258  0.20478  0.11620  Biso   1.000  C
  H93      1.0000 0.70650  0.15190  0.06987  Biso   1.000  H
  H94      1.0000 0.71378  0.22039  0.03628  Biso   1.000  H
  H95      1.0000 0.70644  0.15190  0.06987  Biso   1.000  H
  H96      1.0000 0.71839  0.22058  0.04199  Biso   1.000  H
  H97      1.0000 0.76634  0.24670  0.98599  Biso   1.000  H
  C144     1.0000 0.83549  0.24461  0.07879  Biso   1.000  C
  H98      1.0000 0.36499  0.09772  0.63679  Biso   1.000  H
  C145     1.0000 0.38300  0.17501  0.57888  Biso   1.000  C
  H99      1.0000 0.36493  0.09772  0.63679  Biso   1.000  H
  C146     1.0000 0.38294  0.17501  0.57888  Biso   1.000  C
  H100     1.0000 0.42486  0.25410  0.53536  Biso   1.000  H
  H101     1.0000 0.42487  0.25410  0.53541  Biso   1.000  H
  C147     1.0000 0.94071  0.24272  0.16388  Biso   1.000  C
  C148     1.0000 0.94065  0.24272  0.16388  Biso   1.000  C
  C149     1.0000 0.91466  0.20419  0.18879  Biso   1.000  C
  O24      1.0000 0.97007  0.09509  0.25588  Biso   1.000  O
  C150     1.0000 0.11175  0.97398  0.29167  Biso   1.000  C
  H102     1.0000 0.06076  0.04188  0.34667  Biso   1.000  H
  C151     1.0000 0.18067  0.03989  0.39220  Biso   1.000  C
  C152     1.0000 0.18061  0.03989  0.39220  Biso   1.000  C
  H103     1.0000 0.53755  0.18678  0.32858  Biso   1.000  H
  C153     1.0000 0.57149  0.24422  0.40940  Biso   1.000  C
  C154     1.0000 0.57143  0.24422  0.40940  Biso   1.000  C
  C155     1.0000 0.48086  0.33382  0.41767  Biso   1.000  C
  H104     1.0000 0.38648  0.33649  0.34236  Biso   1.000  H
  H105     1.0000 0.38642  0.33649  0.34236  Biso   1.000  H
  C156     1.0000 0.25573  0.81658  0.94337  Biso   1.000  C
  C157     1.0000 0.22972  0.78029  0.97421  Biso   1.000  C
  O25      1.0000 0.19271  0.78778  0.11118  Biso   1.000  O
  O26      1.0000 0.19266  0.78778  0.11118  Biso   1.000  O
  C158     1.0000 0.18107  0.88312  0.25086  Biso   1.000  C
  H106     1.0000 0.24659  0.80359  0.23126  Biso   1.000  H
  C159     1.0000 0.32928  0.85320  0.29569  Biso   1.000  C
  H107     1.0000 0.24654  0.80359  0.23131  Biso   1.000  H
  H108     1.0000 0.64135  0.95491  0.19225  Biso   1.000  H
  C160     1.0000 0.72785  0.99562  0.26029  Biso   1.000  C
  H109     1.0000 0.64136  0.95491  0.19230  Biso   1.000  H
  C161     1.0000 0.71309  0.11148  0.27107  Biso   1.000  C
  H110     1.0000 0.61670  0.14821  0.21025  Biso   1.000  H
  C162     1.0000 0.71303  0.11148  0.27107  Biso   1.000  C
  H111     1.0000 0.61665  0.14821  0.21030  Biso   1.000  H
  O27      1.0000 0.78745  0.76190  0.92678  Biso   1.000  O
  H112     1.0000 0.89925  0.73092  0.94628  Biso   1.000  H
  H113     1.0000 0.89234  0.80558  0.93139  Biso   1.000  H
  O28      1.0000 0.78739  0.76190  0.92678  Biso   1.000  O
  H114     1.0000 0.89919  0.73092  0.94628  Biso   1.000  H
  C163     1.0000 0.19735  0.79522  0.88376  Biso   1.000  C
  H115     1.0000 0.14825  0.70611  0.89349  Biso   1.000  H
  H116     1.0000 0.11025  0.76001  0.93420  Biso   1.000  H
  C164     1.0000 0.19736  0.79522  0.88381  Biso   1.000  C
  H117     1.0000 0.11224  0.76049  0.93630  Biso   1.000  H
  H118     1.0000 0.17283  0.70952  0.91389  Biso   1.000  H
  H119     1.0000 0.22863  0.77450  0.85298  Biso   1.000  H
  H120     1.0000 0.17405  0.83428  0.86180  Biso   1.000  H
  H121     1.0000 0.18310  0.83560  0.86797  Biso   1.000  H
  H122     1.0000 0.20361  0.77129  0.83277  Biso   1.000  H
  C165     1.0000 0.16445  0.75539  0.92121  Biso   1.000  C
  H123     1.0000 0.63397  0.90880  0.80590  Biso   1.000  H
  H124     1.0000 0.63391  0.90880  0.80590  Biso   1.000  H
  C166     1.0000 0.73301  0.85539  0.97386  Biso   1.000  C
  C167     1.0000 0.73302  0.85539  0.97391  Biso   1.000  C
  H125     1.0000 0.61439  0.72980  0.76860  Biso   1.000  H
  H126     1.0000 0.56228  0.79342  0.76419  Biso   1.000  H
  C168     1.0000 0.54588  0.74172  0.67409  Biso   1.000  C
  H127     1.0000 0.61433  0.72980  0.76860  Biso   1.000  H
  H128     1.0000 0.56222  0.79342  0.76419  Biso   1.000  H
  C169     1.0000 0.54582  0.74172  0.67409  Biso   1.000  C
  H129     1.0000 0.07199  0.90379  0.43499  Biso   1.000  H
  H130     1.0000 0.07193  0.90379  0.43499  Biso   1.000  H
  O29      1.0000 0.67520  0.94421  0.02620  Biso   1.000  O
  H131     1.0000 0.47843  0.90680  0.86727  Biso   1.000  H
  H132     1.0000 0.44066  0.96449  0.90256  Biso   1.000  H
  C170     1.0000 0.38226  0.94868  0.80670  Biso   1.000  C
  H133     1.0000 0.44061  0.96449  0.90261  Biso   1.000  H
  H134     1.0000 0.77088  0.99562  0.02179  Biso   1.000  H
  H135     1.0000 0.73640  0.00238  0.08957  Biso   1.000  H
  H136     1.0000 0.73634  0.00238  0.08957  Biso   1.000  H
  C171     1.0000 0.87099  0.24928  0.10807  Biso   1.000  C
  H137     1.0000 0.77130  0.22550  0.14698  Biso   1.000  H
  H138     1.0000 0.82588  0.16572  0.13816  Biso   1.000  H
  H139     1.0000 0.77124  0.22550  0.14698  Biso   1.000  H
  H140     1.0000 0.82589  0.16572  0.13821  Biso   1.000  H
  H141     1.0000 0.81677  0.16440  0.13199  Biso   1.000  H
  H142     1.0000 0.79626  0.22871  0.16718  Biso   1.000  H
  H143     1.0000 0.85168  0.29389  0.10647  Biso   1.000  H
  H144     1.0000 0.88968  0.23999  0.06576  Biso   1.000  H
  H145     1.0000 0.88969  0.23999  0.06581  Biso   1.000  H
  C172     1.0000 0.83538  0.20838  0.14277  Biso   1.000  C
  H146     1.0000 0.88770  0.23951  0.06370  Biso   1.000  H
  H147     1.0000 0.82710  0.29048  0.08606  Biso   1.000  H
  H148     1.0000 0.33480  0.17131  0.54950  Biso   1.000  H
  H149     1.0000 0.33474  0.17131  0.54950  Biso   1.000  H
  H150     1.0000 0.97878  0.27798  0.16207  Biso   1.000  H
  H151     1.0000 0.92150  0.24408  0.20699  Biso   1.000  H
  H152     1.0000 0.92144  0.24408  0.20699  Biso   1.000  H
  H153     1.0000 0.92826  0.24680  0.20800  Biso   1.000  H
  H154     1.0000 0.90910  0.17462  0.22529  Biso   1.000  H
  C173     1.0000 0.94896  0.03629  0.22479  Biso   1.000  C
  C174     1.0000 0.18316  0.94080  0.28696  Biso   1.000  C
  C175     1.0000 0.03836  0.94961  0.26019  Biso   1.000  C
  C176     1.0000 0.18317  0.94080  0.28701  Biso   1.000  C
  H155     1.0000 0.17648  0.00141  0.41927  Biso   1.000  H
  H156     1.0000 0.23305  0.03911  0.37706  Biso   1.000  H
  C177     1.0000 0.17433  0.10142  0.43567  Biso   1.000  C
  H157     1.0000 0.17642  0.00141  0.41927  Biso   1.000  H
  H158     1.0000 0.23306  0.03911  0.37711  Biso   1.000  H
  H159     1.0000 0.61785  0.22102  0.42619  Biso   1.000  H
  C178     1.0000 0.55018  0.29919  0.44279  Biso   1.000  C
  C179     1.0000 0.55012  0.29919  0.44279  Biso   1.000  C
  H160     1.0000 0.46666  0.37069  0.43998  Biso   1.000  H
  H161     1.0000 0.29343  0.84810  0.93009  Biso   1.000  H
  H162     1.0000 0.28615  0.77961  0.96368  Biso   1.000  H
  H163     1.0000 0.28609  0.77961  0.96368  Biso   1.000  H
  H164     1.0000 0.28155  0.77942  0.95801  Biso   1.000  H
  H165     1.0000 0.23360  0.75330  0.01397  Biso   1.000  H
  C180     1.0000 0.11338  0.80009  0.11840  Biso   1.000  C
  C181     1.0000 0.10768  0.85870  0.21938  Biso   1.000  C
  H166     1.0000 0.31019  0.84012  0.33680  Biso   1.000  H
  H167     1.0000 0.34886  0.89761  0.30120  Biso   1.000  H
  C182     1.0000 0.39848  0.80811  0.28200  Biso   1.000  C
  H168     1.0000 0.31013  0.84012  0.33680  Biso   1.000  H
  H169     1.0000 0.75570  0.95739  0.27287  Biso   1.000  H
  H170     1.0000 0.75564  0.95739  0.27287  Biso   1.000  H
  C183     1.0000 0.75467  0.05428  0.28987  Biso   1.000  C
  H171     1.0000 0.73105  0.15069  0.29087  Biso   1.000  H
  O30      1.0000 0.78271  0.84440  0.03377  Biso   1.000  O
  O31      1.0000 0.78265  0.84440  0.03377  Biso   1.000  O
  C184     1.0000 0.47656  0.77630  0.64897  Biso   1.000  C
  C185     1.0000 0.56715  0.68661  0.64080  Biso   1.000  C
  C186     1.0000 0.35533  0.89002  0.77717  Biso   1.000  C
  C187     1.0000 0.34064  0.00579  0.78800  Biso   1.000  C
  O32      1.0000 0.96588  0.98200  0.26555  Biso   1.000  O
  O33      1.0000 0.96583  0.98200  0.26560  Biso   1.000  O
  H172     1.0000 0.97739  0.03201  0.18639  Biso   1.000  H
  H173     1.0000 0.89149  0.03692  0.20810  Biso   1.000  H
  H174     1.0000 0.89143  0.03692  0.20810  Biso   1.000  H
  H175     1.0000 0.23227  0.95710  0.30807  Biso   1.000  H
  C188     1.0000 0.03626  0.89192  0.22399  Biso   1.000  C
  H176     1.0000 0.22328  0.10492  0.46796  Biso   1.000  H
  H177     1.0000 0.17164  0.13931  0.40689  Biso   1.000  H
  C189     1.0000 0.10367  0.10239  0.47237  Biso   1.000  C
  H178     1.0000 0.22323  0.10492  0.46801  Biso   1.000  H
  C190     1.0000 0.10361  0.10239  0.47237  Biso   1.000  C
  H179     1.0000 0.58235  0.31290  0.48189  Biso   1.000  H
  O34      1.0000 0.10117  0.79960  0.18558  Biso   1.000  O
  H180     1.0000 0.07892  0.76750  0.09388  Biso   1.000  H
  H181     1.0000 0.09771  0.84221  0.09900  Biso   1.000  H
  H182     1.0000 0.07886  0.76750  0.09388  Biso   1.000  H
  H183     1.0000 0.09765  0.84221  0.09900  Biso   1.000  H
  H184     1.0000 0.37956  0.76351  0.28089  Biso   1.000  H
  H185     1.0000 0.41248  0.81818  0.23818  Biso   1.000  H
  C191     1.0000 0.47280  0.81390  0.33339  Biso   1.000  C
  C192     1.0000 0.47274  0.81390  0.33339  Biso   1.000  C
  H186     1.0000 0.80057  0.05530  0.32216  Biso   1.000  H
  H187     1.0000 0.80052  0.05530  0.32221  Biso   1.000  H
  C193     1.0000 0.76677  0.78540  0.07077  Biso   1.000  C
  H188     1.0000 0.46239  0.81322  0.67138  Biso   1.000  H
  C194     1.0000 0.42844  0.75578  0.59056  Biso   1.000  C
  H189     1.0000 0.46233  0.81322  0.67138  Biso   1.000  H
  C195     1.0000 0.42845  0.75578  0.59061  Biso   1.000  C
  C196     1.0000 0.51907  0.66618  0.58229  Biso   1.000  C
  H190     1.0000 0.61345  0.66351  0.65759  Biso   1.000  H
  C197     1.0000 0.28684  0.88852  0.72889  Biso   1.000  C
  H191     1.0000 0.38323  0.85179  0.78970  Biso   1.000  H
  H192     1.0000 0.35858  0.04509  0.80770  Biso   1.000  H
  C198     1.0000 0.27208  0.00438  0.73967  Biso   1.000  C
  H193     1.0000 0.35852  0.04509  0.80770  Biso   1.000  H
  C199     1.0000 0.27202  0.00438  0.73967  Biso   1.000  C
  O35      1.0000 0.96480  0.87431  0.18589  Biso   1.000  O
  O36      1.0000 0.96474  0.87431  0.18589  Biso   1.000  O
  C200     1.0000 0.11108  0.07252  0.53489  Biso   1.000  C
  C201     1.0000 0.03037  0.13002  0.44469  Biso   1.000  C
  C202     1.0000 0.11102  0.07252  0.53489  Biso   1.000  C
  C203     1.0000 0.52679  0.86361  0.32497  Biso   1.000  C
  C204     1.0000 0.49089  0.76978  0.38578  Biso   1.000  C
  C205     1.0000 0.52673  0.86361  0.32497  Biso   1.000  C
  C206     1.0000 0.49083  0.76978  0.38578  Biso   1.000  C
  C207     1.0000 0.83976  0.78321  0.13249  Biso   1.000  C
  H194     1.0000 0.76728  0.74712  0.04280  Biso   1.000  H
  H195     1.0000 0.71501  0.78822  0.08666  Biso   1.000  H
  H196     1.0000 0.71495  0.78822  0.08666  Biso   1.000  H
  H197     1.0000 0.38208  0.77898  0.57377  Biso   1.000  H
  C208     1.0000 0.44975  0.70081  0.55717  Biso   1.000  C
  H198     1.0000 0.38203  0.77898  0.57382  Biso   1.000  H
  H199     1.0000 0.53327  0.62931  0.55998  Biso   1.000  H
  C209     1.0000 0.24526  0.94572  0.71009  Biso   1.000  C
  H200     1.0000 0.26888  0.84931  0.70908  Biso   1.000  H
  H201     1.0000 0.26882  0.84931  0.70908  Biso   1.000  H
  H202     1.0000 0.24423  0.04261  0.72708  Biso   1.000  H
  C210     1.0000 0.90515  0.84581  0.22429  Biso   1.000  C
  H203     1.0000 0.16014  0.05399  0.55339  Biso   1.000  H
  C211     1.0000 0.04525  0.07019  0.56948  Biso   1.000  C
  C212     1.0000 0.96456  0.12758  0.47939  Biso   1.000  C
  H204     1.0000 0.02546  0.15001  0.40288  Biso   1.000  H
  H205     1.0000 0.51468  0.89309  0.28997  Biso   1.000  H
  C213     1.0000 0.59886  0.86911  0.36878  Biso   1.000  C
  H206     1.0000 0.51462  0.89309  0.28997  Biso   1.000  H
  C214     1.0000 0.56295  0.77538  0.42955  Biso   1.000  C
  H207     1.0000 0.45475  0.73661  0.39140  Biso   1.000  H
  C215     1.0000 0.56296  0.77538  0.42960  Biso   1.000  C
  C216     1.0000 0.82418  0.83511  0.17746  Biso   1.000  C
  H208     1.0000 0.84117  0.74148  0.15510  Biso   1.000  H
  H209     1.0000 0.89127  0.79002  0.11680  Biso   1.000  H
  H210     1.0000 0.41758  0.68710  0.51806  Biso   1.000  H
  H211     1.0000 0.41753  0.68710  0.51811  Biso   1.000  H
  H212     1.0000 0.19936  0.94470  0.67780  Biso   1.000  H
  H213     1.0000 0.89677  0.87470  0.26069  Biso   1.000  H
  H214     1.0000 0.92509  0.80451  0.24349  Biso   1.000  H
  H215     1.0000 0.92503  0.80451  0.24349  Biso   1.000  H
  C217     1.0000 0.97193  0.09782  0.54176  Biso   1.000  C
  C218     1.0000 0.97194  0.09782  0.54181  Biso   1.000  C
  H216     1.0000 0.05015  0.05020  0.61130  Biso   1.000  H
  H217     1.0000 0.91554  0.14612  0.46079  Biso   1.000  H
  H218     1.0000 0.63494  0.90228  0.36317  Biso   1.000  H
  C219     1.0000 0.61694  0.82499  0.42108  Biso   1.000  C
  H219     1.0000 0.57507  0.74590  0.46460  Biso   1.000  H
  H220     1.0000 0.57501  0.74590  0.46460  Biso   1.000  H
  H221     1.0000 0.78187  0.82271  0.20308  Biso   1.000  H
  H222     1.0000 0.80777  0.87441  0.15259  Biso   1.000  H
  H223     1.0000 0.92794  0.09621  0.56497  Biso   1.000  H
  H224     1.0000 0.66513  0.82869  0.45046  Biso   1.000  H
  H225     1.0000 0.66514  0.82869  0.45051  Biso   1.000  H
  C220     1.0000 0.17575  0.16489  0.82249  Biso   1.000  C
  C221     1.0000 0.09478  0.15419  0.77567  Biso   1.000  C
  C222     1.0000 0.09473  0.15419  0.77572  Biso   1.000  C
  H226     1.0000 0.21806  0.17729  0.79687  Biso   1.000  H
  H227     1.0000 0.19216  0.12559  0.84736  Biso   1.000  H
  C223     1.0000 0.16017  0.21679  0.86747  Biso   1.000  C
  H228     1.0000 0.21801  0.17729  0.79687  Biso   1.000  H
  H229     1.0000 0.19211  0.12559  0.84741  Biso   1.000  H
  C224     1.0000 0.16011  0.21679  0.86747  Biso   1.000  C
  O37      1.0000 0.03513  0.12569  0.81407  Biso   1.000  O
  H230     1.0000 0.10316  0.12530  0.73927  Biso   1.000  H
  H231     1.0000 0.07484  0.19549  0.75646  Biso   1.000  H
  H232     1.0000 0.10311  0.12530  0.73932  Biso   1.000  H
  H233     1.0000 0.07485  0.19549  0.75651  Biso   1.000  H
  H234     1.0000 0.15876  0.25852  0.84486  Biso   1.000  H
  H235     1.0000 0.10866  0.20998  0.88316  Biso   1.000  H
  C225     1.0000 0.23316  0.21460  0.92919  Biso   1.000  C
  H236     1.0000 0.15871  0.25852  0.84491  Biso   1.000  H
  H237     1.0000 0.10861  0.20998  0.88321  Biso   1.000  H
  C226     1.0000 0.23310  0.21460  0.92919  Biso   1.000  C
  C227     1.0000 0.96367  0.10808  0.77597  Biso   1.000  C
  C228     1.0000 0.96361  0.10808  0.77597  Biso   1.000  C
  H238     1.0000 0.28492  0.21178  0.91329  Biso   1.000  H
  O38      1.0000 0.21722  0.15560  0.96619  Biso   1.000  O
  H239     1.0000 0.23265  0.25288  0.95716  Biso   1.000  H
  H240     1.0000 0.23260  0.25288  0.95721  Biso   1.000  H
  C229     1.0000 0.96157  0.05039  0.73977  Biso   1.000  C
  C230     1.0000 0.89225  0.14130  0.78058  Biso   1.000  C
  C231     1.0000 0.96151  0.05039  0.73977  Biso   1.000  C
  C232     1.0000 0.26692  0.14461  0.02610  Biso   1.000  C
  C233     1.0000 0.26686  0.14461  0.02610  Biso   1.000  C
  O39      1.0000 0.03405  0.01800  0.73440  Biso   1.000  O
  C234     1.0000 0.88818  0.02602  0.70828  Biso   1.000  C
  C235     1.0000 0.88812  0.02602  0.70828  Biso   1.000  C
  C236     1.0000 0.81886  0.11688  0.74909  Biso   1.000  C
  O40      1.0000 0.89876  0.20040  0.81437  Biso   1.000  O
  O41      1.0000 0.89870  0.20040  0.81437  Biso   1.000  O
  C237     1.0000 0.25558  0.17992  0.08275  Biso   1.000  C
  C238     1.0000 0.31527  0.08930  0.03227  Biso   1.000  C
  C239     1.0000 0.25559  0.17992  0.08280  Biso   1.000  C
  C240     1.0000 0.05097  0.96371  0.77517  Biso   1.000  C
  C241     1.0000 0.05092  0.96371  0.77522  Biso   1.000  C
  C242     1.0000 0.88727  0.96182  0.67008  Biso   1.000  C
  C243     1.0000 0.88721  0.96182  0.67008  Biso   1.000  C
  C244     1.0000 0.81677  0.05920  0.71300  Biso   1.000  C
  C245     1.0000 0.81671  0.05920  0.71300  Biso   1.000  C
  C246     1.0000 0.74026  0.15010  0.76278  Biso   1.000  C
  C247     1.0000 0.88655  0.19991  0.88156  Biso   1.000  C
  C248     1.0000 0.88656  0.19991  0.88161  Biso   1.000  C
  O42      1.0000 0.21248  0.23810  0.07318  Biso   1.000  O
  C249     1.0000 0.29278  0.15988  0.14568  Biso   1.000  C
  O43      1.0000 0.32473  0.05579  0.97376  Biso   1.000  O
  O44      1.0000 0.32474  0.05579  0.97381  Biso   1.000  O
  C250     1.0000 0.35249  0.06931  0.09529  Biso   1.000  C
  O45      1.0000 0.02986  0.90491  0.74408  Biso   1.000  O
  H241     1.0000 0.02254  0.96799  0.81357  Biso   1.000  H
  H242     1.0000 0.10844  0.96308  0.79186  Biso   1.000  H
  H243     1.0000 0.10845  0.96308  0.79191  Biso   1.000  H
  C251     1.0000 0.88305  0.90700  0.71876  Biso   1.000  C
  H244     1.0000 0.93917  0.95812  0.65328  Biso   1.000  H
  C252     1.0000 0.81926  0.96011  0.60776  Biso   1.000  C
  C253     1.0000 0.88306  0.90700  0.71881  Biso   1.000  C
  H245     1.0000 0.93911  0.95812  0.65328  Biso   1.000  H
  C254     1.0000 0.81927  0.96011  0.60781  Biso   1.000  C
  H246     1.0000 0.76766  0.04290  0.69189  Biso   1.000  H
  C255     1.0000 0.72047  0.12690  0.83006  Biso   1.000  C
  H247     1.0000 0.75334  0.19641  0.76870  Biso   1.000  H
  C256     1.0000 0.67065  0.14680  0.70427  Biso   1.000  C
  C257     1.0000 0.72042  0.12690  0.83011  Biso   1.000  C
  H248     1.0000 0.92101  0.23250  0.90607  Biso   1.000  H
  H249     1.0000 0.90222  0.15779  0.90096  Biso   1.000  H
  O46      1.0000 0.80722  0.21222  0.88878  Biso   1.000  O
  H250     1.0000 0.90222  0.15779  0.90101  Biso   1.000  H
  C258     1.0000 0.13009  0.23659  0.08235  Biso   1.000  C
  C259     1.0000 0.13010  0.23659  0.08240  Biso   1.000  C
  C260     1.0000 0.26936  0.19500  0.20709  Biso   1.000  C
  C261     1.0000 0.34116  0.10458  0.15199  Biso   1.000  C
  C262     1.0000 0.27854  0.00049  0.95857  Biso   1.000  C
  C263     1.0000 0.40111  0.00618  0.09890  Biso   1.000  C
  C264     1.0000 0.40105  0.00618  0.09890  Biso   1.000  C
  C265     1.0000 0.95485  0.88331  0.75406  Biso   1.000  C
  C266     1.0000 0.95486  0.88331  0.75411  Biso   1.000  C
  C267     1.0000 0.80949  0.88098  0.72979  Biso   1.000  C
  C268     1.0000 0.80943  0.88098  0.72979  Biso   1.000  C
  H251     1.0000 0.82345  0.99859  0.58068  Biso   1.000  H
  H252     1.0000 0.76688  0.96089  0.62290  Biso   1.000  H
  C269     1.0000 0.82560  0.89858  0.56429  Biso   1.000  C
  H253     1.0000 0.76682  0.96089  0.62290  Biso   1.000  H
  C270     1.0000 0.82554  0.89858  0.56429  Biso   1.000  C
  C271     1.0000 0.66877  0.07442  0.83327  Biso   1.000  C
  C272     1.0000 0.75873  0.15550  0.88888  Biso   1.000  C
  C273     1.0000 0.66871  0.07442  0.83327  Biso   1.000  C
  H254     1.0000 0.68974  0.15988  0.66316  Biso   1.000  H
  H255     1.0000 0.65107  0.10239  0.69876  Biso   1.000  H
  C274     1.0000 0.60145  0.19189  0.71796  Biso   1.000  C
  H256     1.0000 0.68975  0.15988  0.66321  Biso   1.000  H
  H257     1.0000 0.65102  0.10239  0.69881  Biso   1.000  H
  C275     1.0000 0.60146  0.19189  0.71801  Biso   1.000  C
  H258     1.0000 0.10068  0.26908  0.05367  Biso   1.000  H
  H259     1.0000 0.10759  0.19442  0.06857  Biso   1.000  H
  O47      1.0000 0.11880  0.24821  0.14838  Biso   1.000  O
  O48      1.0000 0.11874  0.24821  0.14838  Biso   1.000  O
  C276     1.0000 0.19237  0.16869  0.22369  Biso   1.000  C
  H260     1.0000 0.25855  0.24028  0.19346  Biso   1.000  H
  C277     1.0000 0.33618  0.19709  0.26906  Biso   1.000  C
  H261     1.0000 0.25856  0.24028  0.19351  Biso   1.000  H
  C278     1.0000 0.33612  0.19709  0.26906  Biso   1.000  C
  H262     1.0000 0.36596  0.09120  0.19406  Biso   1.000  H
  H263     1.0000 0.36597  0.09120  0.19411  Biso   1.000  H
  H264     1.0000 0.22905  0.00438  0.97817  Biso   1.000  H
  H265     1.0000 0.22899  0.00438  0.97817  Biso   1.000  H
  O49      1.0000 0.31831  0.94309  0.98198  Biso   1.000  O
  H266     1.0000 0.26353  0.99762  0.91038  Biso   1.000  H
  C279     1.0000 0.34450  0.94951  0.10476  Biso   1.000  C
  C280     1.0000 0.34444  0.94951  0.10476  Biso   1.000  C
  H267     1.0000 0.42097  0.00141  0.05578  Biso   1.000  H
  C281     1.0000 0.47590  0.00589  0.15400  Biso   1.000  C
  C282     1.0000 0.47584  0.00589  0.15400  Biso   1.000  C
  C283     1.0000 0.95294  0.83360  0.80058  Biso   1.000  C
  H268     1.0000 0.76149  0.89688  0.70618  Biso   1.000  H
  C284     1.0000 0.80756  0.83131  0.77627  Biso   1.000  C
  H269     1.0000 0.76143  0.89688  0.70618  Biso   1.000  H
  C285     1.0000 0.80750  0.83131  0.77627  Biso   1.000  C
  H270     1.0000 0.77665  0.89508  0.53200  Biso   1.000  H
  H271     1.0000 0.82829  0.86069  0.59307  Biso   1.000  H
  C286     1.0000 0.89626  0.89761  0.52759  Biso   1.000  C
  H272     1.0000 0.82824  0.86069  0.59312  Biso   1.000  H
  H273     1.0000 0.64314  0.05540  0.79397  Biso   1.000  H
  C287     1.0000 0.65543  0.05049  0.89519  Biso   1.000  C
  H274     1.0000 0.64315  0.05540  0.79402  Biso   1.000  H
  C288     1.0000 0.74543  0.13152  0.95069  Biso   1.000  C
  H275     1.0000 0.62037  0.23649  0.71906  Biso   1.000  H
  H276     1.0000 0.58745  0.18182  0.76178  Biso   1.000  H
  C289     1.0000 0.52713  0.18610  0.66657  Biso   1.000  C
  H277     1.0000 0.62032  0.23649  0.71911  Biso   1.000  H
  C290     1.0000 0.12061  0.19242  0.18829  Biso   1.000  C
  C291     1.0000 0.12055  0.19242  0.18829  Biso   1.000  C
  C292     1.0000 0.19044  0.11902  0.27017  Biso   1.000  C
  H278     1.0000 0.31346  0.21528  0.30656  Biso   1.000  H
  H279     1.0000 0.35319  0.15302  0.28089  Biso   1.000  H
  C293     1.0000 0.40315  0.23309  0.25959  Biso   1.000  C
  H280     1.0000 0.35313  0.15302  0.28089  Biso   1.000  H
  C294     1.0000 0.30620  0.92101  0.04605  Biso   1.000  C
  C295     1.0000 0.30614  0.92101  0.04610  Biso   1.000  C
  C296     1.0000 0.33116  0.92558  0.16668  Biso   1.000  C
  H281     1.0000 0.49636  0.96182  0.15966  Biso   1.000  H
  H282     1.0000 0.45930  0.01931  0.19596  Biso   1.000  H
  C297     1.0000 0.54259  0.04942  0.13926  Biso   1.000  C
  H283     1.0000 0.45924  0.01931  0.19596  Biso   1.000  H
  C298     1.0000 0.54254  0.04942  0.13931  Biso   1.000  C
  C299     1.0000 0.87932  0.80758  0.81166  Biso   1.000  C
  C300     1.0000 0.87933  0.80758  0.81171  Biso   1.000  C
  O50      1.0000 0.02187  0.81740  0.84460  Biso   1.000  O
  O51      1.0000 0.02181  0.81740  0.84460  Biso   1.000  O
  C301     1.0000 0.73057  0.80500  0.79286  Biso   1.000  C
  C302     1.0000 0.73052  0.80500  0.79291  Biso   1.000  C
  C303     1.0000 0.88885  0.92748  0.46507  Biso   1.000  C
  C304     1.0000 0.96956  0.86998  0.55527  Biso   1.000  C
  C305     1.0000 0.88886  0.92748  0.46512  Biso   1.000  C
  C306     1.0000 0.96957  0.86998  0.55532  Biso   1.000  C
  C307     1.0000 0.59882  0.99382  0.90106  Biso   1.000  C
  C308     1.0000 0.59883  0.99382  0.90111  Biso   1.000  C
  C309     1.0000 0.69373  0.07899  0.95390  Biso   1.000  C
  O52      1.0000 0.79019  0.15521  0.01036  Biso   1.000  O
  O53      1.0000 0.79020  0.15521  0.01041  Biso   1.000  O
  C310     1.0000 0.47314  0.13639  0.67499  Biso   1.000  C
  C311     1.0000 0.50904  0.23022  0.61418  Biso   1.000  C
  C312     1.0000 0.04699  0.16640  0.19937  Biso   1.000  C
  C313     1.0000 0.04693  0.16640  0.19937  Biso   1.000  C
  H284     1.0000 0.23844  0.10312  0.29378  Biso   1.000  H
  C314     1.0000 0.11688  0.09300  0.28120  Biso   1.000  C
  H285     1.0000 0.38554  0.27020  0.23136  Biso   1.000  H
  H286     1.0000 0.43765  0.20658  0.23577  Biso   1.000  H
  C315     1.0000 0.45405  0.25828  0.32587  Biso   1.000  C
  H287     1.0000 0.38555  0.27020  0.23141  Biso   1.000  H
  C316     1.0000 0.25450  0.86848  0.04926  Biso   1.000  C
  C317     1.0000 0.25445  0.86848  0.04931  Biso   1.000  C
  C318     1.0000 0.27946  0.87310  0.16989  Biso   1.000  C
  H288     1.0000 0.35679  0.94460  0.20599  Biso   1.000  H
  H289     1.0000 0.52150  0.09320  0.13269  Biso   1.000  H
  H290     1.0000 0.55927  0.03551  0.09739  Biso   1.000  H
  C319     1.0000 0.61767  0.05132  0.19326  Biso   1.000  C
  H291     1.0000 0.52144  0.09320  0.13269  Biso   1.000  H
  C320     1.0000 0.61768  0.05132  0.19331  Biso   1.000  C
  O54      1.0000 0.88113  0.75179  0.85157  Biso   1.000  O
  C321     1.0000 0.05922  0.75728  0.83608  Biso   1.000  C
  C322     1.0000 0.08522  0.79581  0.81121  Biso   1.000  C
  C323     1.0000 0.70715  0.84012  0.85428  Biso   1.000  C
  H292     1.0000 0.74138  0.75972  0.80650  Biso   1.000  H
  C324     1.0000 0.66375  0.80291  0.73089  Biso   1.000  C
  H293     1.0000 0.74132  0.75972  0.80650  Biso   1.000  H
  H294     1.0000 0.83979  0.94601  0.44657  Biso   1.000  H
  C325     1.0000 0.95468  0.92981  0.43047  Biso   1.000  C
  H295     1.0000 0.83974  0.94601  0.44662  Biso   1.000  H
  H296     1.0000 0.97447  0.84999  0.59708  Biso   1.000  H
  C326     1.0000 0.03537  0.87242  0.52057  Biso   1.000  C
  C327     1.0000 0.64744  0.93069  0.90467  Biso   1.000  C
  H297     1.0000 0.57896  0.99859  0.94418  Biso   1.000  H
  C328     1.0000 0.52403  0.99411  0.84596  Biso   1.000  C
  H298     1.0000 0.57890  0.99859  0.94418  Biso   1.000  H
  C329     1.0000 0.52403  0.99411  0.84601  Biso   1.000  C
  O55      1.0000 0.68162  0.05691  0.01798  Biso   1.000  O
  O56      1.0000 0.68156  0.05691  0.01798  Biso   1.000  O
  C330     1.0000 0.74420  0.18342  0.05658  Biso   1.000  C
  C331     1.0000 0.74414  0.18342  0.05658  Biso   1.000  C
  C332     1.0000 0.77022  0.21971  0.02580  Biso   1.000  C
  H299     1.0000 0.48525  0.10691  0.70999  Biso   1.000  H
  C333     1.0000 0.40107  0.13089  0.63117  Biso   1.000  C
  C334     1.0000 0.40101  0.13089  0.63117  Biso   1.000  C
  C335     1.0000 0.43698  0.22462  0.57041  Biso   1.000  C
  H300     1.0000 0.54518  0.26339  0.60856  Biso   1.000  H
  H301     1.0000 0.54513  0.26339  0.60861  Biso   1.000  H
  O57      1.0000 0.97806  0.18260  0.15535  Biso   1.000  O
  O58      1.0000 0.97807  0.18260  0.15540  Biso   1.000  O
  C336     1.0000 0.04508  0.11669  0.24590  Biso   1.000  C
  C337     1.0000 0.11266  0.03818  0.32988  Biso   1.000  C
  C338     1.0000 0.52337  0.22370  0.35099  Biso   1.000  C
  C339     1.0000 0.43278  0.31339  0.35916  Biso   1.000  C
  C340     1.0000 0.43273  0.31339  0.35921  Biso   1.000  C
  O59      1.0000 0.20974  0.84479  0.98960  Biso   1.000  O
  C341     1.0000 0.24120  0.84450  0.11108  Biso   1.000  C
  C342     1.0000 0.24114  0.84450  0.11108  Biso   1.000  C
  C343     1.0000 0.25967  0.84990  0.23718  Biso   1.000  C
  C344     1.0000 0.65929  0.99421  0.21196  Biso   1.000  C
  C345     1.0000 0.65924  0.99421  0.21201  Biso   1.000  C
  C346     1.0000 0.64460  0.10998  0.22279  Biso   1.000  C
  C347     1.0000 0.64454  0.10998  0.22279  Biso   1.000  C
  C348     1.0000 0.86984  0.76341  0.91760  Biso   1.000  C
  C349     1.0000 0.12894  0.75072  0.89188  Biso   1.000  C
  H302     1.0000 0.02115  0.72202  0.83789  Biso   1.000  H
  H303     1.0000 0.07843  0.75592  0.79296  Biso   1.000  H
  H304     1.0000 0.07844  0.75592  0.79301  Biso   1.000  H
  H305     1.0000 0.07162  0.75320  0.79201  Biso   1.000  H
  H306     1.0000 0.09084  0.82538  0.77471  Biso   1.000  H
  C350     1.0000 0.16455  0.79162  0.85719  Biso   1.000  C
  C351     1.0000 0.65877  0.89542  0.84796  Biso   1.000  C
  C352     1.0000 0.74435  0.82008  0.91720  Biso   1.000  C
  C353     1.0000 0.65872  0.89542  0.84801  Biso   1.000  C
  H307     1.0000 0.68647  0.78472  0.69339  Biso   1.000  H
  H308     1.0000 0.64674  0.84698  0.71906  Biso   1.000  H
  C354     1.0000 0.59678  0.76691  0.74037  Biso   1.000  C
  H309     1.0000 0.68641  0.78472  0.69339  Biso   1.000  H
  H310     1.0000 0.64675  0.84698  0.71911  Biso   1.000  H
  C355     1.0000 0.59672  0.76691  0.74037  Biso   1.000  C
  H311     1.0000 0.94978  0.94980  0.38866  Biso   1.000  H
  H312     1.0000 0.94979  0.94980  0.38871  Biso   1.000  H
  C356     1.0000 0.02800  0.90218  0.45820  Biso   1.000  C
  C357     1.0000 0.02794  0.90218  0.45820  Biso   1.000  C
  H313     1.0000 0.08439  0.85388  0.53917  Biso   1.000  H
  H314     1.0000 0.08433  0.85388  0.53917  Biso   1.000  H
  C358     1.0000 0.68466  0.91070  0.96769  Biso   1.000  C
  C359     1.0000 0.68460  0.91070  0.96769  Biso   1.000  C
  H315     1.0000 0.54063  0.98069  0.80399  Biso   1.000  H
  C360     1.0000 0.45734  0.95058  0.86070  Biso   1.000  C
  H316     1.0000 0.50358  0.03818  0.84029  Biso   1.000  H
  H317     1.0000 0.50352  0.03818  0.84029  Biso   1.000  H
  C361     1.0000 0.72139  0.99951  0.04139  Biso   1.000  C
  C362     1.0000 0.80258  0.20478  0.11620  Biso   1.000  C
  H318     1.0000 0.70650  0.15190  0.06987  Biso   1.000  H
  H319     1.0000 0.71378  0.22039  0.03628  Biso   1.000  H
  H320     1.0000 0.70644  0.15190  0.06987  Biso   1.000  H
  H321     1.0000 0.71839  0.22058  0.04199  Biso   1.000  H
  H322     1.0000 0.76634  0.24670  0.98599  Biso   1.000  H
  C363     1.0000 0.83549  0.24461  0.07879  Biso   1.000  C
  H323     1.0000 0.36499  0.09772  0.63679  Biso   1.000  H
  C364     1.0000 0.38300  0.17501  0.57888  Biso   1.000  C
  H324     1.0000 0.36493  0.09772  0.63679  Biso   1.000  H
  C365     1.0000 0.38294  0.17501  0.57888  Biso   1.000  C
  H325     1.0000 0.42486  0.25410  0.53536  Biso   1.000  H
  H326     1.0000 0.42487  0.25410  0.53541  Biso   1.000  H
  C366     1.0000 0.94071  0.24272  0.16388  Biso   1.000  C
  C367     1.0000 0.94065  0.24272  0.16388  Biso   1.000  C
  C368     1.0000 0.91466  0.20419  0.18879  Biso   1.000  C
  O60      1.0000 0.97007  0.09509  0.25588  Biso   1.000  O
  C369     1.0000 0.11175  0.97398  0.29167  Biso   1.000  C
  H327     1.0000 0.06076  0.04188  0.34667  Biso   1.000  H
  C370     1.0000 0.18067  0.03989  0.39220  Biso   1.000  C
  C371     1.0000 0.18061  0.03989  0.39220  Biso   1.000  C
  H328     1.0000 0.53755  0.18678  0.32858  Biso   1.000  H
  C372     1.0000 0.57149  0.24422  0.40940  Biso   1.000  C
  C373     1.0000 0.57143  0.24422  0.40940  Biso   1.000  C
  C374     1.0000 0.48086  0.33382  0.41767  Biso   1.000  C
  H329     1.0000 0.38648  0.33649  0.34236  Biso   1.000  H
  H330     1.0000 0.38642  0.33649  0.34236  Biso   1.000  H
  C375     1.0000 0.25573  0.81658  0.94337  Biso   1.000  C
  C376     1.0000 0.22972  0.78029  0.97421  Biso   1.000  C
  O61      1.0000 0.19271  0.78778  0.11118  Biso   1.000  O
  O62      1.0000 0.19266  0.78778  0.11118  Biso   1.000  O
  C377     1.0000 0.18107  0.88312  0.25086  Biso   1.000  C
  H331     1.0000 0.24659  0.80359  0.23126  Biso   1.000  H
  C378     1.0000 0.32928  0.85320  0.29569  Biso   1.000  C
  H332     1.0000 0.24654  0.80359  0.23131  Biso   1.000  H
  H333     1.0000 0.64135  0.95491  0.19225  Biso   1.000  H
  C379     1.0000 0.72785  0.99562  0.26029  Biso   1.000  C
  H334     1.0000 0.64136  0.95491  0.19230  Biso   1.000  H
  C380     1.0000 0.71309  0.11148  0.27107  Biso   1.000  C
  H335     1.0000 0.61670  0.14821  0.21025  Biso   1.000  H
  C381     1.0000 0.71303  0.11148  0.27107  Biso   1.000  C
  H336     1.0000 0.61665  0.14821  0.21030  Biso   1.000  H
  O63      1.0000 0.78745  0.76190  0.92678  Biso   1.000  O
  H337     1.0000 0.89925  0.73092  0.94628  Biso   1.000  H
  H338     1.0000 0.89234  0.80558  0.93139  Biso   1.000  H
  O64      1.0000 0.78739  0.76190  0.92678  Biso   1.000  O
  H339     1.0000 0.89919  0.73092  0.94628  Biso   1.000  H
  C382     1.0000 0.19735  0.79522  0.88376  Biso   1.000  C
  H340     1.0000 0.14825  0.70611  0.89349  Biso   1.000  H
  H341     1.0000 0.11025  0.76001  0.93420  Biso   1.000  H
  C383     1.0000 0.19736  0.79522  0.88381  Biso   1.000  C
  H342     1.0000 0.11224  0.76049  0.93630  Biso   1.000  H
  H343     1.0000 0.17283  0.70952  0.91389  Biso   1.000  H
  H344     1.0000 0.22863  0.77450  0.85298  Biso   1.000  H
  H345     1.0000 0.17405  0.83428  0.86180  Biso   1.000  H
  H346     1.0000 0.18310  0.83560  0.86797  Biso   1.000  H
  H347     1.0000 0.20361  0.77129  0.83277  Biso   1.000  H
  C384     1.0000 0.16445  0.75539  0.92121  Biso   1.000  C
  H348     1.0000 0.63397  0.90880  0.80590  Biso   1.000  H
  H349     1.0000 0.63391  0.90880  0.80590  Biso   1.000  H
  C385     1.0000 0.73301  0.85539  0.97386  Biso   1.000  C
  C386     1.0000 0.73302  0.85539  0.97391  Biso   1.000  C
  H350     1.0000 0.61439  0.72980  0.76860  Biso   1.000  H
  H351     1.0000 0.56228  0.79342  0.76419  Biso   1.000  H
  C387     1.0000 0.54588  0.74172  0.67409  Biso   1.000  C
  H352     1.0000 0.61433  0.72980  0.76860  Biso   1.000  H
  H353     1.0000 0.56222  0.79342  0.76419  Biso   1.000  H
  C388     1.0000 0.54582  0.74172  0.67409  Biso   1.000  C
  H354     1.0000 0.07199  0.90379  0.43499  Biso   1.000  H
  H355     1.0000 0.07193  0.90379  0.43499  Biso   1.000  H
  O65      1.0000 0.67520  0.94421  0.02620  Biso   1.000  O
  H356     1.0000 0.47843  0.90680  0.86727  Biso   1.000  H
  H357     1.0000 0.44066  0.96449  0.90256  Biso   1.000  H
  C389     1.0000 0.38226  0.94868  0.80670  Biso   1.000  C
  H358     1.0000 0.44061  0.96449  0.90261  Biso   1.000  H
  H359     1.0000 0.77088  0.99562  0.02179  Biso   1.000  H
  H360     1.0000 0.73640  0.00238  0.08957  Biso   1.000  H
  H361     1.0000 0.73634  0.00238  0.08957  Biso   1.000  H
  C390     1.0000 0.87099  0.24928  0.10807  Biso   1.000  C
  H362     1.0000 0.77130  0.22550  0.14698  Biso   1.000  H
  H363     1.0000 0.82588  0.16572  0.13816  Biso   1.000  H
  H364     1.0000 0.77124  0.22550  0.14698  Biso   1.000  H
  H365     1.0000 0.82589  0.16572  0.13821  Biso   1.000  H
  H366     1.0000 0.81677  0.16440  0.13199  Biso   1.000  H
  H367     1.0000 0.79626  0.22871  0.16718  Biso   1.000  H
  H368     1.0000 0.85168  0.29389  0.10647  Biso   1.000  H
  H369     1.0000 0.88968  0.23999  0.06576  Biso   1.000  H
  H370     1.0000 0.88969  0.23999  0.06581  Biso   1.000  H
  C391     1.0000 0.83538  0.20838  0.14277  Biso   1.000  C
  H371     1.0000 0.88770  0.23951  0.06370  Biso   1.000  H
  H372     1.0000 0.82710  0.29048  0.08606  Biso   1.000  H
  H373     1.0000 0.33480  0.17131  0.54950  Biso   1.000  H
  H374     1.0000 0.33474  0.17131  0.54950  Biso   1.000  H
  H375     1.0000 0.97878  0.27798  0.16207  Biso   1.000  H
  H376     1.0000 0.92150  0.24408  0.20699  Biso   1.000  H
  H377     1.0000 0.92144  0.24408  0.20699  Biso   1.000  H
  H378     1.0000 0.92826  0.24680  0.20800  Biso   1.000  H
  H379     1.0000 0.90910  0.17462  0.22529  Biso   1.000  H
  C392     1.0000 0.94896  0.03629  0.22479  Biso   1.000  C
  C393     1.0000 0.18316  0.94080  0.28696  Biso   1.000  C
  C394     1.0000 0.03836  0.94961  0.26019  Biso   1.000  C
  C395     1.0000 0.18317  0.94080  0.28701  Biso   1.000  C
  H380     1.0000 0.17648  0.00141  0.41927  Biso   1.000  H
  H381     1.0000 0.23305  0.03911  0.37706  Biso   1.000  H
  C396     1.0000 0.17433  0.10142  0.43567  Biso   1.000  C
  H382     1.0000 0.17642  0.00141  0.41927  Biso   1.000  H
  H383     1.0000 0.23306  0.03911  0.37711  Biso   1.000  H
  H384     1.0000 0.61785  0.22102  0.42619  Biso   1.000  H
  C397     1.0000 0.55018  0.29919  0.44279  Biso   1.000  C
  C398     1.0000 0.55012  0.29919  0.44279  Biso   1.000  C
  H385     1.0000 0.46666  0.37069  0.43998  Biso   1.000  H
  H386     1.0000 0.29343  0.84810  0.93009  Biso   1.000  H
  H387     1.0000 0.28615  0.77961  0.96368  Biso   1.000  H
  H388     1.0000 0.28609  0.77961  0.96368  Biso   1.000  H
  H389     1.0000 0.28155  0.77942  0.95801  Biso   1.000  H
  H390     1.0000 0.23360  0.75330  0.01397  Biso   1.000  H
  C399     1.0000 0.11338  0.80009  0.11840  Biso   1.000  C
  C400     1.0000 0.10768  0.85870  0.21938  Biso   1.000  C
  H391     1.0000 0.31019  0.84012  0.33680  Biso   1.000  H
  H392     1.0000 0.34886  0.89761  0.30120  Biso   1.000  H
  C401     1.0000 0.39848  0.80811  0.28200  Biso   1.000  C
  H393     1.0000 0.31013  0.84012  0.33680  Biso   1.000  H
  H394     1.0000 0.75570  0.95739  0.27287  Biso   1.000  H
  H395     1.0000 0.75564  0.95739  0.27287  Biso   1.000  H
  C402     1.0000 0.75467  0.05428  0.28987  Biso   1.000  C
  H396     1.0000 0.73105  0.15069  0.29087  Biso   1.000  H
  O66      1.0000 0.78271  0.84440  0.03377  Biso   1.000  O
  O67      1.0000 0.78265  0.84440  0.03377  Biso   1.000  O
  C403     1.0000 0.47656  0.77630  0.64897  Biso   1.000  C
  C404     1.0000 0.56715  0.68661  0.64080  Biso   1.000  C
  C405     1.0000 0.35533  0.89002  0.77717  Biso   1.000  C
  C406     1.0000 0.34064  0.00579  0.78800  Biso   1.000  C
  O68      1.0000 0.96588  0.98200  0.26555  Biso   1.000  O
  O69      1.0000 0.96583  0.98200  0.26560  Biso   1.000  O
  H397     1.0000 0.97739  0.03201  0.18639  Biso   1.000  H
  H398     1.0000 0.89149  0.03692  0.20810  Biso   1.000  H
  H399     1.0000 0.89143  0.03692  0.20810  Biso   1.000  H
  H400     1.0000 0.23227  0.95710  0.30807  Biso   1.000  H
  C407     1.0000 0.03626  0.89192  0.22399  Biso   1.000  C
  H401     1.0000 0.22328  0.10492  0.46796  Biso   1.000  H
  H402     1.0000 0.17164  0.13931  0.40689  Biso   1.000  H
  C408     1.0000 0.10367  0.10239  0.47237  Biso   1.000  C
  H403     1.0000 0.22323  0.10492  0.46801  Biso   1.000  H
  C409     1.0000 0.10361  0.10239  0.47237  Biso   1.000  C
  H404     1.0000 0.58235  0.31290  0.48189  Biso   1.000  H
  O70      1.0000 0.10117  0.79960  0.18558  Biso   1.000  O
  H405     1.0000 0.07892  0.76750  0.09388  Biso   1.000  H
  H406     1.0000 0.09771  0.84221  0.09900  Biso   1.000  H
  H407     1.0000 0.07886  0.76750  0.09388  Biso   1.000  H
  H408     1.0000 0.09765  0.84221  0.09900  Biso   1.000  H
  H409     1.0000 0.37956  0.76351  0.28089  Biso   1.000  H
  H410     1.0000 0.41248  0.81818  0.23818  Biso   1.000  H
  C410     1.0000 0.47280  0.81390  0.33339  Biso   1.000  C
  C411     1.0000 0.47274  0.81390  0.33339  Biso   1.000  C
  H411     1.0000 0.80057  0.05530  0.32216  Biso   1.000  H
  H412     1.0000 0.80052  0.05530  0.32221  Biso   1.000  H
  C412     1.0000 0.76677  0.78540  0.07077  Biso   1.000  C
  H413     1.0000 0.46239  0.81322  0.67138  Biso   1.000  H
  C413     1.0000 0.42844  0.75578  0.59056  Biso   1.000  C
  H414     1.0000 0.46233  0.81322  0.67138  Biso   1.000  H
  C414     1.0000 0.42845  0.75578  0.59061  Biso   1.000  C
  C415     1.0000 0.51907  0.66618  0.58229  Biso   1.000  C
  H415     1.0000 0.61345  0.66351  0.65759  Biso   1.000  H
  C416     1.0000 0.28684  0.88852  0.72889  Biso   1.000  C
  H416     1.0000 0.38323  0.85179  0.78970  Biso   1.000  H
  H417     1.0000 0.35858  0.04509  0.80770  Biso   1.000  H
  C417     1.0000 0.27208  0.00438  0.73967  Biso   1.000  C
  H418     1.0000 0.35852  0.04509  0.80770  Biso   1.000  H
  C418     1.0000 0.27202  0.00438  0.73967  Biso   1.000  C
  O71      1.0000 0.96480  0.87431  0.18589  Biso   1.000  O
  O72      1.0000 0.96474  0.87431  0.18589  Biso   1.000  O
  C419     1.0000 0.11108  0.07252  0.53489  Biso   1.000  C
  C420     1.0000 0.03037  0.13002  0.44469  Biso   1.000  C
  C421     1.0000 0.11102  0.07252  0.53489  Biso   1.000  C
  C422     1.0000 0.52679  0.86361  0.32497  Biso   1.000  C
  C423     1.0000 0.49089  0.76978  0.38578  Biso   1.000  C
  C424     1.0000 0.52673  0.86361  0.32497  Biso   1.000  C
  C425     1.0000 0.49083  0.76978  0.38578  Biso   1.000  C
  C426     1.0000 0.83976  0.78321  0.13249  Biso   1.000  C
  H419     1.0000 0.76728  0.74712  0.04280  Biso   1.000  H
  H420     1.0000 0.71501  0.78822  0.08666  Biso   1.000  H
  H421     1.0000 0.71495  0.78822  0.08666  Biso   1.000  H
  H422     1.0000 0.38208  0.77898  0.57377  Biso   1.000  H
  C427     1.0000 0.44975  0.70081  0.55717  Biso   1.000  C
  H423     1.0000 0.38203  0.77898  0.57382  Biso   1.000  H
  H424     1.0000 0.53327  0.62931  0.55998  Biso   1.000  H
  C428     1.0000 0.24526  0.94572  0.71009  Biso   1.000  C
  H425     1.0000 0.26888  0.84931  0.70908  Biso   1.000  H
  H426     1.0000 0.26882  0.84931  0.70908  Biso   1.000  H
  H427     1.0000 0.24423  0.04261  0.72708  Biso   1.000  H
  C429     1.0000 0.90515  0.84581  0.22429  Biso   1.000  C
  H428     1.0000 0.16014  0.05399  0.55339  Biso   1.000  H
  C430     1.0000 0.04525  0.07019  0.56948  Biso   1.000  C
  C431     1.0000 0.96456  0.12758  0.47939  Biso   1.000  C
  H429     1.0000 0.02546  0.15001  0.40288  Biso   1.000  H
  H430     1.0000 0.51468  0.89309  0.28997  Biso   1.000  H
  C432     1.0000 0.59886  0.86911  0.36878  Biso   1.000  C
  H431     1.0000 0.51462  0.89309  0.28997  Biso   1.000  H
  C433     1.0000 0.56295  0.77538  0.42955  Biso   1.000  C
  H432     1.0000 0.45475  0.73661  0.39140  Biso   1.000  H
  C434     1.0000 0.56296  0.77538  0.42960  Biso   1.000  C
  C435     1.0000 0.82418  0.83511  0.17746  Biso   1.000  C
  H433     1.0000 0.84117  0.74148  0.15510  Biso   1.000  H
  H434     1.0000 0.89127  0.79002  0.11680  Biso   1.000  H
  H435     1.0000 0.41758  0.68710  0.51806  Biso   1.000  H
  H436     1.0000 0.41753  0.68710  0.51811  Biso   1.000  H
  H437     1.0000 0.19936  0.94470  0.67780  Biso   1.000  H
  H438     1.0000 0.89677  0.87470  0.26069  Biso   1.000  H
  H439     1.0000 0.92509  0.80451  0.24349  Biso   1.000  H
  H440     1.0000 0.92503  0.80451  0.24349  Biso   1.000  H
  C436     1.0000 0.97193  0.09782  0.54176  Biso   1.000  C
  C437     1.0000 0.97194  0.09782  0.54181  Biso   1.000  C
  H441     1.0000 0.05015  0.05020  0.61130  Biso   1.000  H
  H442     1.0000 0.91554  0.14612  0.46079  Biso   1.000  H
  H443     1.0000 0.63494  0.90228  0.36317  Biso   1.000  H
  C438     1.0000 0.61694  0.82499  0.42108  Biso   1.000  C
  H444     1.0000 0.57507  0.74590  0.46460  Biso   1.000  H
  H445     1.0000 0.57501  0.74590  0.46460  Biso   1.000  H
  H446     1.0000 0.78187  0.82271  0.20308  Biso   1.000  H
  H447     1.0000 0.80777  0.87441  0.15259  Biso   1.000  H
  H448     1.0000 0.92794  0.09621  0.56497  Biso   1.000  H
  H449     1.0000 0.66513  0.82869  0.45046  Biso   1.000  H
  H450     1.0000 0.66514  0.82869  0.45051  Biso   1.000  H
  C439     1.0000 0.17575  0.16489  0.82249  Biso   1.000  C
  C440     1.0000 0.09478  0.15419  0.77567  Biso   1.000  C
  C441     1.0000 0.09473  0.15419  0.77572  Biso   1.000  C
  H451     1.0000 0.21806  0.17729  0.79687  Biso   1.000  H
  H452     1.0000 0.19216  0.12559  0.84736  Biso   1.000  H
  C442     1.0000 0.16017  0.21679  0.86747  Biso   1.000  C
  H453     1.0000 0.21801  0.17729  0.79687  Biso   1.000  H
  H454     1.0000 0.19211  0.12559  0.84741  Biso   1.000  H
  C443     1.0000 0.16011  0.21679  0.86747  Biso   1.000  C
  O73      1.0000 0.03513  0.12569  0.81407  Biso   1.000  O
  H455     1.0000 0.10316  0.12530  0.73927  Biso   1.000  H
  H456     1.0000 0.07484  0.19549  0.75646  Biso   1.000  H
  H457     1.0000 0.10311  0.12530  0.73932  Biso   1.000  H
  H458     1.0000 0.07485  0.19549  0.75651  Biso   1.000  H
  H459     1.0000 0.15876  0.25852  0.84486  Biso   1.000  H
  H460     1.0000 0.10866  0.20998  0.88316  Biso   1.000  H
  C444     1.0000 0.23316  0.21460  0.92919  Biso   1.000  C
  H461     1.0000 0.15871  0.25852  0.84491  Biso   1.000  H
  H462     1.0000 0.10861  0.20998  0.88321  Biso   1.000  H
  C445     1.0000 0.23310  0.21460  0.92919  Biso   1.000  C
  C446     1.0000 0.96367  0.10808  0.77597  Biso   1.000  C
  C447     1.0000 0.96361  0.10808  0.77597  Biso   1.000  C
  H463     1.0000 0.28492  0.21178  0.91329  Biso   1.000  H
  O74      1.0000 0.21722  0.15560  0.96619  Biso   1.000  O
  H464     1.0000 0.23265  0.25288  0.95716  Biso   1.000  H
  H465     1.0000 0.23260  0.25288  0.95721  Biso   1.000  H
  C448     1.0000 0.96157  0.05039  0.73977  Biso   1.000  C
  C449     1.0000 0.89225  0.14130  0.78058  Biso   1.000  C
  C450     1.0000 0.96151  0.05039  0.73977  Biso   1.000  C
  C451     1.0000 0.26692  0.14461  0.02610  Biso   1.000  C
  C452     1.0000 0.26686  0.14461  0.02610  Biso   1.000  C
  O75      1.0000 0.03405  0.01800  0.73440  Biso   1.000  O
  C453     1.0000 0.88818  0.02602  0.70828  Biso   1.000  C
  C454     1.0000 0.88812  0.02602  0.70828  Biso   1.000  C
  C455     1.0000 0.81886  0.11688  0.74909  Biso   1.000  C
  O76      1.0000 0.89876  0.20040  0.81437  Biso   1.000  O
  O77      1.0000 0.89870  0.20040  0.81437  Biso   1.000  O
  C456     1.0000 0.25558  0.17992  0.08275  Biso   1.000  C
  C457     1.0000 0.31527  0.08930  0.03227  Biso   1.000  C
  C458     1.0000 0.25559  0.17992  0.08280  Biso   1.000  C
  C459     1.0000 0.05097  0.96371  0.77517  Biso   1.000  C
  C460     1.0000 0.05092  0.96371  0.77522  Biso   1.000  C
  C461     1.0000 0.88727  0.96182  0.67008  Biso   1.000  C
  C462     1.0000 0.88721  0.96182  0.67008  Biso   1.000  C
  C463     1.0000 0.81677  0.05920  0.71300  Biso   1.000  C
  C464     1.0000 0.81671  0.05920  0.71300  Biso   1.000  C
  C465     1.0000 0.74026  0.15010  0.76278  Biso   1.000  C
  C466     1.0000 0.88655  0.19991  0.88156  Biso   1.000  C
  C467     1.0000 0.88656  0.19991  0.88161  Biso   1.000  C
  O78      1.0000 0.21248  0.23810  0.07318  Biso   1.000  O
  C468     1.0000 0.29278  0.15988  0.14568  Biso   1.000  C
  O79      1.0000 0.32473  0.05579  0.97376  Biso   1.000  O
  O80      1.0000 0.32474  0.05579  0.97381  Biso   1.000  O
  C469     1.0000 0.35249  0.06931  0.09529  Biso   1.000  C
  O81      1.0000 0.02986  0.90491  0.74408  Biso   1.000  O
  H466     1.0000 0.02254  0.96799  0.81357  Biso   1.000  H
  H467     1.0000 0.10844  0.96308  0.79186  Biso   1.000  H
  H468     1.0000 0.10845  0.96308  0.79191  Biso   1.000  H
  C470     1.0000 0.88305  0.90700  0.71876  Biso   1.000  C
  H469     1.0000 0.93917  0.95812  0.65328  Biso   1.000  H
  C471     1.0000 0.81926  0.96011  0.60776  Biso   1.000  C
  C472     1.0000 0.88306  0.90700  0.71881  Biso   1.000  C
  H470     1.0000 0.93911  0.95812  0.65328  Biso   1.000  H
  C473     1.0000 0.81927  0.96011  0.60781  Biso   1.000  C
  H471     1.0000 0.76766  0.04290  0.69189  Biso   1.000  H
  C474     1.0000 0.72047  0.12690  0.83006  Biso   1.000  C
  H472     1.0000 0.75334  0.19641  0.76870  Biso   1.000  H
  C475     1.0000 0.67065  0.14680  0.70427  Biso   1.000  C
  C476     1.0000 0.72042  0.12690  0.83011  Biso   1.000  C
  H473     1.0000 0.92101  0.23250  0.90607  Biso   1.000  H
  H474     1.0000 0.90222  0.15779  0.90096  Biso   1.000  H
  O82      1.0000 0.80722  0.21222  0.88878  Biso   1.000  O
  H475     1.0000 0.90222  0.15779  0.90101  Biso   1.000  H
  C477     1.0000 0.13009  0.23659  0.08235  Biso   1.000  C
  C478     1.0000 0.13010  0.23659  0.08240  Biso   1.000  C
  C479     1.0000 0.26936  0.19500  0.20709  Biso   1.000  C
  C480     1.0000 0.34116  0.10458  0.15199  Biso   1.000  C
  C481     1.0000 0.27854  0.00049  0.95857  Biso   1.000  C
  C482     1.0000 0.40111  0.00618  0.09890  Biso   1.000  C
  C483     1.0000 0.40105  0.00618  0.09890  Biso   1.000  C
  C484     1.0000 0.95485  0.88331  0.75406  Biso   1.000  C
  C485     1.0000 0.95486  0.88331  0.75411  Biso   1.000  C
  C486     1.0000 0.80949  0.88098  0.72979  Biso   1.000  C
  C487     1.0000 0.80943  0.88098  0.72979  Biso   1.000  C
  H476     1.0000 0.82345  0.99859  0.58068  Biso   1.000  H
  H477     1.0000 0.76688  0.96089  0.62290  Biso   1.000  H
  C488     1.0000 0.82560  0.89858  0.56429  Biso   1.000  C
  H478     1.0000 0.76682  0.96089  0.62290  Biso   1.000  H
  C489     1.0000 0.82554  0.89858  0.56429  Biso   1.000  C
  C490     1.0000 0.66877  0.07442  0.83327  Biso   1.000  C
  C491     1.0000 0.75873  0.15550  0.88888  Biso   1.000  C
  C492     1.0000 0.66871  0.07442  0.83327  Biso   1.000  C
  H479     1.0000 0.68974  0.15988  0.66316  Biso   1.000  H
  H480     1.0000 0.65107  0.10239  0.69876  Biso   1.000  H
  C493     1.0000 0.60145  0.19189  0.71796  Biso   1.000  C
  H481     1.0000 0.68975  0.15988  0.66321  Biso   1.000  H
  H482     1.0000 0.65102  0.10239  0.69881  Biso   1.000  H
  C494     1.0000 0.60146  0.19189  0.71801  Biso   1.000  C
  H483     1.0000 0.10068  0.26908  0.05367  Biso   1.000  H
  H484     1.0000 0.10759  0.19442  0.06857  Biso   1.000  H
  O83      1.0000 0.11880  0.24821  0.14838  Biso   1.000  O
  O84      1.0000 0.11874  0.24821  0.14838  Biso   1.000  O
  C495     1.0000 0.19237  0.16869  0.22369  Biso   1.000  C
  H485     1.0000 0.25855  0.24028  0.19346  Biso   1.000  H
  C496     1.0000 0.33618  0.19709  0.26906  Biso   1.000  C
  H486     1.0000 0.25856  0.24028  0.19351  Biso   1.000  H
  C497     1.0000 0.33612  0.19709  0.26906  Biso   1.000  C
  H487     1.0000 0.36596  0.09120  0.19406  Biso   1.000  H
  H488     1.0000 0.36597  0.09120  0.19411  Biso   1.000  H
  H489     1.0000 0.22905  0.00438  0.97817  Biso   1.000  H
  H490     1.0000 0.22899  0.00438  0.97817  Biso   1.000  H
  O85      1.0000 0.31831  0.94309  0.98198  Biso   1.000  O
  H491     1.0000 0.26353  0.99762  0.91038  Biso   1.000  H
  C498     1.0000 0.34450  0.94951  0.10476  Biso   1.000  C
  C499     1.0000 0.34444  0.94951  0.10476  Biso   1.000  C
  H492     1.0000 0.42097  0.00141  0.05578  Biso   1.000  H
  C500     1.0000 0.47590  0.00589  0.15400  Biso   1.000  C
  C501     1.0000 0.47584  0.00589  0.15400  Biso   1.000  C
  C502     1.0000 0.95294  0.83360  0.80058  Biso   1.000  C
  H493     1.0000 0.76149  0.89688  0.70618  Biso   1.000  H
  C503     1.0000 0.80756  0.83131  0.77627  Biso   1.000  C
  H494     1.0000 0.76143  0.89688  0.70618  Biso   1.000  H
  C504     1.0000 0.80750  0.83131  0.77627  Biso   1.000  C
  H495     1.0000 0.77665  0.89508  0.53200  Biso   1.000  H
  H496     1.0000 0.82829  0.86069  0.59307  Biso   1.000  H
  C505     1.0000 0.89626  0.89761  0.52759  Biso   1.000  C
  H497     1.0000 0.82824  0.86069  0.59312  Biso   1.000  H
  H498     1.0000 0.64314  0.05540  0.79397  Biso   1.000  H
  C506     1.0000 0.65543  0.05049  0.89519  Biso   1.000  C
  H499     1.0000 0.64315  0.05540  0.79402  Biso   1.000  H
  C507     1.0000 0.74543  0.13152  0.95069  Biso   1.000  C
  H500     1.0000 0.62037  0.23649  0.71906  Biso   1.000  H
  H501     1.0000 0.58745  0.18182  0.76178  Biso   1.000  H
  C508     1.0000 0.52713  0.18610  0.66657  Biso   1.000  C
  H502     1.0000 0.62032  0.23649  0.71911  Biso   1.000  H
  C509     1.0000 0.12061  0.19242  0.18829  Biso   1.000  C
  C510     1.0000 0.12055  0.19242  0.18829  Biso   1.000  C
  C511     1.0000 0.19044  0.11902  0.27017  Biso   1.000  C
  H503     1.0000 0.31346  0.21528  0.30656  Biso   1.000  H
  H504     1.0000 0.35319  0.15302  0.28089  Biso   1.000  H
  C512     1.0000 0.40315  0.23309  0.25959  Biso   1.000  C
  H505     1.0000 0.35313  0.15302  0.28089  Biso   1.000  H
  C513     1.0000 0.30620  0.92101  0.04605  Biso   1.000  C
  C514     1.0000 0.30614  0.92101  0.04610  Biso   1.000  C
  C515     1.0000 0.33116  0.92558  0.16668  Biso   1.000  C
  H506     1.0000 0.49636  0.96182  0.15966  Biso   1.000  H
  H507     1.0000 0.45930  0.01931  0.19596  Biso   1.000  H
  C516     1.0000 0.54259  0.04942  0.13926  Biso   1.000  C
  H508     1.0000 0.45924  0.01931  0.19596  Biso   1.000  H
  C517     1.0000 0.54254  0.04942  0.13931  Biso   1.000  C
  C518     1.0000 0.87932  0.80758  0.81166  Biso   1.000  C
  C519     1.0000 0.87933  0.80758  0.81171  Biso   1.000  C
  O86      1.0000 0.02187  0.81740  0.84460  Biso   1.000  O
  O87      1.0000 0.02181  0.81740  0.84460  Biso   1.000  O
  C520     1.0000 0.73057  0.80500  0.79286  Biso   1.000  C
  C521     1.0000 0.73052  0.80500  0.79291  Biso   1.000  C
  C522     1.0000 0.88885  0.92748  0.46507  Biso   1.000  C
  C523     1.0000 0.96956  0.86998  0.55527  Biso   1.000  C
  C524     1.0000 0.88886  0.92748  0.46512  Biso   1.000  C
  C525     1.0000 0.96957  0.86998  0.55532  Biso   1.000  C
  C526     1.0000 0.59882  0.99382  0.90106  Biso   1.000  C
  C527     1.0000 0.59883  0.99382  0.90111  Biso   1.000  C
  C528     1.0000 0.69373  0.07899  0.95390  Biso   1.000  C
  O88      1.0000 0.79019  0.15521  0.01036  Biso   1.000  O
  O89      1.0000 0.79020  0.15521  0.01041  Biso   1.000  O
  C529     1.0000 0.47314  0.13639  0.67499  Biso   1.000  C
  C530     1.0000 0.50904  0.23022  0.61418  Biso   1.000  C
  C531     1.0000 0.04699  0.16640  0.19937  Biso   1.000  C
  C532     1.0000 0.04693  0.16640  0.19937  Biso   1.000  C
  H509     1.0000 0.23844  0.10312  0.29378  Biso   1.000  H
  C533     1.0000 0.11688  0.09300  0.28120  Biso   1.000  C
  H510     1.0000 0.38554  0.27020  0.23136  Biso   1.000  H
  H511     1.0000 0.43765  0.20658  0.23577  Biso   1.000  H
  C534     1.0000 0.45405  0.25828  0.32587  Biso   1.000  C
  H512     1.0000 0.38555  0.27020  0.23141  Biso   1.000  H
  C535     1.0000 0.25450  0.86848  0.04926  Biso   1.000  C
  C536     1.0000 0.25445  0.86848  0.04931  Biso   1.000  C
  C537     1.0000 0.27946  0.87310  0.16989  Biso   1.000  C
  H513     1.0000 0.35679  0.94460  0.20599  Biso   1.000  H
  H514     1.0000 0.52150  0.09320  0.13269  Biso   1.000  H
  H515     1.0000 0.55927  0.03551  0.09739  Biso   1.000  H
  C538     1.0000 0.61767  0.05132  0.19326  Biso   1.000  C
  H516     1.0000 0.52144  0.09320  0.13269  Biso   1.000  H
  C539     1.0000 0.61768  0.05132  0.19331  Biso   1.000  C
  O90      1.0000 0.88113  0.75179  0.85157  Biso   1.000  O
  C540     1.0000 0.05922  0.75728  0.83608  Biso   1.000  C
  C541     1.0000 0.08522  0.79581  0.81121  Biso   1.000  C
  C542     1.0000 0.70715  0.84012  0.85428  Biso   1.000  C
  H517     1.0000 0.74138  0.75972  0.80650  Biso   1.000  H
  C543     1.0000 0.66375  0.80291  0.73089  Biso   1.000  C
  H518     1.0000 0.74132  0.75972  0.80650  Biso   1.000  H
  H519     1.0000 0.83979  0.94601  0.44657  Biso   1.000  H
  C544     1.0000 0.95468  0.92981  0.43047  Biso   1.000  C
  H520     1.0000 0.83974  0.94601  0.44662  Biso   1.000  H
  H521     1.0000 0.97447  0.84999  0.59708  Biso   1.000  H
  C545     1.0000 0.03537  0.87242  0.52057  Biso   1.000  C
  C546     1.0000 0.64744  0.93069  0.90467  Biso   1.000  C
  H522     1.0000 0.57896  0.99859  0.94418  Biso   1.000  H
  C547     1.0000 0.52403  0.99411  0.84596  Biso   1.000  C
  H523     1.0000 0.57890  0.99859  0.94418  Biso   1.000  H
  C548     1.0000 0.52403  0.99411  0.84601  Biso   1.000  C
  O91      1.0000 0.68162  0.05691  0.01798  Biso   1.000  O
  O92      1.0000 0.68156  0.05691  0.01798  Biso   1.000  O
  C549     1.0000 0.74420  0.18342  0.05658  Biso   1.000  C
  C550     1.0000 0.74414  0.18342  0.05658  Biso   1.000  C
  C551     1.0000 0.77022  0.21971  0.02580  Biso   1.000  C
  H524     1.0000 0.48525  0.10691  0.70999  Biso   1.000  H
  C552     1.0000 0.40107  0.13089  0.63117  Biso   1.000  C
  C553     1.0000 0.40101  0.13089  0.63117  Biso   1.000  C
  C554     1.0000 0.43698  0.22462  0.57041  Biso   1.000  C
  H525     1.0000 0.54518  0.26339  0.60856  Biso   1.000  H
  H526     1.0000 0.54513  0.26339  0.60861  Biso   1.000  H
  O93      1.0000 0.97806  0.18260  0.15535  Biso   1.000  O
  O94      1.0000 0.97807  0.18260  0.15540  Biso   1.000  O
  C555     1.0000 0.04508  0.11669  0.24590  Biso   1.000  C
  C556     1.0000 0.11266  0.03818  0.32988  Biso   1.000  C
  C557     1.0000 0.52337  0.22370  0.35099  Biso   1.000  C
  C558     1.0000 0.43278  0.31339  0.35916  Biso   1.000  C
  C559     1.0000 0.43273  0.31339  0.35921  Biso   1.000  C
  O95      1.0000 0.20974  0.84479  0.98960  Biso   1.000  O
  C560     1.0000 0.24120  0.84450  0.11108  Biso   1.000  C
  C561     1.0000 0.24114  0.84450  0.11108  Biso   1.000  C
  C562     1.0000 0.25967  0.84990  0.23718  Biso   1.000  C
  C563     1.0000 0.65929  0.99421  0.21196  Biso   1.000  C
  C564     1.0000 0.65924  0.99421  0.21201  Biso   1.000  C
  C565     1.0000 0.64460  0.10998  0.22279  Biso   1.000  C
  C566     1.0000 0.64454  0.10998  0.22279  Biso   1.000  C
  C567     1.0000 0.86984  0.76341  0.91760  Biso   1.000  C
  C568     1.0000 0.12894  0.75072  0.89188  Biso   1.000  C
  H527     1.0000 0.02115  0.72202  0.83789  Biso   1.000  H
  H528     1.0000 0.07843  0.75592  0.79296  Biso   1.000  H
  H529     1.0000 0.07844  0.75592  0.79301  Biso   1.000  H
  H530     1.0000 0.07162  0.75320  0.79201  Biso   1.000  H
  H531     1.0000 0.09084  0.82538  0.77471  Biso   1.000  H
  C569     1.0000 0.16455  0.79162  0.85719  Biso   1.000  C
  C570     1.0000 0.65877  0.89542  0.84796  Biso   1.000  C
  C571     1.0000 0.74435  0.82008  0.91720  Biso   1.000  C
  C572     1.0000 0.65872  0.89542  0.84801  Biso   1.000  C
  H532     1.0000 0.68647  0.78472  0.69339  Biso   1.000  H
  H533     1.0000 0.64674  0.84698  0.71906  Biso   1.000  H
  C573     1.0000 0.59678  0.76691  0.74037  Biso   1.000  C
  H534     1.0000 0.68641  0.78472  0.69339  Biso   1.000  H
  H535     1.0000 0.64675  0.84698  0.71911  Biso   1.000  H
  C574     1.0000 0.59672  0.76691  0.74037  Biso   1.000  C
  H536     1.0000 0.94978  0.94980  0.38866  Biso   1.000  H
  H537     1.0000 0.94979  0.94980  0.38871  Biso   1.000  H
  C575     1.0000 0.02800  0.90218  0.45820  Biso   1.000  C
  C576     1.0000 0.02794  0.90218  0.45820  Biso   1.000  C
  H538     1.0000 0.08439  0.85388  0.53917  Biso   1.000  H
  H539     1.0000 0.08433  0.85388  0.53917  Biso   1.000  H
  C577     1.0000 0.68466  0.91070  0.96769  Biso   1.000  C
  C578     1.0000 0.68460  0.91070  0.96769  Biso   1.000  C
  H540     1.0000 0.54063  0.98069  0.80399  Biso   1.000  H
  C579     1.0000 0.45734  0.95058  0.86070  Biso   1.000  C
  H541     1.0000 0.50358  0.03818  0.84029  Biso   1.000  H
  H542     1.0000 0.50352  0.03818  0.84029  Biso   1.000  H
  C580     1.0000 0.72139  0.99951  0.04139  Biso   1.000  C
  C581     1.0000 0.80258  0.20478  0.11620  Biso   1.000  C
  H543     1.0000 0.70650  0.15190  0.06987  Biso   1.000  H
  H544     1.0000 0.71378  0.22039  0.03628  Biso   1.000  H
  H545     1.0000 0.70644  0.15190  0.06987  Biso   1.000  H
  H546     1.0000 0.71839  0.22058  0.04199  Biso   1.000  H
  H547     1.0000 0.76634  0.24670  0.98599  Biso   1.000  H
  C582     1.0000 0.83549  0.24461  0.07879  Biso   1.000  C
  H548     1.0000 0.36499  0.09772  0.63679  Biso   1.000  H
  C583     1.0000 0.38300  0.17501  0.57888  Biso   1.000  C
  H549     1.0000 0.36493  0.09772  0.63679  Biso   1.000  H
  C584     1.0000 0.38294  0.17501  0.57888  Biso   1.000  C
  H550     1.0000 0.42486  0.25410  0.53536  Biso   1.000  H
  H551     1.0000 0.42487  0.25410  0.53541  Biso   1.000  H
  C585     1.0000 0.94071  0.24272  0.16388  Biso   1.000  C
  C586     1.0000 0.94065  0.24272  0.16388  Biso   1.000  C
  C587     1.0000 0.91466  0.20419  0.18879  Biso   1.000  C
  O96      1.0000 0.97007  0.09509  0.25588  Biso   1.000  O
  C588     1.0000 0.11175  0.97398  0.29167  Biso   1.000  C
  H552     1.0000 0.06076  0.04188  0.34667  Biso   1.000  H
  C589     1.0000 0.18067  0.03989  0.39220  Biso   1.000  C
  C590     1.0000 0.18061  0.03989  0.39220  Biso   1.000  C
  H553     1.0000 0.53755  0.18678  0.32858  Biso   1.000  H
  C591     1.0000 0.57149  0.24422  0.40940  Biso   1.000  C
  C592     1.0000 0.57143  0.24422  0.40940  Biso   1.000  C
  C593     1.0000 0.48086  0.33382  0.41767  Biso   1.000  C
  H554     1.0000 0.38648  0.33649  0.34236  Biso   1.000  H
  H555     1.0000 0.38642  0.33649  0.34236  Biso   1.000  H
  C594     1.0000 0.25573  0.81658  0.94337  Biso   1.000  C
  C595     1.0000 0.22972  0.78029  0.97421  Biso   1.000  C
  O97      1.0000 0.19271  0.78778  0.11118  Biso   1.000  O
  O98      1.0000 0.19266  0.78778  0.11118  Biso   1.000  O
  C596     1.0000 0.18107  0.88312  0.25086  Biso   1.000  C
  H556     1.0000 0.24659  0.80359  0.23126  Biso   1.000  H
  C597     1.0000 0.32928  0.85320  0.29569  Biso   1.000  C
  H557     1.0000 0.24654  0.80359  0.23131  Biso   1.000  H
  H558     1.0000 0.64135  0.95491  0.19225  Biso   1.000  H
  C598     1.0000 0.72785  0.99562  0.26029  Biso   1.000  C
  H559     1.0000 0.64136  0.95491  0.19230  Biso   1.000  H
  C599     1.0000 0.71309  0.11148  0.27107  Biso   1.000  C
  H560     1.0000 0.61670  0.14821  0.21025  Biso   1.000  H
  C600     1.0000 0.71303  0.11148  0.27107  Biso   1.000  C
  H561     1.0000 0.61665  0.14821  0.21030  Biso   1.000  H
  O99      1.0000 0.78745  0.76190  0.92678  Biso   1.000  O
  H562     1.0000 0.89925  0.73092  0.94628  Biso   1.000  H
  H563     1.0000 0.89234  0.80558  0.93139  Biso   1.000  H
  O100     1.0000 0.78739  0.76190  0.92678  Biso   1.000  O
  H564     1.0000 0.89919  0.73092  0.94628  Biso   1.000  H
  C601     1.0000 0.19735  0.79522  0.88376  Biso   1.000  C
  H565     1.0000 0.14825  0.70611  0.89349  Biso   1.000  H
  H566     1.0000 0.11025  0.76001  0.93420  Biso   1.000  H
  C602     1.0000 0.19736  0.79522  0.88381  Biso   1.000  C
  H567     1.0000 0.11224  0.76049  0.93630  Biso   1.000  H
  H568     1.0000 0.17283  0.70952  0.91389  Biso   1.000  H
  H569     1.0000 0.22863  0.77450  0.85298  Biso   1.000  H
  H570     1.0000 0.17405  0.83428  0.86180  Biso   1.000  H
  H571     1.0000 0.18310  0.83560  0.86797  Biso   1.000  H
  H572     1.0000 0.20361  0.77129  0.83277  Biso   1.000  H
  C603     1.0000 0.16445  0.75539  0.92121  Biso   1.000  C
  H573     1.0000 0.63397  0.90880  0.80590  Biso   1.000  H
  H574     1.0000 0.63391  0.90880  0.80590  Biso   1.000  H
  C604     1.0000 0.73301  0.85539  0.97386  Biso   1.000  C
  C605     1.0000 0.73302  0.85539  0.97391  Biso   1.000  C
  H575     1.0000 0.61439  0.72980  0.76860  Biso   1.000  H
  H576     1.0000 0.56228  0.79342  0.76419  Biso   1.000  H
  C606     1.0000 0.54588  0.74172  0.67409  Biso   1.000  C
  H577     1.0000 0.61433  0.72980  0.76860  Biso   1.000  H
  H578     1.0000 0.56222  0.79342  0.76419  Biso   1.000  H
  C607     1.0000 0.54582  0.74172  0.67409  Biso   1.000  C
  H579     1.0000 0.07199  0.90379  0.43499  Biso   1.000  H
  H580     1.0000 0.07193  0.90379  0.43499  Biso   1.000  H
  O101     1.0000 0.67520  0.94421  0.02620  Biso   1.000  O
  H581     1.0000 0.47843  0.90680  0.86727  Biso   1.000  H
  H582     1.0000 0.44066  0.96449  0.90256  Biso   1.000  H
  C608     1.0000 0.38226  0.94868  0.80670  Biso   1.000  C
  H583     1.0000 0.44061  0.96449  0.90261  Biso   1.000  H
  H584     1.0000 0.77088  0.99562  0.02179  Biso   1.000  H
  H585     1.0000 0.73640  0.00238  0.08957  Biso   1.000  H
  H586     1.0000 0.73634  0.00238  0.08957  Biso   1.000  H
  C609     1.0000 0.87099  0.24928  0.10807  Biso   1.000  C
  H587     1.0000 0.77130  0.22550  0.14698  Biso   1.000  H
  H588     1.0000 0.82588  0.16572  0.13816  Biso   1.000  H
  H589     1.0000 0.77124  0.22550  0.14698  Biso   1.000  H
  H590     1.0000 0.82589  0.16572  0.13821  Biso   1.000  H
  H591     1.0000 0.81677  0.16440  0.13199  Biso   1.000  H
  H592     1.0000 0.79626  0.22871  0.16718  Biso   1.000  H
  H593     1.0000 0.85168  0.29389  0.10647  Biso   1.000  H
  H594     1.0000 0.88968  0.23999  0.06576  Biso   1.000  H
  H595     1.0000 0.88969  0.23999  0.06581  Biso   1.000  H
  C610     1.0000 0.83538  0.20838  0.14277  Biso   1.000  C
  H596     1.0000 0.88770  0.23951  0.06370  Biso   1.000  H
  H597     1.0000 0.82710  0.29048  0.08606  Biso   1.000  H
  H598     1.0000 0.33480  0.17131  0.54950  Biso   1.000  H
  H599     1.0000 0.33474  0.17131  0.54950  Biso   1.000  H
  H600     1.0000 0.97878  0.27798  0.16207  Biso   1.000  H
  H601     1.0000 0.92150  0.24408  0.20699  Biso   1.000  H
  H602     1.0000 0.92144  0.24408  0.20699  Biso   1.000  H
  H603     1.0000 0.92826  0.24680  0.20800  Biso   1.000  H
  H604     1.0000 0.90910  0.17462  0.22529  Biso   1.000  H
  C611     1.0000 0.94896  0.03629  0.22479  Biso   1.000  C
  C612     1.0000 0.18316  0.94080  0.28696  Biso   1.000  C
  C613     1.0000 0.03836  0.94961  0.26019  Biso   1.000  C
  C614     1.0000 0.18317  0.94080  0.28701  Biso   1.000  C
  H605     1.0000 0.17648  0.00141  0.41927  Biso   1.000  H
  H606     1.0000 0.23305  0.03911  0.37706  Biso   1.000  H
  C615     1.0000 0.17433  0.10142  0.43567  Biso   1.000  C
  H607     1.0000 0.17642  0.00141  0.41927  Biso   1.000  H
  H608     1.0000 0.23306  0.03911  0.37711  Biso   1.000  H
  H609     1.0000 0.61785  0.22102  0.42619  Biso   1.000  H
  C616     1.0000 0.55018  0.29919  0.44279  Biso   1.000  C
  C617     1.0000 0.55012  0.29919  0.44279  Biso   1.000  C
  H610     1.0000 0.46666  0.37069  0.43998  Biso   1.000  H
  H611     1.0000 0.29343  0.84810  0.93009  Biso   1.000  H
  H612     1.0000 0.28615  0.77961  0.96368  Biso   1.000  H
  H613     1.0000 0.28609  0.77961  0.96368  Biso   1.000  H
  H614     1.0000 0.28155  0.77942  0.95801  Biso   1.000  H
  H615     1.0000 0.23360  0.75330  0.01397  Biso   1.000  H
  C618     1.0000 0.11338  0.80009  0.11840  Biso   1.000  C
  C619     1.0000 0.10768  0.85870  0.21938  Biso   1.000  C
  H616     1.0000 0.31019  0.84012  0.33680  Biso   1.000  H
  H617     1.0000 0.34886  0.89761  0.30120  Biso   1.000  H
  C620     1.0000 0.39848  0.80811  0.28200  Biso   1.000  C
  H618     1.0000 0.31013  0.84012  0.33680  Biso   1.000  H
  H619     1.0000 0.75570  0.95739  0.27287  Biso   1.000  H
  H620     1.0000 0.75564  0.95739  0.27287  Biso   1.000  H
  C621     1.0000 0.75467  0.05428  0.28987  Biso   1.000  C
  H621     1.0000 0.73105  0.15069  0.29087  Biso   1.000  H
  O102     1.0000 0.78271  0.84440  0.03377  Biso   1.000  O
  O103     1.0000 0.78265  0.84440  0.03377  Biso   1.000  O
  C622     1.0000 0.47656  0.77630  0.64897  Biso   1.000  C
  C623     1.0000 0.56715  0.68661  0.64080  Biso   1.000  C
  C624     1.0000 0.35533  0.89002  0.77717  Biso   1.000  C
  C625     1.0000 0.34064  0.00579  0.78800  Biso   1.000  C
  O104     1.0000 0.96588  0.98200  0.26555  Biso   1.000  O
  O105     1.0000 0.96583  0.98200  0.26560  Biso   1.000  O
  H622     1.0000 0.97739  0.03201  0.18639  Biso   1.000  H
  H623     1.0000 0.89149  0.03692  0.20810  Biso   1.000  H
  H624     1.0000 0.89143  0.03692  0.20810  Biso   1.000  H
  H625     1.0000 0.23227  0.95710  0.30807  Biso   1.000  H
  C626     1.0000 0.03626  0.89192  0.22399  Biso   1.000  C
  H626     1.0000 0.22328  0.10492  0.46796  Biso   1.000  H
  H627     1.0000 0.17164  0.13931  0.40689  Biso   1.000  H
  C627     1.0000 0.10367  0.10239  0.47237  Biso   1.000  C
  H628     1.0000 0.22323  0.10492  0.46801  Biso   1.000  H
  C628     1.0000 0.10361  0.10239  0.47237  Biso   1.000  C
  H629     1.0000 0.58235  0.31290  0.48189  Biso   1.000  H
  O106     1.0000 0.10117  0.79960  0.18558  Biso   1.000  O
  H630     1.0000 0.07892  0.76750  0.09388  Biso   1.000  H
  H631     1.0000 0.09771  0.84221  0.09900  Biso   1.000  H
  H632     1.0000 0.07886  0.76750  0.09388  Biso   1.000  H
  H633     1.0000 0.09765  0.84221  0.09900  Biso   1.000  H
  H634     1.0000 0.37956  0.76351  0.28089  Biso   1.000  H
  H635     1.0000 0.41248  0.81818  0.23818  Biso   1.000  H
  C629     1.0000 0.47280  0.81390  0.33339  Biso   1.000  C
  C630     1.0000 0.47274  0.81390  0.33339  Biso   1.000  C
  H636     1.0000 0.80057  0.05530  0.32216  Biso   1.000  H
  H637     1.0000 0.80052  0.05530  0.32221  Biso   1.000  H
  C631     1.0000 0.76677  0.78540  0.07077  Biso   1.000  C
  H638     1.0000 0.46239  0.81322  0.67138  Biso   1.000  H
  C632     1.0000 0.42844  0.75578  0.59056  Biso   1.000  C
  H639     1.0000 0.46233  0.81322  0.67138  Biso   1.000  H
  C633     1.0000 0.42845  0.75578  0.59061  Biso   1.000  C
  C634     1.0000 0.51907  0.66618  0.58229  Biso   1.000  C
  H640     1.0000 0.61345  0.66351  0.65759  Biso   1.000  H
  C635     1.0000 0.28684  0.88852  0.72889  Biso   1.000  C
  H641     1.0000 0.38323  0.85179  0.78970  Biso   1.000  H
  H642     1.0000 0.35858  0.04509  0.80770  Biso   1.000  H
  C636     1.0000 0.27208  0.00438  0.73967  Biso   1.000  C
  H643     1.0000 0.35852  0.04509  0.80770  Biso   1.000  H
  C637     1.0000 0.27202  0.00438  0.73967  Biso   1.000  C
  O107     1.0000 0.96480  0.87431  0.18589  Biso   1.000  O
  O108     1.0000 0.96474  0.87431  0.18589  Biso   1.000  O
  C638     1.0000 0.11108  0.07252  0.53489  Biso   1.000  C
  C639     1.0000 0.03037  0.13002  0.44469  Biso   1.000  C
  C640     1.0000 0.11102  0.07252  0.53489  Biso   1.000  C
  C641     1.0000 0.52679  0.86361  0.32497  Biso   1.000  C
  C642     1.0000 0.49089  0.76978  0.38578  Biso   1.000  C
  C643     1.0000 0.52673  0.86361  0.32497  Biso   1.000  C
  C644     1.0000 0.49083  0.76978  0.38578  Biso   1.000  C
  C645     1.0000 0.83976  0.78321  0.13249  Biso   1.000  C
  H644     1.0000 0.76728  0.74712  0.04280  Biso   1.000  H
  H645     1.0000 0.71501  0.78822  0.08666  Biso   1.000  H
  H646     1.0000 0.71495  0.78822  0.08666  Biso   1.000  H
  H647     1.0000 0.38208  0.77898  0.57377  Biso   1.000  H
  C646     1.0000 0.44975  0.70081  0.55717  Biso   1.000  C
  H648     1.0000 0.38203  0.77898  0.57382  Biso   1.000  H
  H649     1.0000 0.53327  0.62931  0.55998  Biso   1.000  H
  C647     1.0000 0.24526  0.94572  0.71009  Biso   1.000  C
  H650     1.0000 0.26888  0.84931  0.70908  Biso   1.000  H
  H651     1.0000 0.26882  0.84931  0.70908  Biso   1.000  H
  H652     1.0000 0.24423  0.04261  0.72708  Biso   1.000  H
  C648     1.0000 0.90515  0.84581  0.22429  Biso   1.000  C
  H653     1.0000 0.16014  0.05399  0.55339  Biso   1.000  H
  C649     1.0000 0.04525  0.07019  0.56948  Biso   1.000  C
  C650     1.0000 0.96456  0.12758  0.47939  Biso   1.000  C
  H654     1.0000 0.02546  0.15001  0.40288  Biso   1.000  H
  H655     1.0000 0.51468  0.89309  0.28997  Biso   1.000  H
  C651     1.0000 0.59886  0.86911  0.36878  Biso   1.000  C
  H656     1.0000 0.51462  0.89309  0.28997  Biso   1.000  H
  C652     1.0000 0.56295  0.77538  0.42955  Biso   1.000  C
  H657     1.0000 0.45475  0.73661  0.39140  Biso   1.000  H
  C653     1.0000 0.56296  0.77538  0.42960  Biso   1.000  C
  C654     1.0000 0.82418  0.83511  0.17746  Biso   1.000  C
  H658     1.0000 0.84117  0.74148  0.15510  Biso   1.000  H
  H659     1.0000 0.89127  0.79002  0.11680  Biso   1.000  H
  H660     1.0000 0.41758  0.68710  0.51806  Biso   1.000  H
  H661     1.0000 0.41753  0.68710  0.51811  Biso   1.000  H
  H662     1.0000 0.19936  0.94470  0.67780  Biso   1.000  H
  H663     1.0000 0.89677  0.87470  0.26069  Biso   1.000  H
  H664     1.0000 0.92509  0.80451  0.24349  Biso   1.000  H
  H665     1.0000 0.92503  0.80451  0.24349  Biso   1.000  H
  C655     1.0000 0.97193  0.09782  0.54176  Biso   1.000  C
  C656     1.0000 0.97194  0.09782  0.54181  Biso   1.000  C
  H666     1.0000 0.05015  0.05020  0.61130  Biso   1.000  H
  H667     1.0000 0.91554  0.14612  0.46079  Biso   1.000  H
  H668     1.0000 0.63494  0.90228  0.36317  Biso   1.000  H
  C657     1.0000 0.61694  0.82499  0.42108  Biso   1.000  C
  H669     1.0000 0.57507  0.74590  0.46460  Biso   1.000  H
  H670     1.0000 0.57501  0.74590  0.46460  Biso   1.000  H
  H671     1.0000 0.78187  0.82271  0.20308  Biso   1.000  H
  H672     1.0000 0.80777  0.87441  0.15259  Biso   1.000  H
  H673     1.0000 0.92794  0.09621  0.56497  Biso   1.000  H
  H674     1.0000 0.66513  0.82869  0.45046  Biso   1.000  H
  H675     1.0000 0.66514  0.82869  0.45051  Biso   1.000  H
  C658     1.0000 0.17575  0.16489  0.82249  Biso   1.000  C
  C659     1.0000 0.09478  0.15419  0.77567  Biso   1.000  C
  C660     1.0000 0.09473  0.15419  0.77572  Biso   1.000  C
  H676     1.0000 0.21806  0.17729  0.79687  Biso   1.000  H
  H677     1.0000 0.19216  0.12559  0.84736  Biso   1.000  H
  C661     1.0000 0.16017  0.21679  0.86747  Biso   1.000  C
  H678     1.0000 0.21801  0.17729  0.79687  Biso   1.000  H
  H679     1.0000 0.19211  0.12559  0.84741  Biso   1.000  H
  C662     1.0000 0.16011  0.21679  0.86747  Biso   1.000  C
  O109     1.0000 0.03513  0.12569  0.81407  Biso   1.000  O
  H680     1.0000 0.10316  0.12530  0.73927  Biso   1.000  H
  H681     1.0000 0.07484  0.19549  0.75646  Biso   1.000  H
  H682     1.0000 0.10311  0.12530  0.73932  Biso   1.000  H
  H683     1.0000 0.07485  0.19549  0.75651  Biso   1.000  H
  H684     1.0000 0.15876  0.25852  0.84486  Biso   1.000  H
  H685     1.0000 0.10866  0.20998  0.88316  Biso   1.000  H
  C663     1.0000 0.23316  0.21460  0.92919  Biso   1.000  C
  H686     1.0000 0.15871  0.25852  0.84491  Biso   1.000  H
  H687     1.0000 0.10861  0.20998  0.88321  Biso   1.000  H
  C664     1.0000 0.23310  0.21460  0.92919  Biso   1.000  C
  C665     1.0000 0.96367  0.10808  0.77597  Biso   1.000  C
  C666     1.0000 0.96361  0.10808  0.77597  Biso   1.000  C
  H688     1.0000 0.28492  0.21178  0.91329  Biso   1.000  H
  O110     1.0000 0.21722  0.15560  0.96619  Biso   1.000  O
  H689     1.0000 0.23265  0.25288  0.95716  Biso   1.000  H
  H690     1.0000 0.23260  0.25288  0.95721  Biso   1.000  H
  C667     1.0000 0.96157  0.05039  0.73977  Biso   1.000  C
  C668     1.0000 0.89225  0.14130  0.78058  Biso   1.000  C
  C669     1.0000 0.96151  0.05039  0.73977  Biso   1.000  C
  C670     1.0000 0.26692  0.14461  0.02610  Biso   1.000  C
  C671     1.0000 0.26686  0.14461  0.02610  Biso   1.000  C
  O111     1.0000 0.03405  0.01800  0.73440  Biso   1.000  O
  C672     1.0000 0.88818  0.02602  0.70828  Biso   1.000  C
  C673     1.0000 0.88812  0.02602  0.70828  Biso   1.000  C
  C674     1.0000 0.81886  0.11688  0.74909  Biso   1.000  C
  O112     1.0000 0.89876  0.20040  0.81437  Biso   1.000  O
  O113     1.0000 0.89870  0.20040  0.81437  Biso   1.000  O
  C675     1.0000 0.25558  0.17992  0.08275  Biso   1.000  C
  C676     1.0000 0.31527  0.08930  0.03227  Biso   1.000  C
  C677     1.0000 0.25559  0.17992  0.08280  Biso   1.000  C
  C678     1.0000 0.05097  0.96371  0.77517  Biso   1.000  C
  C679     1.0000 0.05092  0.96371  0.77522  Biso   1.000  C
  C680     1.0000 0.88727  0.96182  0.67008  Biso   1.000  C
  C681     1.0000 0.88721  0.96182  0.67008  Biso   1.000  C
  C682     1.0000 0.81677  0.05920  0.71300  Biso   1.000  C
  C683     1.0000 0.81671  0.05920  0.71300  Biso   1.000  C
  C684     1.0000 0.74026  0.15010  0.76278  Biso   1.000  C
  C685     1.0000 0.88655  0.19991  0.88156  Biso   1.000  C
  C686     1.0000 0.88656  0.19991  0.88161  Biso   1.000  C
  O114     1.0000 0.21248  0.23810  0.07318  Biso   1.000  O
  C687     1.0000 0.29278  0.15988  0.14568  Biso   1.000  C
  O115     1.0000 0.32473  0.05579  0.97376  Biso   1.000  O
  O116     1.0000 0.32474  0.05579  0.97381  Biso   1.000  O
  C688     1.0000 0.35249  0.06931  0.09529  Biso   1.000  C
  O117     1.0000 0.02986  0.90491  0.74408  Biso   1.000  O
  H691     1.0000 0.02254  0.96799  0.81357  Biso   1.000  H
  H692     1.0000 0.10844  0.96308  0.79186  Biso   1.000  H
  H693     1.0000 0.10845  0.96308  0.79191  Biso   1.000  H
  C689     1.0000 0.88305  0.90700  0.71876  Biso   1.000  C
  H694     1.0000 0.93917  0.95812  0.65328  Biso   1.000  H
  C690     1.0000 0.81926  0.96011  0.60776  Biso   1.000  C
  C691     1.0000 0.88306  0.90700  0.71881  Biso   1.000  C
  H695     1.0000 0.93911  0.95812  0.65328  Biso   1.000  H
  C692     1.0000 0.81927  0.96011  0.60781  Biso   1.000  C
  H696     1.0000 0.76766  0.04290  0.69189  Biso   1.000  H
  C693     1.0000 0.72047  0.12690  0.83006  Biso   1.000  C
  H697     1.0000 0.75334  0.19641  0.76870  Biso   1.000  H
  C694     1.0000 0.67065  0.14680  0.70427  Biso   1.000  C
  C695     1.0000 0.72042  0.12690  0.83011  Biso   1.000  C
  H698     1.0000 0.92101  0.23250  0.90607  Biso   1.000  H
  H699     1.0000 0.90222  0.15779  0.90096  Biso   1.000  H
  O118     1.0000 0.80722  0.21222  0.88878  Biso   1.000  O
  H700     1.0000 0.90222  0.15779  0.90101  Biso   1.000  H
  C696     1.0000 0.13009  0.23659  0.08235  Biso   1.000  C
  C697     1.0000 0.13010  0.23659  0.08240  Biso   1.000  C
  C698     1.0000 0.26936  0.19500  0.20709  Biso   1.000  C
  C699     1.0000 0.34116  0.10458  0.15199  Biso   1.000  C
  C700     1.0000 0.27854  0.00049  0.95857  Biso   1.000  C
  C701     1.0000 0.40111  0.00618  0.09890  Biso   1.000  C
  C702     1.0000 0.40105  0.00618  0.09890  Biso   1.000  C
  C703     1.0000 0.95485  0.88331  0.75406  Biso   1.000  C
  C704     1.0000 0.95486  0.88331  0.75411  Biso   1.000  C
  C705     1.0000 0.80949  0.88098  0.72979  Biso   1.000  C
  C706     1.0000 0.80943  0.88098  0.72979  Biso   1.000  C
  H701     1.0000 0.82345  0.99859  0.58068  Biso   1.000  H
  H702     1.0000 0.76688  0.96089  0.62290  Biso   1.000  H
  C707     1.0000 0.82560  0.89858  0.56429  Biso   1.000  C
  H703     1.0000 0.76682  0.96089  0.62290  Biso   1.000  H
  C708     1.0000 0.82554  0.89858  0.56429  Biso   1.000  C
  C709     1.0000 0.66877  0.07442  0.83327  Biso   1.000  C
  C710     1.0000 0.75873  0.15550  0.88888  Biso   1.000  C
  C711     1.0000 0.66871  0.07442  0.83327  Biso   1.000  C
  H704     1.0000 0.68974  0.15988  0.66316  Biso   1.000  H
  H705     1.0000 0.65107  0.10239  0.69876  Biso   1.000  H
  C712     1.0000 0.60145  0.19189  0.71796  Biso   1.000  C
  H706     1.0000 0.68975  0.15988  0.66321  Biso   1.000  H
  H707     1.0000 0.65102  0.10239  0.69881  Biso   1.000  H
  C713     1.0000 0.60146  0.19189  0.71801  Biso   1.000  C
  H708     1.0000 0.10068  0.26908  0.05367  Biso   1.000  H
  H709     1.0000 0.10759  0.19442  0.06857  Biso   1.000  H
  O119     1.0000 0.11880  0.24821  0.14838  Biso   1.000  O
  O120     1.0000 0.11874  0.24821  0.14838  Biso   1.000  O
  C714     1.0000 0.19237  0.16869  0.22369  Biso   1.000  C
  H710     1.0000 0.25855  0.24028  0.19346  Biso   1.000  H
  C715     1.0000 0.33618  0.19709  0.26906  Biso   1.000  C
  H711     1.0000 0.25856  0.24028  0.19351  Biso   1.000  H
  C716     1.0000 0.33612  0.19709  0.26906  Biso   1.000  C
  H712     1.0000 0.36596  0.09120  0.19406  Biso   1.000  H
  H713     1.0000 0.36597  0.09120  0.19411  Biso   1.000  H
  H714     1.0000 0.22905  0.00438  0.97817  Biso   1.000  H
  H715     1.0000 0.22899  0.00438  0.97817  Biso   1.000  H
  O121     1.0000 0.31831  0.94309  0.98198  Biso   1.000  O
  H716     1.0000 0.26353  0.99762  0.91038  Biso   1.000  H
  C717     1.0000 0.34450  0.94951  0.10476  Biso   1.000  C
  C718     1.0000 0.34444  0.94951  0.10476  Biso   1.000  C
  H717     1.0000 0.42097  0.00141  0.05578  Biso   1.000  H
  C719     1.0000 0.47590  0.00589  0.15400  Biso   1.000  C
  C720     1.0000 0.47584  0.00589  0.15400  Biso   1.000  C
  C721     1.0000 0.95294  0.83360  0.80058  Biso   1.000  C
  H718     1.0000 0.76149  0.89688  0.70618  Biso   1.000  H
  C722     1.0000 0.80756  0.83131  0.77627  Biso   1.000  C
  H719     1.0000 0.76143  0.89688  0.70618  Biso   1.000  H
  C723     1.0000 0.80750  0.83131  0.77627  Biso   1.000  C
  H720     1.0000 0.77665  0.89508  0.53200  Biso   1.000  H
  H721     1.0000 0.82829  0.86069  0.59307  Biso   1.000  H
  C724     1.0000 0.89626  0.89761  0.52759  Biso   1.000  C
  H722     1.0000 0.82824  0.86069  0.59312  Biso   1.000  H
  H723     1.0000 0.64314  0.05540  0.79397  Biso   1.000  H
  C725     1.0000 0.65543  0.05049  0.89519  Biso   1.000  C
  H724     1.0000 0.64315  0.05540  0.79402  Biso   1.000  H
  C726     1.0000 0.74543  0.13152  0.95069  Biso   1.000  C
  H725     1.0000 0.62037  0.23649  0.71906  Biso   1.000  H
  H726     1.0000 0.58745  0.18182  0.76178  Biso   1.000  H
  C727     1.0000 0.52713  0.18610  0.66657  Biso   1.000  C
  H727     1.0000 0.62032  0.23649  0.71911  Biso   1.000  H
  C728     1.0000 0.12061  0.19242  0.18829  Biso   1.000  C
  C729     1.0000 0.12055  0.19242  0.18829  Biso   1.000  C
  C730     1.0000 0.19044  0.11902  0.27017  Biso   1.000  C
  H728     1.0000 0.31346  0.21528  0.30656  Biso   1.000  H
  H729     1.0000 0.35319  0.15302  0.28089  Biso   1.000  H
  C731     1.0000 0.40315  0.23309  0.25959  Biso   1.000  C
  H730     1.0000 0.35313  0.15302  0.28089  Biso   1.000  H
  C732     1.0000 0.30620  0.92101  0.04605  Biso   1.000  C
  C733     1.0000 0.30614  0.92101  0.04610  Biso   1.000  C
  C734     1.0000 0.33116  0.92558  0.16668  Biso   1.000  C
  H731     1.0000 0.49636  0.96182  0.15966  Biso   1.000  H
  H732     1.0000 0.45930  0.01931  0.19596  Biso   1.000  H
  C735     1.0000 0.54259  0.04942  0.13926  Biso   1.000  C
  H733     1.0000 0.45924  0.01931  0.19596  Biso   1.000  H
  C736     1.0000 0.54254  0.04942  0.13931  Biso   1.000  C
  C737     1.0000 0.87932  0.80758  0.81166  Biso   1.000  C
  C738     1.0000 0.87933  0.80758  0.81171  Biso   1.000  C
  O122     1.0000 0.02187  0.81740  0.84460  Biso   1.000  O
  O123     1.0000 0.02181  0.81740  0.84460  Biso   1.000  O
  C739     1.0000 0.73057  0.80500  0.79286  Biso   1.000  C
  C740     1.0000 0.73052  0.80500  0.79291  Biso   1.000  C
  C741     1.0000 0.88885  0.92748  0.46507  Biso   1.000  C
  C742     1.0000 0.96956  0.86998  0.55527  Biso   1.000  C
  C743     1.0000 0.88886  0.92748  0.46512  Biso   1.000  C
  C744     1.0000 0.96957  0.86998  0.55532  Biso   1.000  C
  C745     1.0000 0.59882  0.99382  0.90106  Biso   1.000  C
  C746     1.0000 0.59883  0.99382  0.90111  Biso   1.000  C
  C747     1.0000 0.69373  0.07899  0.95390  Biso   1.000  C
  O124     1.0000 0.79019  0.15521  0.01036  Biso   1.000  O
  O125     1.0000 0.79020  0.15521  0.01041  Biso   1.000  O
  C748     1.0000 0.47314  0.13639  0.67499  Biso   1.000  C
  C749     1.0000 0.50904  0.23022  0.61418  Biso   1.000  C
  C750     1.0000 0.04699  0.16640  0.19937  Biso   1.000  C
  C751     1.0000 0.04693  0.16640  0.19937  Biso   1.000  C
  H734     1.0000 0.23844  0.10312  0.29378  Biso   1.000  H
  C752     1.0000 0.11688  0.09300  0.28120  Biso   1.000  C
  H735     1.0000 0.38554  0.27020  0.23136  Biso   1.000  H
  H736     1.0000 0.43765  0.20658  0.23577  Biso   1.000  H
  C753     1.0000 0.45405  0.25828  0.32587  Biso   1.000  C
  H737     1.0000 0.38555  0.27020  0.23141  Biso   1.000  H
  C754     1.0000 0.25450  0.86848  0.04926  Biso   1.000  C
  C755     1.0000 0.25445  0.86848  0.04931  Biso   1.000  C
  C756     1.0000 0.27946  0.87310  0.16989  Biso   1.000  C
  H738     1.0000 0.35679  0.94460  0.20599  Biso   1.000  H
  H739     1.0000 0.52150  0.09320  0.13269  Biso   1.000  H
  H740     1.0000 0.55927  0.03551  0.09739  Biso   1.000  H
  C757     1.0000 0.61767  0.05132  0.19326  Biso   1.000  C
  H741     1.0000 0.52144  0.09320  0.13269  Biso   1.000  H
  C758     1.0000 0.61768  0.05132  0.19331  Biso   1.000  C
  O126     1.0000 0.88113  0.75179  0.85157  Biso   1.000  O
  C759     1.0000 0.05922  0.75728  0.83608  Biso   1.000  C
  C760     1.0000 0.08522  0.79581  0.81121  Biso   1.000  C
  C761     1.0000 0.70715  0.84012  0.85428  Biso   1.000  C
  H742     1.0000 0.74138  0.75972  0.80650  Biso   1.000  H
  C762     1.0000 0.66375  0.80291  0.73089  Biso   1.000  C
  H743     1.0000 0.74132  0.75972  0.80650  Biso   1.000  H
  H744     1.0000 0.83979  0.94601  0.44657  Biso   1.000  H
  C763     1.0000 0.95468  0.92981  0.43047  Biso   1.000  C
  H745     1.0000 0.83974  0.94601  0.44662  Biso   1.000  H
  H746     1.0000 0.97447  0.84999  0.59708  Biso   1.000  H
  C764     1.0000 0.03537  0.87242  0.52057  Biso   1.000  C
  C765     1.0000 0.64744  0.93069  0.90467  Biso   1.000  C
  H747     1.0000 0.57896  0.99859  0.94418  Biso   1.000  H
  C766     1.0000 0.52403  0.99411  0.84596  Biso   1.000  C
  H748     1.0000 0.57890  0.99859  0.94418  Biso   1.000  H
  C767     1.0000 0.52403  0.99411  0.84601  Biso   1.000  C
  O127     1.0000 0.68162  0.05691  0.01798  Biso   1.000  O
  O128     1.0000 0.68156  0.05691  0.01798  Biso   1.000  O
  C768     1.0000 0.74420  0.18342  0.05658  Biso   1.000  C
  C769     1.0000 0.74414  0.18342  0.05658  Biso   1.000  C
  C770     1.0000 0.77022  0.21971  0.02580  Biso   1.000  C
  H749     1.0000 0.48525  0.10691  0.70999  Biso   1.000  H
  C771     1.0000 0.40107  0.13089  0.63117  Biso   1.000  C
  C772     1.0000 0.40101  0.13089  0.63117  Biso   1.000  C
  C773     1.0000 0.43698  0.22462  0.57041  Biso   1.000  C
  H750     1.0000 0.54518  0.26339  0.60856  Biso   1.000  H
  H751     1.0000 0.54513  0.26339  0.60861  Biso   1.000  H
  O129     1.0000 0.97806  0.18260  0.15535  Biso   1.000  O
  O130     1.0000 0.97807  0.18260  0.15540  Biso   1.000  O
  C774     1.0000 0.04508  0.11669  0.24590  Biso   1.000  C
  C775     1.0000 0.11266  0.03818  0.32988  Biso   1.000  C
  C776     1.0000 0.52337  0.22370  0.35099  Biso   1.000  C
  C777     1.0000 0.43278  0.31339  0.35916  Biso   1.000  C
  C778     1.0000 0.43273  0.31339  0.35921  Biso   1.000  C
  O131     1.0000 0.20974  0.84479  0.98960  Biso   1.000  O
  C779     1.0000 0.24120  0.84450  0.11108  Biso   1.000  C
  C780     1.0000 0.24114  0.84450  0.11108  Biso   1.000  C
  C781     1.0000 0.25967  0.84990  0.23718  Biso   1.000  C
  C782     1.0000 0.65929  0.99421  0.21196  Biso   1.000  C
  C783     1.0000 0.65924  0.99421  0.21201  Biso   1.000  C
  C784     1.0000 0.64460  0.10998  0.22279  Biso   1.000  C
  C785     1.0000 0.64454  0.10998  0.22279  Biso   1.000  C
  C786     1.0000 0.86984  0.76341  0.91760  Biso   1.000  C
  C787     1.0000 0.12894  0.75072  0.89188  Biso   1.000  C
  H752     1.0000 0.02115  0.72202  0.83789  Biso   1.000  H
  H753     1.0000 0.07843  0.75592  0.79296  Biso   1.000  H
  H754     1.0000 0.07844  0.75592  0.79301  Biso   1.000  H
  H755     1.0000 0.07162  0.75320  0.79201  Biso   1.000  H
  H756     1.0000 0.09084  0.82538  0.77471  Biso   1.000  H
  C788     1.0000 0.16455  0.79162  0.85719  Biso   1.000  C
  C789     1.0000 0.65877  0.89542  0.84796  Biso   1.000  C
  C790     1.0000 0.74435  0.82008  0.91720  Biso   1.000  C
  C791     1.0000 0.65872  0.89542  0.84801  Biso   1.000  C
  H757     1.0000 0.68647  0.78472  0.69339  Biso   1.000  H
  H758     1.0000 0.64674  0.84698  0.71906  Biso   1.000  H
  C792     1.0000 0.59678  0.76691  0.74037  Biso   1.000  C
  H759     1.0000 0.68641  0.78472  0.69339  Biso   1.000  H
  H760     1.0000 0.64675  0.84698  0.71911  Biso   1.000  H
  C793     1.0000 0.59672  0.76691  0.74037  Biso   1.000  C
  H761     1.0000 0.94978  0.94980  0.38866  Biso   1.000  H
  H762     1.0000 0.94979  0.94980  0.38871  Biso   1.000  H
  C794     1.0000 0.02800  0.90218  0.45820  Biso   1.000  C
  C795     1.0000 0.02794  0.90218  0.45820  Biso   1.000  C
  H763     1.0000 0.08439  0.85388  0.53917  Biso   1.000  H
  H764     1.0000 0.08433  0.85388  0.53917  Biso   1.000  H
  C796     1.0000 0.68466  0.91070  0.96769  Biso   1.000  C
  C797     1.0000 0.68460  0.91070  0.96769  Biso   1.000  C
  H765     1.0000 0.54063  0.98069  0.80399  Biso   1.000  H
  C798     1.0000 0.45734  0.95058  0.86070  Biso   1.000  C
  H766     1.0000 0.50358  0.03818  0.84029  Biso   1.000  H
  H767     1.0000 0.50352  0.03818  0.84029  Biso   1.000  H
  C799     1.0000 0.72139  0.99951  0.04139  Biso   1.000  C
  C800     1.0000 0.80258  0.20478  0.11620  Biso   1.000  C
  H768     1.0000 0.70650  0.15190  0.06987  Biso   1.000  H
  H769     1.0000 0.71378  0.22039  0.03628  Biso   1.000  H
  H770     1.0000 0.70644  0.15190  0.06987  Biso   1.000  H
  H771     1.0000 0.71839  0.22058  0.04199  Biso   1.000  H
  H772     1.0000 0.76634  0.24670  0.98599  Biso   1.000  H
  C801     1.0000 0.83549  0.24461  0.07879  Biso   1.000  C
  H773     1.0000 0.36499  0.09772  0.63679  Biso   1.000  H
  C802     1.0000 0.38300  0.17501  0.57888  Biso   1.000  C
  H774     1.0000 0.36493  0.09772  0.63679  Biso   1.000  H
  C803     1.0000 0.38294  0.17501  0.57888  Biso   1.000  C
  H775     1.0000 0.42486  0.25410  0.53536  Biso   1.000  H
  H776     1.0000 0.42487  0.25410  0.53541  Biso   1.000  H
  C804     1.0000 0.94071  0.24272  0.16388  Biso   1.000  C
  C805     1.0000 0.94065  0.24272  0.16388  Biso   1.000  C
  C806     1.0000 0.91466  0.20419  0.18879  Biso   1.000  C
  O132     1.0000 0.97007  0.09509  0.25588  Biso   1.000  O
  C807     1.0000 0.11175  0.97398  0.29167  Biso   1.000  C
  H777     1.0000 0.06076  0.04188  0.34667  Biso   1.000  H
  C808     1.0000 0.18067  0.03989  0.39220  Biso   1.000  C
  C809     1.0000 0.18061  0.03989  0.39220  Biso   1.000  C
  H778     1.0000 0.53755  0.18678  0.32858  Biso   1.000  H
  C810     1.0000 0.57149  0.24422  0.40940  Biso   1.000  C
  C811     1.0000 0.57143  0.24422  0.40940  Biso   1.000  C
  C812     1.0000 0.48086  0.33382  0.41767  Biso   1.000  C
  H779     1.0000 0.38648  0.33649  0.34236  Biso   1.000  H
  H780     1.0000 0.38642  0.33649  0.34236  Biso   1.000  H
  C813     1.0000 0.25573  0.81658  0.94337  Biso   1.000  C
  C814     1.0000 0.22972  0.78029  0.97421  Biso   1.000  C
  O133     1.0000 0.19271  0.78778  0.11118  Biso   1.000  O
  O134     1.0000 0.19266  0.78778  0.11118  Biso   1.000  O
  C815     1.0000 0.18107  0.88312  0.25086  Biso   1.000  C
  H781     1.0000 0.24659  0.80359  0.23126  Biso   1.000  H
  C816     1.0000 0.32928  0.85320  0.29569  Biso   1.000  C
  H782     1.0000 0.24654  0.80359  0.23131  Biso   1.000  H
  H783     1.0000 0.64135  0.95491  0.19225  Biso   1.000  H
  C817     1.0000 0.72785  0.99562  0.26029  Biso   1.000  C
  H784     1.0000 0.64136  0.95491  0.19230  Biso   1.000  H
  C818     1.0000 0.71309  0.11148  0.27107  Biso   1.000  C
  H785     1.0000 0.61670  0.14821  0.21025  Biso   1.000  H
  C819     1.0000 0.71303  0.11148  0.27107  Biso   1.000  C
  H786     1.0000 0.61665  0.14821  0.21030  Biso   1.000  H
  O135     1.0000 0.78745  0.76190  0.92678  Biso   1.000  O
  H787     1.0000 0.89925  0.73092  0.94628  Biso   1.000  H
  H788     1.0000 0.89234  0.80558  0.93139  Biso   1.000  H
  O136     1.0000 0.78739  0.76190  0.92678  Biso   1.000  O
  H789     1.0000 0.89919  0.73092  0.94628  Biso   1.000  H
  C820     1.0000 0.19735  0.79522  0.88376  Biso   1.000  C
  H790     1.0000 0.14825  0.70611  0.89349  Biso   1.000  H
  H791     1.0000 0.11025  0.76001  0.93420  Biso   1.000  H
  C821     1.0000 0.19736  0.79522  0.88381  Biso   1.000  C
  H792     1.0000 0.11224  0.76049  0.93630  Biso   1.000  H
  H793     1.0000 0.17283  0.70952  0.91389  Biso   1.000  H
  H794     1.0000 0.22863  0.77450  0.85298  Biso   1.000  H
  H795     1.0000 0.17405  0.83428  0.86180  Biso   1.000  H
  H796     1.0000 0.18310  0.83560  0.86797  Biso   1.000  H
  H797     1.0000 0.20361  0.77129  0.83277  Biso   1.000  H
  C822     1.0000 0.16445  0.75539  0.92121  Biso   1.000  C
  H798     1.0000 0.63397  0.90880  0.80590  Biso   1.000  H
  H799     1.0000 0.63391  0.90880  0.80590  Biso   1.000  H
  C823     1.0000 0.73301  0.85539  0.97386  Biso   1.000  C
  C824     1.0000 0.73302  0.85539  0.97391  Biso   1.000  C
  H800     1.0000 0.61439  0.72980  0.76860  Biso   1.000  H
  H801     1.0000 0.56228  0.79342  0.76419  Biso   1.000  H
  C825     1.0000 0.54588  0.74172  0.67409  Biso   1.000  C
  H802     1.0000 0.61433  0.72980  0.76860  Biso   1.000  H
  H803     1.0000 0.56222  0.79342  0.76419  Biso   1.000  H
  C826     1.0000 0.54582  0.74172  0.67409  Biso   1.000  C
  H804     1.0000 0.07199  0.90379  0.43499  Biso   1.000  H
  H805     1.0000 0.07193  0.90379  0.43499  Biso   1.000  H
  O137     1.0000 0.67520  0.94421  0.02620  Biso   1.000  O
  H806     1.0000 0.47843  0.90680  0.86727  Biso   1.000  H
  H807     1.0000 0.44066  0.96449  0.90256  Biso   1.000  H
  C827     1.0000 0.38226  0.94868  0.80670  Biso   1.000  C
  H808     1.0000 0.44061  0.96449  0.90261  Biso   1.000  H
  H809     1.0000 0.77088  0.99562  0.02179  Biso   1.000  H
  H810     1.0000 0.73640  0.00238  0.08957  Biso   1.000  H
  H811     1.0000 0.73634  0.00238  0.08957  Biso   1.000  H
  C828     1.0000 0.87099  0.24928  0.10807  Biso   1.000  C
  H812     1.0000 0.77130  0.22550  0.14698  Biso   1.000  H
  H813     1.0000 0.82588  0.16572  0.13816  Biso   1.000  H
  H814     1.0000 0.77124  0.22550  0.14698  Biso   1.000  H
  H815     1.0000 0.82589  0.16572  0.13821  Biso   1.000  H
  H816     1.0000 0.81677  0.16440  0.13199  Biso   1.000  H
  H817     1.0000 0.79626  0.22871  0.16718  Biso   1.000  H
  H818     1.0000 0.85168  0.29389  0.10647  Biso   1.000  H
  H819     1.0000 0.88968  0.23999  0.06576  Biso   1.000  H
  H820     1.0000 0.88969  0.23999  0.06581  Biso   1.000  H
  C829     1.0000 0.83538  0.20838  0.14277  Biso   1.000  C
  H821     1.0000 0.88770  0.23951  0.06370  Biso   1.000  H
  H822     1.0000 0.82710  0.29048  0.08606  Biso   1.000  H
  H823     1.0000 0.33480  0.17131  0.54950  Biso   1.000  H
  H824     1.0000 0.33474  0.17131  0.54950  Biso   1.000  H
  H825     1.0000 0.97878  0.27798  0.16207  Biso   1.000  H
  H826     1.0000 0.92150  0.24408  0.20699  Biso   1.000  H
  H827     1.0000 0.92144  0.24408  0.20699  Biso   1.000  H
  H828     1.0000 0.92826  0.24680  0.20800  Biso   1.000  H
  H829     1.0000 0.90910  0.17462  0.22529  Biso   1.000  H
  C830     1.0000 0.94896  0.03629  0.22479  Biso   1.000  C
  C831     1.0000 0.18316  0.94080  0.28696  Biso   1.000  C
  C832     1.0000 0.03836  0.94961  0.26019  Biso   1.000  C
  C833     1.0000 0.18317  0.94080  0.28701  Biso   1.000  C
  H830     1.0000 0.17648  0.00141  0.41927  Biso   1.000  H
  H831     1.0000 0.23305  0.03911  0.37706  Biso   1.000  H
  C834     1.0000 0.17433  0.10142  0.43567  Biso   1.000  C
  H832     1.0000 0.17642  0.00141  0.41927  Biso   1.000  H
  H833     1.0000 0.23306  0.03911  0.37711  Biso   1.000  H
  H834     1.0000 0.61785  0.22102  0.42619  Biso   1.000  H
  C835     1.0000 0.55018  0.29919  0.44279  Biso   1.000  C
  C836     1.0000 0.55012  0.29919  0.44279  Biso   1.000  C
  H835     1.0000 0.46666  0.37069  0.43998  Biso   1.000  H
  H836     1.0000 0.29343  0.84810  0.93009  Biso   1.000  H
  H837     1.0000 0.28615  0.77961  0.96368  Biso   1.000  H
  H838     1.0000 0.28609  0.77961  0.96368  Biso   1.000  H
  H839     1.0000 0.28155  0.77942  0.95801  Biso   1.000  H
  H840     1.0000 0.23360  0.75330  0.01397  Biso   1.000  H
  C837     1.0000 0.11338  0.80009  0.11840  Biso   1.000  C
  C838     1.0000 0.10768  0.85870  0.21938  Biso   1.000  C
  H841     1.0000 0.31019  0.84012  0.33680  Biso   1.000  H
  H842     1.0000 0.34886  0.89761  0.30120  Biso   1.000  H
  C839     1.0000 0.39848  0.80811  0.28200  Biso   1.000  C
  H843     1.0000 0.31013  0.84012  0.33680  Biso   1.000  H
  H844     1.0000 0.75570  0.95739  0.27287  Biso   1.000  H
  H845     1.0000 0.75564  0.95739  0.27287  Biso   1.000  H
  C840     1.0000 0.75467  0.05428  0.28987  Biso   1.000  C
  H846     1.0000 0.73105  0.15069  0.29087  Biso   1.000  H
  O138     1.0000 0.78271  0.84440  0.03377  Biso   1.000  O
  O139     1.0000 0.78265  0.84440  0.03377  Biso   1.000  O
  C841     1.0000 0.47656  0.77630  0.64897  Biso   1.000  C
  C842     1.0000 0.56715  0.68661  0.64080  Biso   1.000  C
  C843     1.0000 0.35533  0.89002  0.77717  Biso   1.000  C
  C844     1.0000 0.34064  0.00579  0.78800  Biso   1.000  C
  O140     1.0000 0.96588  0.98200  0.26555  Biso   1.000  O
  O141     1.0000 0.96583  0.98200  0.26560  Biso   1.000  O
  H847     1.0000 0.97739  0.03201  0.18639  Biso   1.000  H
  H848     1.0000 0.89149  0.03692  0.20810  Biso   1.000  H
  H849     1.0000 0.89143  0.03692  0.20810  Biso   1.000  H
  H850     1.0000 0.23227  0.95710  0.30807  Biso   1.000  H
  C845     1.0000 0.03626  0.89192  0.22399  Biso   1.000  C
  H851     1.0000 0.22328  0.10492  0.46796  Biso   1.000  H
  H852     1.0000 0.17164  0.13931  0.40689  Biso   1.000  H
  C846     1.0000 0.10367  0.10239  0.47237  Biso   1.000  C
  H853     1.0000 0.22323  0.10492  0.46801  Biso   1.000  H
  C847     1.0000 0.10361  0.10239  0.47237  Biso   1.000  C
  H854     1.0000 0.58235  0.31290  0.48189  Biso   1.000  H
  O142     1.0000 0.10117  0.79960  0.18558  Biso   1.000  O
  H855     1.0000 0.07892  0.76750  0.09388  Biso   1.000  H
  H856     1.0000 0.09771  0.84221  0.09900  Biso   1.000  H
  H857     1.0000 0.07886  0.76750  0.09388  Biso   1.000  H
  H858     1.0000 0.09765  0.84221  0.09900  Biso   1.000  H
  H859     1.0000 0.37956  0.76351  0.28089  Biso   1.000  H
  H860     1.0000 0.41248  0.81818  0.23818  Biso   1.000  H
  C848     1.0000 0.47280  0.81390  0.33339  Biso   1.000  C
  C849     1.0000 0.47274  0.81390  0.33339  Biso   1.000  C
  H861     1.0000 0.80057  0.05530  0.32216  Biso   1.000  H
  H862     1.0000 0.80052  0.05530  0.32221  Biso   1.000  H
  C850     1.0000 0.76677  0.78540  0.07077  Biso   1.000  C
  H863     1.0000 0.46239  0.81322  0.67138  Biso   1.000  H
  C851     1.0000 0.42844  0.75578  0.59056  Biso   1.000  C
  H864     1.0000 0.46233  0.81322  0.67138  Biso   1.000  H
  C852     1.0000 0.42845  0.75578  0.59061  Biso   1.000  C
  C853     1.0000 0.51907  0.66618  0.58229  Biso   1.000  C
  H865     1.0000 0.61345  0.66351  0.65759  Biso   1.000  H
  C854     1.0000 0.28684  0.88852  0.72889  Biso   1.000  C
  H866     1.0000 0.38323  0.85179  0.78970  Biso   1.000  H
  H867     1.0000 0.35858  0.04509  0.80770  Biso   1.000  H
  C855     1.0000 0.27208  0.00438  0.73967  Biso   1.000  C
  H868     1.0000 0.35852  0.04509  0.80770  Biso   1.000  H
  C856     1.0000 0.27202  0.00438  0.73967  Biso   1.000  C
  O143     1.0000 0.96480  0.87431  0.18589  Biso   1.000  O
  O144     1.0000 0.96474  0.87431  0.18589  Biso   1.000  O
  C857     1.0000 0.11108  0.07252  0.53489  Biso   1.000  C
  C858     1.0000 0.03037  0.13002  0.44469  Biso   1.000  C
  C859     1.0000 0.11102  0.07252  0.53489  Biso   1.000  C
  C860     1.0000 0.52679  0.86361  0.32497  Biso   1.000  C
  C861     1.0000 0.49089  0.76978  0.38578  Biso   1.000  C
  C862     1.0000 0.52673  0.86361  0.32497  Biso   1.000  C
  C863     1.0000 0.49083  0.76978  0.38578  Biso   1.000  C
  C864     1.0000 0.83976  0.78321  0.13249  Biso   1.000  C
  H869     1.0000 0.76728  0.74712  0.04280  Biso   1.000  H
  H870     1.0000 0.71501  0.78822  0.08666  Biso   1.000  H
  H871     1.0000 0.71495  0.78822  0.08666  Biso   1.000  H
  H872     1.0000 0.38208  0.77898  0.57377  Biso   1.000  H
  C865     1.0000 0.44975  0.70081  0.55717  Biso   1.000  C
  H873     1.0000 0.38203  0.77898  0.57382  Biso   1.000  H
  H874     1.0000 0.53327  0.62931  0.55998  Biso   1.000  H
  C866     1.0000 0.24526  0.94572  0.71009  Biso   1.000  C
  H875     1.0000 0.26888  0.84931  0.70908  Biso   1.000  H
  H876     1.0000 0.26882  0.84931  0.70908  Biso   1.000  H
  H877     1.0000 0.24423  0.04261  0.72708  Biso   1.000  H
  C867     1.0000 0.90515  0.84581  0.22429  Biso   1.000  C
  H878     1.0000 0.16014  0.05399  0.55339  Biso   1.000  H
  C868     1.0000 0.04525  0.07019  0.56948  Biso   1.000  C
  C869     1.0000 0.96456  0.12758  0.47939  Biso   1.000  C
  H879     1.0000 0.02546  0.15001  0.40288  Biso   1.000  H
  H880     1.0000 0.51468  0.89309  0.28997  Biso   1.000  H
  C870     1.0000 0.59886  0.86911  0.36878  Biso   1.000  C
  H881     1.0000 0.51462  0.89309  0.28997  Biso   1.000  H
  C871     1.0000 0.56295  0.77538  0.42955  Biso   1.000  C
  H882     1.0000 0.45475  0.73661  0.39140  Biso   1.000  H
  C872     1.0000 0.56296  0.77538  0.42960  Biso   1.000  C
  C873     1.0000 0.82418  0.83511  0.17746  Biso   1.000  C
  H883     1.0000 0.84117  0.74148  0.15510  Biso   1.000  H
  H884     1.0000 0.89127  0.79002  0.11680  Biso   1.000  H
  H885     1.0000 0.41758  0.68710  0.51806  Biso   1.000  H
  H886     1.0000 0.41753  0.68710  0.51811  Biso   1.000  H
  H887     1.0000 0.19936  0.94470  0.67780  Biso   1.000  H
  H888     1.0000 0.89677  0.87470  0.26069  Biso   1.000  H
  H889     1.0000 0.92509  0.80451  0.24349  Biso   1.000  H
  H890     1.0000 0.92503  0.80451  0.24349  Biso   1.000  H
  C874     1.0000 0.97193  0.09782  0.54176  Biso   1.000  C
  C875     1.0000 0.97194  0.09782  0.54181  Biso   1.000  C
  H891     1.0000 0.05015  0.05020  0.61130  Biso   1.000  H
  H892     1.0000 0.91554  0.14612  0.46079  Biso   1.000  H
  H893     1.0000 0.63494  0.90228  0.36317  Biso   1.000  H
  C876     1.0000 0.61694  0.82499  0.42108  Biso   1.000  C
  H894     1.0000 0.57507  0.74590  0.46460  Biso   1.000  H
  H895     1.0000 0.57501  0.74590  0.46460  Biso   1.000  H
  H896     1.0000 0.78187  0.82271  0.20308  Biso   1.000  H
  H897     1.0000 0.80777  0.87441  0.15259  Biso   1.000  H
  H898     1.0000 0.92794  0.09621  0.56497  Biso   1.000  H
  H899     1.0000 0.66513  0.82869  0.45046  Biso   1.000  H
  H900     1.0000 0.66514  0.82869  0.45051  Biso   1.000  H
  C877     1.0000 0.17575  0.16489  0.82249  Biso   1.000  C
  C878     1.0000 0.09478  0.15419  0.77567  Biso   1.000  C
  H901     1.0000 0.21806  0.17729  0.79687  Biso   1.000  H
  H902     1.0000 0.19216  0.12559  0.84736  Biso   1.000  H
  C879     1.0000 0.16017  0.21679  0.86747  Biso   1.000  C
  C880     1.0000 0.09473  0.15419  0.77572  Biso   1.000  C
  H903     1.0000 0.21801  0.17729  0.79687  Biso   1.000  H
  H904     1.0000 0.19211  0.12559  0.84741  Biso   1.000  H
  C881     1.0000 0.16011  0.21679  0.86747  Biso   1.000  C
  O145     1.0000 0.03513  0.12569  0.81407  Biso   1.000  O
  H905     1.0000 0.10316  0.12530  0.73927  Biso   1.000  H
  H906     1.0000 0.07484  0.19549  0.75646  Biso   1.000  H
  H907     1.0000 0.10311  0.12530  0.73932  Biso   1.000  H
  H908     1.0000 0.07485  0.19549  0.75651  Biso   1.000  H
  H909     1.0000 0.15876  0.25852  0.84486  Biso   1.000  H
  H910     1.0000 0.10866  0.20998  0.88316  Biso   1.000  H
  C882     1.0000 0.23316  0.21460  0.92919  Biso   1.000  C
  H911     1.0000 0.15871  0.25852  0.84491  Biso   1.000  H
  H912     1.0000 0.10861  0.20998  0.88321  Biso   1.000  H
  C883     1.0000 0.23310  0.21460  0.92919  Biso   1.000  C
  C884     1.0000 0.96367  0.10808  0.77597  Biso   1.000  C
  C885     1.0000 0.96361  0.10808  0.77597  Biso   1.000  C
  H913     1.0000 0.28492  0.21178  0.91329  Biso   1.000  H
  O146     1.0000 0.21722  0.15560  0.96619  Biso   1.000  O
  H914     1.0000 0.23265  0.25288  0.95716  Biso   1.000  H
  H915     1.0000 0.23260  0.25288  0.95721  Biso   1.000  H
  C886     1.0000 0.96157  0.05039  0.73977  Biso   1.000  C
  C887     1.0000 0.89225  0.14130  0.78058  Biso   1.000  C
  C888     1.0000 0.96151  0.05039  0.73977  Biso   1.000  C
  C889     1.0000 0.26692  0.14461  0.02610  Biso   1.000  C
  C890     1.0000 0.26686  0.14461  0.02610  Biso   1.000  C
  O147     1.0000 0.03405  0.01800  0.73440  Biso   1.000  O
  C891     1.0000 0.88818  0.02602  0.70828  Biso   1.000  C
  C892     1.0000 0.88812  0.02602  0.70828  Biso   1.000  C
  C893     1.0000 0.81886  0.11688  0.74909  Biso   1.000  C
  O148     1.0000 0.89876  0.20040  0.81437  Biso   1.000  O
  O149     1.0000 0.89870  0.20040  0.81437  Biso   1.000  O
  C894     1.0000 0.25558  0.17992  0.08275  Biso   1.000  C
  C895     1.0000 0.31527  0.08930  0.03227  Biso   1.000  C
  C896     1.0000 0.25559  0.17992  0.08280  Biso   1.000  C
  C897     1.0000 0.05097  0.96371  0.77517  Biso   1.000  C
  C898     1.0000 0.05092  0.96371  0.77522  Biso   1.000  C
  C899     1.0000 0.88727  0.96182  0.67008  Biso   1.000  C
  C900     1.0000 0.88721  0.96182  0.67008  Biso   1.000  C
  C901     1.0000 0.81677  0.05920  0.71300  Biso   1.000  C
  C902     1.0000 0.81671  0.05920  0.71300  Biso   1.000  C
  C903     1.0000 0.74026  0.15010  0.76278  Biso   1.000  C
  C904     1.0000 0.88655  0.19991  0.88156  Biso   1.000  C
  C905     1.0000 0.88656  0.19991  0.88161  Biso   1.000  C
  O150     1.0000 0.21248  0.23810  0.07318  Biso   1.000  O
  C906     1.0000 0.29278  0.15988  0.14568  Biso   1.000  C
  O151     1.0000 0.32473  0.05579  0.97376  Biso   1.000  O
  O152     1.0000 0.32474  0.05579  0.97381  Biso   1.000  O
  C907     1.0000 0.35249  0.06931  0.09529  Biso   1.000  C
  O153     1.0000 0.02986  0.90491  0.74408  Biso   1.000  O
  H916     1.0000 0.02254  0.96799  0.81357  Biso   1.000  H
  H917     1.0000 0.10844  0.96308  0.79186  Biso   1.000  H
  H918     1.0000 0.10845  0.96308  0.79191  Biso   1.000  H
  C908     1.0000 0.88305  0.90700  0.71876  Biso   1.000  C
  H919     1.0000 0.93917  0.95812  0.65328  Biso   1.000  H
  C909     1.0000 0.81926  0.96011  0.60776  Biso   1.000  C
  C910     1.0000 0.88306  0.90700  0.71881  Biso   1.000  C
  H920     1.0000 0.93911  0.95812  0.65328  Biso   1.000  H
  C911     1.0000 0.81927  0.96011  0.60781  Biso   1.000  C
  H921     1.0000 0.76766  0.04290  0.69189  Biso   1.000  H
  C912     1.0000 0.72047  0.12690  0.83006  Biso   1.000  C
  H922     1.0000 0.75334  0.19641  0.76870  Biso   1.000  H
  C913     1.0000 0.67065  0.14680  0.70427  Biso   1.000  C
  C914     1.0000 0.72042  0.12690  0.83011  Biso   1.000  C
  H923     1.0000 0.92101  0.23250  0.90607  Biso   1.000  H
  H924     1.0000 0.90222  0.15779  0.90096  Biso   1.000  H
  O154     1.0000 0.80722  0.21222  0.88878  Biso   1.000  O
  H925     1.0000 0.90222  0.15779  0.90101  Biso   1.000  H
  C915     1.0000 0.13009  0.23659  0.08235  Biso   1.000  C
  C916     1.0000 0.13010  0.23659  0.08240  Biso   1.000  C
  C917     1.0000 0.26936  0.19500  0.20709  Biso   1.000  C
  C918     1.0000 0.34116  0.10458  0.15199  Biso   1.000  C
  C919     1.0000 0.27854  0.00049  0.95857  Biso   1.000  C
  C920     1.0000 0.40111  0.00618  0.09890  Biso   1.000  C
  C921     1.0000 0.40105  0.00618  0.09890  Biso   1.000  C
  C922     1.0000 0.95485  0.88331  0.75406  Biso   1.000  C
  C923     1.0000 0.95486  0.88331  0.75411  Biso   1.000  C
  C924     1.0000 0.80949  0.88098  0.72979  Biso   1.000  C
  C925     1.0000 0.80943  0.88098  0.72979  Biso   1.000  C
  H926     1.0000 0.82345  0.99859  0.58068  Biso   1.000  H
  H927     1.0000 0.76688  0.96089  0.62290  Biso   1.000  H
  C926     1.0000 0.82560  0.89858  0.56429  Biso   1.000  C
  H928     1.0000 0.76682  0.96089  0.62290  Biso   1.000  H
  C927     1.0000 0.82554  0.89858  0.56429  Biso   1.000  C
  C928     1.0000 0.66877  0.07442  0.83327  Biso   1.000  C
  C929     1.0000 0.75873  0.15550  0.88888  Biso   1.000  C
  C930     1.0000 0.66871  0.07442  0.83327  Biso   1.000  C
  H929     1.0000 0.68974  0.15988  0.66316  Biso   1.000  H
  H930     1.0000 0.65107  0.10239  0.69876  Biso   1.000  H
  C931     1.0000 0.60145  0.19189  0.71796  Biso   1.000  C
  H931     1.0000 0.68975  0.15988  0.66321  Biso   1.000  H
  H932     1.0000 0.65102  0.10239  0.69881  Biso   1.000  H
  C932     1.0000 0.60146  0.19189  0.71801  Biso   1.000  C
  H933     1.0000 0.10068  0.26908  0.05367  Biso   1.000  H
  H934     1.0000 0.10759  0.19442  0.06857  Biso   1.000  H
  O155     1.0000 0.11880  0.24821  0.14838  Biso   1.000  O
  O156     1.0000 0.11874  0.24821  0.14838  Biso   1.000  O
  C933     1.0000 0.19237  0.16869  0.22369  Biso   1.000  C
  H935     1.0000 0.25855  0.24028  0.19346  Biso   1.000  H
  C934     1.0000 0.33618  0.19709  0.26906  Biso   1.000  C
  H936     1.0000 0.25856  0.24028  0.19351  Biso   1.000  H
  C935     1.0000 0.33612  0.19709  0.26906  Biso   1.000  C
  H937     1.0000 0.36596  0.09120  0.19406  Biso   1.000  H
  H938     1.0000 0.36597  0.09120  0.19411  Biso   1.000  H
  O157     1.0000 0.31831  0.94309  0.98198  Biso   1.000  O
  H939     1.0000 0.26353  0.99762  0.91038  Biso   1.000  H
  H940     1.0000 0.22905  0.00438  0.97817  Biso   1.000  H
  H941     1.0000 0.22899  0.00438  0.97817  Biso   1.000  H
  C936     1.0000 0.34450  0.94951  0.10476  Biso   1.000  C
  C937     1.0000 0.34444  0.94951  0.10476  Biso   1.000  C
  H942     1.0000 0.42097  0.00141  0.05578  Biso   1.000  H
  C938     1.0000 0.47590  0.00589  0.15400  Biso   1.000  C
  C939     1.0000 0.47584  0.00589  0.15400  Biso   1.000  C
  C940     1.0000 0.95294  0.83360  0.80058  Biso   1.000  C
  H943     1.0000 0.76149  0.89688  0.70618  Biso   1.000  H
  C941     1.0000 0.80756  0.83131  0.77627  Biso   1.000  C
  H944     1.0000 0.76143  0.89688  0.70618  Biso   1.000  H
  C942     1.0000 0.80750  0.83131  0.77627  Biso   1.000  C
  H945     1.0000 0.77665  0.89508  0.53200  Biso   1.000  H
  H946     1.0000 0.82829  0.86069  0.59307  Biso   1.000  H
  C943     1.0000 0.89626  0.89761  0.52759  Biso   1.000  C
  H947     1.0000 0.82824  0.86069  0.59312  Biso   1.000  H
  H948     1.0000 0.64314  0.05540  0.79397  Biso   1.000  H
  C944     1.0000 0.65543  0.05049  0.89519  Biso   1.000  C
  H949     1.0000 0.64315  0.05540  0.79402  Biso   1.000  H
  C945     1.0000 0.74543  0.13152  0.95069  Biso   1.000  C
  H950     1.0000 0.62037  0.23649  0.71906  Biso   1.000  H
  H951     1.0000 0.58745  0.18182  0.76178  Biso   1.000  H
  C946     1.0000 0.52713  0.18610  0.66657  Biso   1.000  C
  H952     1.0000 0.62032  0.23649  0.71911  Biso   1.000  H
  C947     1.0000 0.12061  0.19242  0.18829  Biso   1.000  C
  C948     1.0000 0.12055  0.19242  0.18829  Biso   1.000  C
  C949     1.0000 0.19044  0.11902  0.27017  Biso   1.000  C
  H953     1.0000 0.31346  0.21528  0.30656  Biso   1.000  H
  H954     1.0000 0.35319  0.15302  0.28089  Biso   1.000  H
  C950     1.0000 0.40315  0.23309  0.25959  Biso   1.000  C
  H955     1.0000 0.35313  0.15302  0.28089  Biso   1.000  H
  C951     1.0000 0.30620  0.92101  0.04605  Biso   1.000  C
  C952     1.0000 0.30614  0.92101  0.04610  Biso   1.000  C
  C953     1.0000 0.33116  0.92558  0.16668  Biso   1.000  C
  H956     1.0000 0.49636  0.96182  0.15966  Biso   1.000  H
  H957     1.0000 0.45930  0.01931  0.19596  Biso   1.000  H
  C954     1.0000 0.54259  0.04942  0.13926  Biso   1.000  C
  H958     1.0000 0.45924  0.01931  0.19596  Biso   1.000  H
  C955     1.0000 0.54254  0.04942  0.13931  Biso   1.000  C
  C956     1.0000 0.87932  0.80758  0.81166  Biso   1.000  C
  C957     1.0000 0.87933  0.80758  0.81171  Biso   1.000  C
  O158     1.0000 0.02187  0.81740  0.84460  Biso   1.000  O
  O159     1.0000 0.02181  0.81740  0.84460  Biso   1.000  O
  C958     1.0000 0.73057  0.80500  0.79286  Biso   1.000  C
  C959     1.0000 0.73052  0.80500  0.79291  Biso   1.000  C
  C960     1.0000 0.88885  0.92748  0.46507  Biso   1.000  C
  C961     1.0000 0.96956  0.86998  0.55527  Biso   1.000  C
  C962     1.0000 0.88886  0.92748  0.46512  Biso   1.000  C
  C963     1.0000 0.96957  0.86998  0.55532  Biso   1.000  C
  C964     1.0000 0.59882  0.99382  0.90106  Biso   1.000  C
  C965     1.0000 0.59883  0.99382  0.90111  Biso   1.000  C
  C966     1.0000 0.69373  0.07899  0.95390  Biso   1.000  C
  O160     1.0000 0.79019  0.15521  0.01036  Biso   1.000  O
  O161     1.0000 0.79020  0.15521  0.01041  Biso   1.000  O
  C967     1.0000 0.47314  0.13639  0.67499  Biso   1.000  C
  C968     1.0000 0.50904  0.23022  0.61418  Biso   1.000  C
  C969     1.0000 0.04699  0.16640  0.19937  Biso   1.000  C
  C970     1.0000 0.04693  0.16640  0.19937  Biso   1.000  C
  H959     1.0000 0.23844  0.10312  0.29378  Biso   1.000  H
  C971     1.0000 0.11688  0.09300  0.28120  Biso   1.000  C
  H960     1.0000 0.38554  0.27020  0.23136  Biso   1.000  H
  H961     1.0000 0.43765  0.20658  0.23577  Biso   1.000  H
  C972     1.0000 0.45405  0.25828  0.32587  Biso   1.000  C
  H962     1.0000 0.38555  0.27020  0.23141  Biso   1.000  H
  C973     1.0000 0.25450  0.86848  0.04926  Biso   1.000  C
  C974     1.0000 0.25445  0.86848  0.04931  Biso   1.000  C
  C975     1.0000 0.27946  0.87310  0.16989  Biso   1.000  C
  H963     1.0000 0.35679  0.94460  0.20599  Biso   1.000  H
  H964     1.0000 0.52150  0.09320  0.13269  Biso   1.000  H
  H965     1.0000 0.55927  0.03551  0.09739  Biso   1.000  H
  C976     1.0000 0.61767  0.05132  0.19326  Biso   1.000  C
  H966     1.0000 0.52144  0.09320  0.13269  Biso   1.000  H
  C977     1.0000 0.61768  0.05132  0.19331  Biso   1.000  C
  O162     1.0000 0.88113  0.75179  0.85157  Biso   1.000  O
  C978     1.0000 0.05922  0.75728  0.83608  Biso   1.000  C
  C979     1.0000 0.08522  0.79581  0.81121  Biso   1.000  C
  C980     1.0000 0.70715  0.84012  0.85428  Biso   1.000  C
  H967     1.0000 0.74138  0.75972  0.80650  Biso   1.000  H
  C981     1.0000 0.66375  0.80291  0.73089  Biso   1.000  C
  H968     1.0000 0.74132  0.75972  0.80650  Biso   1.000  H
  H969     1.0000 0.83979  0.94601  0.44657  Biso   1.000  H
  C982     1.0000 0.95468  0.92981  0.43047  Biso   1.000  C
  H970     1.0000 0.83974  0.94601  0.44662  Biso   1.000  H
  H971     1.0000 0.97447  0.84999  0.59708  Biso   1.000  H
  C983     1.0000 0.03537  0.87242  0.52057  Biso   1.000  C
  C984     1.0000 0.64744  0.93069  0.90467  Biso   1.000  C
  H972     1.0000 0.57896  0.99859  0.94418  Biso   1.000  H
  C985     1.0000 0.52403  0.99411  0.84596  Biso   1.000  C
  H973     1.0000 0.57890  0.99859  0.94418  Biso   1.000  H
  C986     1.0000 0.52403  0.99411  0.84601  Biso   1.000  C
  O163     1.0000 0.68162  0.05691  0.01798  Biso   1.000  O
  O164     1.0000 0.68156  0.05691  0.01798  Biso   1.000  O
  C987     1.0000 0.74420  0.18342  0.05658  Biso   1.000  C
  C988     1.0000 0.74414  0.18342  0.05658  Biso   1.000  C
  C989     1.0000 0.77022  0.21971  0.02580  Biso   1.000  C
  H974     1.0000 0.48525  0.10691  0.70999  Biso   1.000  H
  C990     1.0000 0.40107  0.13089  0.63117  Biso   1.000  C
  C991     1.0000 0.40101  0.13089  0.63117  Biso   1.000  C
  C992     1.0000 0.43698  0.22462  0.57041  Biso   1.000  C
  H975     1.0000 0.54518  0.26339  0.60856  Biso   1.000  H
  H976     1.0000 0.54513  0.26339  0.60861  Biso   1.000  H
  O165     1.0000 0.97806  0.18260  0.15535  Biso   1.000  O
  O166     1.0000 0.97807  0.18260  0.15540  Biso   1.000  O
  C993     1.0000 0.04508  0.11669  0.24590  Biso   1.000  C
  C994     1.0000 0.11266  0.03818  0.32988  Biso   1.000  C
  C995     1.0000 0.52337  0.22370  0.35099  Biso   1.000  C
  C996     1.0000 0.43278  0.31339  0.35916  Biso   1.000  C
  C997     1.0000 0.43273  0.31339  0.35921  Biso   1.000  C
  O167     1.0000 0.20974  0.84479  0.98960  Biso   1.000  O
  C998     1.0000 0.24120  0.84450  0.11108  Biso   1.000  C
  C999     1.0000 0.24114  0.84450  0.11108  Biso   1.000  C
  C1000    1.0000 0.25967  0.84990  0.23718  Biso   1.000  C
  C1001    1.0000 0.65929  0.99421  0.21196  Biso   1.000  C
  C1002    1.0000 0.65924  0.99421  0.21201  Biso   1.000  C
  C1003    1.0000 0.64460  0.10998  0.22279  Biso   1.000  C
  C1004    1.0000 0.64454  0.10998  0.22279  Biso   1.000  C
  C1005    1.0000 0.86984  0.76341  0.91760  Biso   1.000  C
  C1006    1.0000 0.12894  0.75072  0.89188  Biso   1.000  C
  H977     1.0000 0.02115  0.72202  0.83789  Biso   1.000  H
  H978     1.0000 0.07843  0.75592  0.79296  Biso   1.000  H
  H979     1.0000 0.07844  0.75592  0.79301  Biso   1.000  H
  H980     1.0000 0.07162  0.75320  0.79201  Biso   1.000  H
  H981     1.0000 0.09084  0.82538  0.77471  Biso   1.000  H
  C1007    1.0000 0.16455  0.79162  0.85719  Biso   1.000  C
  C1008    1.0000 0.65877  0.89542  0.84796  Biso   1.000  C
  C1009    1.0000 0.74435  0.82008  0.91720  Biso   1.000  C
  C1010    1.0000 0.65872  0.89542  0.84801  Biso   1.000  C
  H982     1.0000 0.68647  0.78472  0.69339  Biso   1.000  H
  H983     1.0000 0.64674  0.84698  0.71906  Biso   1.000  H
  C1011    1.0000 0.59678  0.76691  0.74037  Biso   1.000  C
  H984     1.0000 0.68641  0.78472  0.69339  Biso   1.000  H
  H985     1.0000 0.64675  0.84698  0.71911  Biso   1.000  H
  C1012    1.0000 0.59672  0.76691  0.74037  Biso   1.000  C
  H986     1.0000 0.94978  0.94980  0.38866  Biso   1.000  H
  H987     1.0000 0.94979  0.94980  0.38871  Biso   1.000  H
  C1013    1.0000 0.02800  0.90218  0.45820  Biso   1.000  C
  C1014    1.0000 0.02794  0.90218  0.45820  Biso   1.000  C
  H988     1.0000 0.08439  0.85388  0.53917  Biso   1.000  H
  H989     1.0000 0.08433  0.85388  0.53917  Biso   1.000  H
  C1015    1.0000 0.68466  0.91070  0.96769  Biso   1.000  C
  C1016    1.0000 0.68460  0.91070  0.96769  Biso   1.000  C
  H990     1.0000 0.54063  0.98069  0.80399  Biso   1.000  H
  C1017    1.0000 0.45734  0.95058  0.86070  Biso   1.000  C
  H991     1.0000 0.50358  0.03818  0.84029  Biso   1.000  H
  H992     1.0000 0.50352  0.03818  0.84029  Biso   1.000  H
  C1018    1.0000 0.72139  0.99951  0.04139  Biso   1.000  C
  C1019    1.0000 0.80258  0.20478  0.11620  Biso   1.000  C
  H993     1.0000 0.70650  0.15190  0.06987  Biso   1.000  H
  H994     1.0000 0.71378  0.22039  0.03628  Biso   1.000  H
  H995     1.0000 0.70644  0.15190  0.06987  Biso   1.000  H
  H996     1.0000 0.71839  0.22058  0.04199  Biso   1.000  H
  H997     1.0000 0.76634  0.24670  0.98599  Biso   1.000  H
  C1020    1.0000 0.83549  0.24461  0.07879  Biso   1.000  C
  H998     1.0000 0.36499  0.09772  0.63679  Biso   1.000  H
  C1021    1.0000 0.38300  0.17501  0.57888  Biso   1.000  C
  H999     1.0000 0.36493  0.09772  0.63679  Biso   1.000  H
  C1022    1.0000 0.38294  0.17501  0.57888  Biso   1.000  C
  H1000    1.0000 0.42486  0.25410  0.53536  Biso   1.000  H
  H1001    1.0000 0.42487  0.25410  0.53541  Biso   1.000  H
  C1023    1.0000 0.94071  0.24272  0.16388  Biso   1.000  C
  C1024    1.0000 0.94065  0.24272  0.16388  Biso   1.000  C
  C1025    1.0000 0.91466  0.20419  0.18879  Biso   1.000  C
  O168     1.0000 0.97007  0.09509  0.25588  Biso   1.000  O
  C1026    1.0000 0.11175  0.97398  0.29167  Biso   1.000  C
  H1002    1.0000 0.06076  0.04188  0.34667  Biso   1.000  H
  C1027    1.0000 0.18067  0.03989  0.39220  Biso   1.000  C
  C1028    1.0000 0.18061  0.03989  0.39220  Biso   1.000  C
  H1003    1.0000 0.53755  0.18678  0.32858  Biso   1.000  H
  C1029    1.0000 0.57149  0.24422  0.40940  Biso   1.000  C
  C1030    1.0000 0.57143  0.24422  0.40940  Biso   1.000  C
  C1031    1.0000 0.48086  0.33382  0.41767  Biso   1.000  C
  H1004    1.0000 0.38648  0.33649  0.34236  Biso   1.000  H
  H1005    1.0000 0.38642  0.33649  0.34236  Biso   1.000  H
  C1032    1.0000 0.25573  0.81658  0.94337  Biso   1.000  C
  C1033    1.0000 0.22972  0.78029  0.97421  Biso   1.000  C
  O169     1.0000 0.19271  0.78778  0.11118  Biso   1.000  O
  O170     1.0000 0.19266  0.78778  0.11118  Biso   1.000  O
  C1034    1.0000 0.18107  0.88312  0.25086  Biso   1.000  C
  H1006    1.0000 0.24659  0.80359  0.23126  Biso   1.000  H
  C1035    1.0000 0.32928  0.85320  0.29569  Biso   1.000  C
  H1007    1.0000 0.24654  0.80359  0.23131  Biso   1.000  H
  H1008    1.0000 0.64135  0.95491  0.19225  Biso   1.000  H
  C1036    1.0000 0.72785  0.99562  0.26029  Biso   1.000  C
  H1009    1.0000 0.64136  0.95491  0.19230  Biso   1.000  H
  C1037    1.0000 0.71309  0.11148  0.27107  Biso   1.000  C
  H1010    1.0000 0.61670  0.14821  0.21025  Biso   1.000  H
  C1038    1.0000 0.71303  0.11148  0.27107  Biso   1.000  C
  H1011    1.0000 0.61665  0.14821  0.21030  Biso   1.000  H
  O171     1.0000 0.78745  0.76190  0.92678  Biso   1.000  O
  H1012    1.0000 0.89925  0.73092  0.94628  Biso   1.000  H
  H1013    1.0000 0.89234  0.80558  0.93139  Biso   1.000  H
  O172     1.0000 0.78739  0.76190  0.92678  Biso   1.000  O
  H1014    1.0000 0.89919  0.73092  0.94628  Biso   1.000  H
  C1039    1.0000 0.19735  0.79522  0.88376  Biso   1.000  C
  H1015    1.0000 0.14825  0.70611  0.89349  Biso   1.000  H
  H1016    1.0000 0.11025  0.76001  0.93420  Biso   1.000  H
  C1040    1.0000 0.19736  0.79522  0.88381  Biso   1.000  C
  H1017    1.0000 0.11224  0.76049  0.93630  Biso   1.000  H
  H1018    1.0000 0.17283  0.70952  0.91389  Biso   1.000  H
  H1019    1.0000 0.22863  0.77450  0.85298  Biso   1.000  H
  H1020    1.0000 0.17405  0.83428  0.86180  Biso   1.000  H
  H1021    1.0000 0.18310  0.83560  0.86797  Biso   1.000  H
  H1022    1.0000 0.20361  0.77129  0.83277  Biso   1.000  H
  C1041    1.0000 0.16445  0.75539  0.92121  Biso   1.000  C
  H1023    1.0000 0.63397  0.90880  0.80590  Biso   1.000  H
  H1024    1.0000 0.63391  0.90880  0.80590  Biso   1.000  H
  C1042    1.0000 0.73301  0.85539  0.97386  Biso   1.000  C
  C1043    1.0000 0.73302  0.85539  0.97391  Biso   1.000  C
  H1025    1.0000 0.61439  0.72980  0.76860  Biso   1.000  H
  H1026    1.0000 0.56228  0.79342  0.76419  Biso   1.000  H
  C1044    1.0000 0.54588  0.74172  0.67409  Biso   1.000  C
  H1027    1.0000 0.61433  0.72980  0.76860  Biso   1.000  H
  H1028    1.0000 0.56222  0.79342  0.76419  Biso   1.000  H
  C1045    1.0000 0.54582  0.74172  0.67409  Biso   1.000  C
  H1029    1.0000 0.07199  0.90379  0.43499  Biso   1.000  H
  H1030    1.0000 0.07193  0.90379  0.43499  Biso   1.000  H
  O173     1.0000 0.67520  0.94421  0.02620  Biso   1.000  O
  H1031    1.0000 0.47843  0.90680  0.86727  Biso   1.000  H
  H1032    1.0000 0.44066  0.96449  0.90256  Biso   1.000  H
  C1046    1.0000 0.38226  0.94868  0.80670  Biso   1.000  C
  H1033    1.0000 0.44061  0.96449  0.90261  Biso   1.000  H
  H1034    1.0000 0.77088  0.99562  0.02179  Biso   1.000  H
  H1035    1.0000 0.73640  0.00238  0.08957  Biso   1.000  H
  H1036    1.0000 0.73634  0.00238  0.08957  Biso   1.000  H
  C1047    1.0000 0.87099  0.24928  0.10807  Biso   1.000  C
  H1037    1.0000 0.77130  0.22550  0.14698  Biso   1.000  H
  H1038    1.0000 0.82588  0.16572  0.13816  Biso   1.000  H
  H1039    1.0000 0.77124  0.22550  0.14698  Biso   1.000  H
  H1040    1.0000 0.82589  0.16572  0.13821  Biso   1.000  H
  H1041    1.0000 0.81677  0.16440  0.13199  Biso   1.000  H
  H1042    1.0000 0.79626  0.22871  0.16718  Biso   1.000  H
  H1043    1.0000 0.85168  0.29389  0.10647  Biso   1.000  H
  H1044    1.0000 0.88968  0.23999  0.06576  Biso   1.000  H
  H1045    1.0000 0.88969  0.23999  0.06581  Biso   1.000  H
  C1048    1.0000 0.83538  0.20838  0.14277  Biso   1.000  C
  H1046    1.0000 0.88770  0.23951  0.06370  Biso   1.000  H
  H1047    1.0000 0.82710  0.29048  0.08606  Biso   1.000  H
  H1048    1.0000 0.33480  0.17131  0.54950  Biso   1.000  H
  H1049    1.0000 0.33474  0.17131  0.54950  Biso   1.000  H
  H1050    1.0000 0.97878  0.27798  0.16207  Biso   1.000  H
  H1051    1.0000 0.92150  0.24408  0.20699  Biso   1.000  H
  H1052    1.0000 0.92144  0.24408  0.20699  Biso   1.000  H
  H1053    1.0000 0.92826  0.24680  0.20800  Biso   1.000  H
  H1054    1.0000 0.90910  0.17462  0.22529  Biso   1.000  H
  C1049    1.0000 0.94896  0.03629  0.22479  Biso   1.000  C
  C1050    1.0000 0.18316  0.94080  0.28696  Biso   1.000  C
  C1051    1.0000 0.03836  0.94961  0.26019  Biso   1.000  C
  C1052    1.0000 0.18317  0.94080  0.28701  Biso   1.000  C
  H1055    1.0000 0.17648  0.00141  0.41927  Biso   1.000  H
  H1056    1.0000 0.23305  0.03911  0.37706  Biso   1.000  H
  C1053    1.0000 0.17433  0.10142  0.43567  Biso   1.000  C
  H1057    1.0000 0.17642  0.00141  0.41927  Biso   1.000  H
  H1058    1.0000 0.23306  0.03911  0.37711  Biso   1.000  H
  H1059    1.0000 0.61785  0.22102  0.42619  Biso   1.000  H
  C1054    1.0000 0.55018  0.29919  0.44279  Biso   1.000  C
  C1055    1.0000 0.55012  0.29919  0.44279  Biso   1.000  C
  H1060    1.0000 0.46666  0.37069  0.43998  Biso   1.000  H
  H1061    1.0000 0.29343  0.84810  0.93009  Biso   1.000  H
  H1062    1.0000 0.28615  0.77961  0.96368  Biso   1.000  H
  H1063    1.0000 0.28609  0.77961  0.96368  Biso   1.000  H
  H1064    1.0000 0.28155  0.77942  0.95801  Biso   1.000  H
  H1065    1.0000 0.23360  0.75330  0.01397  Biso   1.000  H
  C1056    1.0000 0.11338  0.80009  0.11840  Biso   1.000  C
  C1057    1.0000 0.10768  0.85870  0.21938  Biso   1.000  C
  H1066    1.0000 0.31019  0.84012  0.33680  Biso   1.000  H
  H1067    1.0000 0.34886  0.89761  0.30120  Biso   1.000  H
  C1058    1.0000 0.39848  0.80811  0.28200  Biso   1.000  C
  H1068    1.0000 0.31013  0.84012  0.33680  Biso   1.000  H
  H1069    1.0000 0.75570  0.95739  0.27287  Biso   1.000  H
  H1070    1.0000 0.75564  0.95739  0.27287  Biso   1.000  H
  C1059    1.0000 0.75467  0.05428  0.28987  Biso   1.000  C
  H1071    1.0000 0.73105  0.15069  0.29087  Biso   1.000  H
  O174     1.0000 0.78271  0.84440  0.03377  Biso   1.000  O
  O175     1.0000 0.78265  0.84440  0.03377  Biso   1.000  O
  C1060    1.0000 0.47656  0.77630  0.64897  Biso   1.000  C
  C1061    1.0000 0.56715  0.68661  0.64080  Biso   1.000  C
  C1062    1.0000 0.35533  0.89002  0.77717  Biso   1.000  C
  C1063    1.0000 0.34064  0.00579  0.78800  Biso   1.000  C
  O176     1.0000 0.96588  0.98200  0.26555  Biso   1.000  O
  O177     1.0000 0.96583  0.98200  0.26560  Biso   1.000  O
  H1072    1.0000 0.97739  0.03201  0.18639  Biso   1.000  H
  H1073    1.0000 0.89149  0.03692  0.20810  Biso   1.000  H
  H1074    1.0000 0.89143  0.03692  0.20810  Biso   1.000  H
  H1075    1.0000 0.23227  0.95710  0.30807  Biso   1.000  H
  C1064    1.0000 0.03626  0.89192  0.22399  Biso   1.000  C
  H1076    1.0000 0.22328  0.10492  0.46796  Biso   1.000  H
  H1077    1.0000 0.17164  0.13931  0.40689  Biso   1.000  H
  C1065    1.0000 0.10367  0.10239  0.47237  Biso   1.000  C
  H1078    1.0000 0.22323  0.10492  0.46801  Biso   1.000  H
  C1066    1.0000 0.10361  0.10239  0.47237  Biso   1.000  C
  H1079    1.0000 0.58235  0.31290  0.48189  Biso   1.000  H
  O178     1.0000 0.10117  0.79960  0.18558  Biso   1.000  O
  H1080    1.0000 0.07892  0.76750  0.09388  Biso   1.000  H
  H1081    1.0000 0.09771  0.84221  0.09900  Biso   1.000  H
  H1082    1.0000 0.07886  0.76750  0.09388  Biso   1.000  H
  H1083    1.0000 0.09765  0.84221  0.09900  Biso   1.000  H
  H1084    1.0000 0.37956  0.76351  0.28089  Biso   1.000  H
  H1085    1.0000 0.41248  0.81818  0.23818  Biso   1.000  H
  C1067    1.0000 0.47280  0.81390  0.33339  Biso   1.000  C
  C1068    1.0000 0.47274  0.81390  0.33339  Biso   1.000  C
  H1086    1.0000 0.80057  0.05530  0.32216  Biso   1.000  H
  H1087    1.0000 0.80052  0.05530  0.32221  Biso   1.000  H
  C1069    1.0000 0.76677  0.78540  0.07077  Biso   1.000  C
  H1088    1.0000 0.46239  0.81322  0.67138  Biso   1.000  H
  C1070    1.0000 0.42844  0.75578  0.59056  Biso   1.000  C
  H1089    1.0000 0.46233  0.81322  0.67138  Biso   1.000  H
  C1071    1.0000 0.42845  0.75578  0.59061  Biso   1.000  C
  C1072    1.0000 0.51907  0.66618  0.58229  Biso   1.000  C
  H1090    1.0000 0.61345  0.66351  0.65759  Biso   1.000  H
  C1073    1.0000 0.28684  0.88852  0.72889  Biso   1.000  C
  H1091    1.0000 0.38323  0.85179  0.78970  Biso   1.000  H
  H1092    1.0000 0.35858  0.04509  0.80770  Biso   1.000  H
  C1074    1.0000 0.27208  0.00438  0.73967  Biso   1.000  C
  H1093    1.0000 0.35852  0.04509  0.80770  Biso   1.000  H
  C1075    1.0000 0.27202  0.00438  0.73967  Biso   1.000  C
  O179     1.0000 0.96480  0.87431  0.18589  Biso   1.000  O
  O180     1.0000 0.96474  0.87431  0.18589  Biso   1.000  O
  C1076    1.0000 0.11108  0.07252  0.53489  Biso   1.000  C
  C1077    1.0000 0.03037  0.13002  0.44469  Biso   1.000  C
  C1078    1.0000 0.11102  0.07252  0.53489  Biso   1.000  C
  C1079    1.0000 0.52679  0.86361  0.32497  Biso   1.000  C
  C1080    1.0000 0.49089  0.76978  0.38578  Biso   1.000  C
  C1081    1.0000 0.52673  0.86361  0.32497  Biso   1.000  C
  C1082    1.0000 0.49083  0.76978  0.38578  Biso   1.000  C
  C1083    1.0000 0.83976  0.78321  0.13249  Biso   1.000  C
  H1094    1.0000 0.76728  0.74712  0.04280  Biso   1.000  H
  H1095    1.0000 0.71501  0.78822  0.08666  Biso   1.000  H
  H1096    1.0000 0.71495  0.78822  0.08666  Biso   1.000  H
  H1097    1.0000 0.38208  0.77898  0.57377  Biso   1.000  H
  C1084    1.0000 0.44975  0.70081  0.55717  Biso   1.000  C
  H1098    1.0000 0.38203  0.77898  0.57382  Biso   1.000  H
  H1099    1.0000 0.53327  0.62931  0.55998  Biso   1.000  H
  C1085    1.0000 0.24526  0.94572  0.71009  Biso   1.000  C
  H1100    1.0000 0.26888  0.84931  0.70908  Biso   1.000  H
  H1101    1.0000 0.26882  0.84931  0.70908  Biso   1.000  H
  H1102    1.0000 0.24423  0.04261  0.72708  Biso   1.000  H
  C1086    1.0000 0.90515  0.84581  0.22429  Biso   1.000  C
  H1103    1.0000 0.16014  0.05399  0.55339  Biso   1.000  H
  C1087    1.0000 0.04525  0.07019  0.56948  Biso   1.000  C
  C1088    1.0000 0.96456  0.12758  0.47939  Biso   1.000  C
  H1104    1.0000 0.02546  0.15001  0.40288  Biso   1.000  H
  H1105    1.0000 0.51468  0.89309  0.28997  Biso   1.000  H
  C1089    1.0000 0.59886  0.86911  0.36878  Biso   1.000  C
  H1106    1.0000 0.51462  0.89309  0.28997  Biso   1.000  H
  C1090    1.0000 0.56295  0.77538  0.42955  Biso   1.000  C
  H1107    1.0000 0.45475  0.73661  0.39140  Biso   1.000  H
  C1091    1.0000 0.56296  0.77538  0.42960  Biso   1.000  C
  C1092    1.0000 0.82418  0.83511  0.17746  Biso   1.000  C
  H1108    1.0000 0.84117  0.74148  0.15510  Biso   1.000  H
  H1109    1.0000 0.89127  0.79002  0.11680  Biso   1.000  H
  H1110    1.0000 0.41758  0.68710  0.51806  Biso   1.000  H
  H1111    1.0000 0.41753  0.68710  0.51811  Biso   1.000  H
  H1112    1.0000 0.19936  0.94470  0.67780  Biso   1.000  H
  H1113    1.0000 0.89677  0.87470  0.26069  Biso   1.000  H
  H1114    1.0000 0.92509  0.80451  0.24349  Biso   1.000  H
  H1115    1.0000 0.92503  0.80451  0.24349  Biso   1.000  H
  C1093    1.0000 0.97193  0.09782  0.54176  Biso   1.000  C
  C1094    1.0000 0.97194  0.09782  0.54181  Biso   1.000  C
  H1116    1.0000 0.05015  0.05020  0.61130  Biso   1.000  H
  H1117    1.0000 0.91554  0.14612  0.46079  Biso   1.000  H
  H1118    1.0000 0.63494  0.90228  0.36317  Biso   1.000  H
  C1095    1.0000 0.61694  0.82499  0.42108  Biso   1.000  C
  H1119    1.0000 0.57507  0.74590  0.46460  Biso   1.000  H
  H1120    1.0000 0.57501  0.74590  0.46460  Biso   1.000  H
  H1121    1.0000 0.78187  0.82271  0.20308  Biso   1.000  H
  H1122    1.0000 0.80777  0.87441  0.15259  Biso   1.000  H
  H1123    1.0000 0.92794  0.09621  0.56497  Biso   1.000  H
  H1124    1.0000 0.66513  0.82869  0.45046  Biso   1.000  H
  H1125    1.0000 0.66514  0.82869  0.45051  Biso   1.000  H
  C1096    1.0000 0.17575  0.16489  0.82249  Biso   1.000  C
  C1097    1.0000 0.09478  0.15419  0.77567  Biso   1.000  C
  H1126    1.0000 0.21806  0.17729  0.79687  Biso   1.000  H
  H1127    1.0000 0.19216  0.12559  0.84736  Biso   1.000  H
  C1098    1.0000 0.16017  0.21679  0.86747  Biso   1.000  C
  C1099    1.0000 0.09473  0.15419  0.77572  Biso   1.000  C
  H1128    1.0000 0.21801  0.17729  0.79687  Biso   1.000  H
  H1129    1.0000 0.19211  0.12559  0.84741  Biso   1.000  H
  C1100    1.0000 0.16011  0.21679  0.86747  Biso   1.000  C
  O181     1.0000 0.03513  0.12569  0.81407  Biso   1.000  O
  H1130    1.0000 0.10316  0.12530  0.73927  Biso   1.000  H
  H1131    1.0000 0.07484  0.19549  0.75646  Biso   1.000  H
  H1132    1.0000 0.10311  0.12530  0.73932  Biso   1.000  H
  H1133    1.0000 0.07485  0.19549  0.75651  Biso   1.000  H
  H1134    1.0000 0.15876  0.25852  0.84486  Biso   1.000  H
  H1135    1.0000 0.10866  0.20998  0.88316  Biso   1.000  H
  C1101    1.0000 0.23316  0.21460  0.92919  Biso   1.000  C
  H1136    1.0000 0.15871  0.25852  0.84491  Biso   1.000  H
  H1137    1.0000 0.10861  0.20998  0.88321  Biso   1.000  H
  C1102    1.0000 0.23310  0.21460  0.92919  Biso   1.000  C
  C1103    1.0000 0.96367  0.10808  0.77597  Biso   1.000  C
  C1104    1.0000 0.96361  0.10808  0.77597  Biso   1.000  C
  H1138    1.0000 0.28492  0.21178  0.91329  Biso   1.000  H
  O182     1.0000 0.21722  0.15560  0.96619  Biso   1.000  O
  H1139    1.0000 0.23265  0.25288  0.95716  Biso   1.000  H
  H1140    1.0000 0.23260  0.25288  0.95721  Biso   1.000  H
  C1105    1.0000 0.96157  0.05039  0.73977  Biso   1.000  C
  C1106    1.0000 0.89225  0.14130  0.78058  Biso   1.000  C
  C1107    1.0000 0.96151  0.05039  0.73977  Biso   1.000  C
  C1108    1.0000 0.26692  0.14461  0.02610  Biso   1.000  C
  C1109    1.0000 0.26686  0.14461  0.02610  Biso   1.000  C
  O183     1.0000 0.03405  0.01800  0.73440  Biso   1.000  O
  C1110    1.0000 0.88818  0.02602  0.70828  Biso   1.000  C
  C1111    1.0000 0.88812  0.02602  0.70828  Biso   1.000  C
  C1112    1.0000 0.81886  0.11688  0.74909  Biso   1.000  C
  O184     1.0000 0.89876  0.20040  0.81437  Biso   1.000  O
  O185     1.0000 0.89870  0.20040  0.81437  Biso   1.000  O
  C1113    1.0000 0.25558  0.17992  0.08275  Biso   1.000  C
  C1114    1.0000 0.31527  0.08930  0.03227  Biso   1.000  C
  C1115    1.0000 0.25559  0.17992  0.08280  Biso   1.000  C
  C1116    1.0000 0.05097  0.96371  0.77517  Biso   1.000  C
  C1117    1.0000 0.05092  0.96371  0.77522  Biso   1.000  C
  C1118    1.0000 0.88727  0.96182  0.67008  Biso   1.000  C
  C1119    1.0000 0.88721  0.96182  0.67008  Biso   1.000  C
  C1120    1.0000 0.81677  0.05920  0.71300  Biso   1.000  C
  C1121    1.0000 0.81671  0.05920  0.71300  Biso   1.000  C
  C1122    1.0000 0.74026  0.15010  0.76278  Biso   1.000  C
  C1123    1.0000 0.88655  0.19991  0.88156  Biso   1.000  C
  C1124    1.0000 0.88656  0.19991  0.88161  Biso   1.000  C
  O186     1.0000 0.21248  0.23810  0.07318  Biso   1.000  O
  C1125    1.0000 0.29278  0.15988  0.14568  Biso   1.000  C
  O187     1.0000 0.32473  0.05579  0.97376  Biso   1.000  O
  O188     1.0000 0.32474  0.05579  0.97381  Biso   1.000  O
  C1126    1.0000 0.35249  0.06931  0.09529  Biso   1.000  C
  O189     1.0000 0.02986  0.90491  0.74408  Biso   1.000  O
  H1141    1.0000 0.02254  0.96799  0.81357  Biso   1.000  H
  H1142    1.0000 0.10844  0.96308  0.79186  Biso   1.000  H
  H1143    1.0000 0.10845  0.96308  0.79191  Biso   1.000  H
  C1127    1.0000 0.88305  0.90700  0.71876  Biso   1.000  C
  H1144    1.0000 0.93917  0.95812  0.65328  Biso   1.000  H
  C1128    1.0000 0.81926  0.96011  0.60776  Biso   1.000  C
  C1129    1.0000 0.88306  0.90700  0.71881  Biso   1.000  C
  H1145    1.0000 0.93911  0.95812  0.65328  Biso   1.000  H
  C1130    1.0000 0.81927  0.96011  0.60781  Biso   1.000  C
  H1146    1.0000 0.76766  0.04290  0.69189  Biso   1.000  H
  C1131    1.0000 0.72047  0.12690  0.83006  Biso   1.000  C
  H1147    1.0000 0.75334  0.19641  0.76870  Biso   1.000  H
  C1132    1.0000 0.67065  0.14680  0.70427  Biso   1.000  C
  C1133    1.0000 0.72042  0.12690  0.83011  Biso   1.000  C
  H1148    1.0000 0.92101  0.23250  0.90607  Biso   1.000  H
  H1149    1.0000 0.90222  0.15779  0.90096  Biso   1.000  H
  O190     1.0000 0.80722  0.21222  0.88878  Biso   1.000  O
  H1150    1.0000 0.90222  0.15779  0.90101  Biso   1.000  H
  C1134    1.0000 0.13009  0.23659  0.08235  Biso   1.000  C
  C1135    1.0000 0.13010  0.23659  0.08240  Biso   1.000  C
  C1136    1.0000 0.26936  0.19500  0.20709  Biso   1.000  C
  C1137    1.0000 0.34116  0.10458  0.15199  Biso   1.000  C
  C1138    1.0000 0.27854  0.00049  0.95857  Biso   1.000  C
  C1139    1.0000 0.40111  0.00618  0.09890  Biso   1.000  C
  C1140    1.0000 0.40105  0.00618  0.09890  Biso   1.000  C
  C1141    1.0000 0.95485  0.88331  0.75406  Biso   1.000  C
  C1142    1.0000 0.95486  0.88331  0.75411  Biso   1.000  C
  C1143    1.0000 0.80949  0.88098  0.72979  Biso   1.000  C
  C1144    1.0000 0.80943  0.88098  0.72979  Biso   1.000  C
  H1151    1.0000 0.82345  0.99859  0.58068  Biso   1.000  H
  H1152    1.0000 0.76688  0.96089  0.62290  Biso   1.000  H
  C1145    1.0000 0.82560  0.89858  0.56429  Biso   1.000  C
  H1153    1.0000 0.76682  0.96089  0.62290  Biso   1.000  H
  C1146    1.0000 0.82554  0.89858  0.56429  Biso   1.000  C
  C1147    1.0000 0.66877  0.07442  0.83327  Biso   1.000  C
  C1148    1.0000 0.75873  0.15550  0.88888  Biso   1.000  C
  C1149    1.0000 0.66871  0.07442  0.83327  Biso   1.000  C
  H1154    1.0000 0.68974  0.15988  0.66316  Biso   1.000  H
  H1155    1.0000 0.65107  0.10239  0.69876  Biso   1.000  H
  C1150    1.0000 0.60145  0.19189  0.71796  Biso   1.000  C
  H1156    1.0000 0.68975  0.15988  0.66321  Biso   1.000  H
  H1157    1.0000 0.65102  0.10239  0.69881  Biso   1.000  H
  C1151    1.0000 0.60146  0.19189  0.71801  Biso   1.000  C
  H1158    1.0000 0.10068  0.26908  0.05367  Biso   1.000  H
  H1159    1.0000 0.10759  0.19442  0.06857  Biso   1.000  H
  O191     1.0000 0.11880  0.24821  0.14838  Biso   1.000  O
  O192     1.0000 0.11874  0.24821  0.14838  Biso   1.000  O
  C1152    1.0000 0.19237  0.16869  0.22369  Biso   1.000  C
  H1160    1.0000 0.25855  0.24028  0.19346  Biso   1.000  H
  C1153    1.0000 0.33618  0.19709  0.26906  Biso   1.000  C
  H1161    1.0000 0.25856  0.24028  0.19351  Biso   1.000  H
  C1154    1.0000 0.33612  0.19709  0.26906  Biso   1.000  C
  H1162    1.0000 0.36596  0.09120  0.19406  Biso   1.000  H
  H1163    1.0000 0.36597  0.09120  0.19411  Biso   1.000  H
  O193     1.0000 0.31831  0.94309  0.98198  Biso   1.000  O
  H1164    1.0000 0.26353  0.99762  0.91038  Biso   1.000  H
  H1165    1.0000 0.22905  0.00438  0.97817  Biso   1.000  H
  H1166    1.0000 0.22899  0.00438  0.97817  Biso   1.000  H
  C1155    1.0000 0.34450  0.94951  0.10476  Biso   1.000  C
  C1156    1.0000 0.34444  0.94951  0.10476  Biso   1.000  C
  H1167    1.0000 0.42097  0.00141  0.05578  Biso   1.000  H
  C1157    1.0000 0.47590  0.00589  0.15400  Biso   1.000  C
  C1158    1.0000 0.47584  0.00589  0.15400  Biso   1.000  C
  C1159    1.0000 0.95294  0.83360  0.80058  Biso   1.000  C
  H1168    1.0000 0.76149  0.89688  0.70618  Biso   1.000  H
  C1160    1.0000 0.80756  0.83131  0.77627  Biso   1.000  C
  H1169    1.0000 0.76143  0.89688  0.70618  Biso   1.000  H
  C1161    1.0000 0.80750  0.83131  0.77627  Biso   1.000  C
  H1170    1.0000 0.77665  0.89508  0.53200  Biso   1.000  H
  H1171    1.0000 0.82829  0.86069  0.59307  Biso   1.000  H
  C1162    1.0000 0.89626  0.89761  0.52759  Biso   1.000  C
  H1172    1.0000 0.82824  0.86069  0.59312  Biso   1.000  H
  H1173    1.0000 0.64314  0.05540  0.79397  Biso   1.000  H
  C1163    1.0000 0.65543  0.05049  0.89519  Biso   1.000  C
  H1174    1.0000 0.64315  0.05540  0.79402  Biso   1.000  H
  C1164    1.0000 0.74543  0.13152  0.95069  Biso   1.000  C
  H1175    1.0000 0.62037  0.23649  0.71906  Biso   1.000  H
  H1176    1.0000 0.58745  0.18182  0.76178  Biso   1.000  H
  C1165    1.0000 0.52713  0.18610  0.66657  Biso   1.000  C
  H1177    1.0000 0.62032  0.23649  0.71911  Biso   1.000  H
  C1166    1.0000 0.12061  0.19242  0.18829  Biso   1.000  C
  C1167    1.0000 0.12055  0.19242  0.18829  Biso   1.000  C
  C1168    1.0000 0.19044  0.11902  0.27017  Biso   1.000  C
  H1178    1.0000 0.31346  0.21528  0.30656  Biso   1.000  H
  H1179    1.0000 0.35319  0.15302  0.28089  Biso   1.000  H
  C1169    1.0000 0.40315  0.23309  0.25959  Biso   1.000  C
  H1180    1.0000 0.35313  0.15302  0.28089  Biso   1.000  H
  C1170    1.0000 0.30620  0.92101  0.04605  Biso   1.000  C
  C1171    1.0000 0.30614  0.92101  0.04610  Biso   1.000  C
  C1172    1.0000 0.33116  0.92558  0.16668  Biso   1.000  C
  H1181    1.0000 0.49636  0.96182  0.15966  Biso   1.000  H
  H1182    1.0000 0.45930  0.01931  0.19596  Biso   1.000  H
  C1173    1.0000 0.54259  0.04942  0.13926  Biso   1.000  C
  H1183    1.0000 0.45924  0.01931  0.19596  Biso   1.000  H
  C1174    1.0000 0.54254  0.04942  0.13931  Biso   1.000  C
  C1175    1.0000 0.87932  0.80758  0.81166  Biso   1.000  C
  C1176    1.0000 0.87933  0.80758  0.81171  Biso   1.000  C
  O194     1.0000 0.02187  0.81740  0.84460  Biso   1.000  O
  O195     1.0000 0.02181  0.81740  0.84460  Biso   1.000  O
  C1177    1.0000 0.73057  0.80500  0.79286  Biso   1.000  C
  C1178    1.0000 0.73052  0.80500  0.79291  Biso   1.000  C
  C1179    1.0000 0.88885  0.92748  0.46507  Biso   1.000  C
  C1180    1.0000 0.96956  0.86998  0.55527  Biso   1.000  C
  C1181    1.0000 0.88886  0.92748  0.46512  Biso   1.000  C
  C1182    1.0000 0.96957  0.86998  0.55532  Biso   1.000  C
  C1183    1.0000 0.59882  0.99382  0.90106  Biso   1.000  C
  C1184    1.0000 0.59883  0.99382  0.90111  Biso   1.000  C
  C1185    1.0000 0.69373  0.07899  0.95390  Biso   1.000  C
  O196     1.0000 0.79019  0.15521  0.01036  Biso   1.000  O
  O197     1.0000 0.79020  0.15521  0.01041  Biso   1.000  O
  C1186    1.0000 0.47314  0.13639  0.67499  Biso   1.000  C
  C1187    1.0000 0.50904  0.23022  0.61418  Biso   1.000  C
  C1188    1.0000 0.04699  0.16640  0.19937  Biso   1.000  C
  C1189    1.0000 0.04693  0.16640  0.19937  Biso   1.000  C
  H1184    1.0000 0.23844  0.10312  0.29378  Biso   1.000  H
  C1190    1.0000 0.11688  0.09300  0.28120  Biso   1.000  C
  H1185    1.0000 0.38554  0.27020  0.23136  Biso   1.000  H
  H1186    1.0000 0.43765  0.20658  0.23577  Biso   1.000  H
  C1191    1.0000 0.45405  0.25828  0.32587  Biso   1.000  C
  H1187    1.0000 0.38555  0.27020  0.23141  Biso   1.000  H
  C1192    1.0000 0.25450  0.86848  0.04926  Biso   1.000  C
  C1193    1.0000 0.25445  0.86848  0.04931  Biso   1.000  C
  C1194    1.0000 0.27946  0.87310  0.16989  Biso   1.000  C
  H1188    1.0000 0.35679  0.94460  0.20599  Biso   1.000  H
  H1189    1.0000 0.52150  0.09320  0.13269  Biso   1.000  H
  H1190    1.0000 0.55927  0.03551  0.09739  Biso   1.000  H
  C1195    1.0000 0.61767  0.05132  0.19326  Biso   1.000  C
  H1191    1.0000 0.52144  0.09320  0.13269  Biso   1.000  H
  C1196    1.0000 0.61768  0.05132  0.19331  Biso   1.000  C
  O198     1.0000 0.88113  0.75179  0.85157  Biso   1.000  O
  C1197    1.0000 0.05922  0.75728  0.83608  Biso   1.000  C
  C1198    1.0000 0.08522  0.79581  0.81121  Biso   1.000  C
  C1199    1.0000 0.70715  0.84012  0.85428  Biso   1.000  C
  H1192    1.0000 0.74138  0.75972  0.80650  Biso   1.000  H
  C1200    1.0000 0.66375  0.80291  0.73089  Biso   1.000  C
  H1193    1.0000 0.74132  0.75972  0.80650  Biso   1.000  H
  H1194    1.0000 0.83979  0.94601  0.44657  Biso   1.000  H
  C1201    1.0000 0.95468  0.92981  0.43047  Biso   1.000  C
  H1195    1.0000 0.83974  0.94601  0.44662  Biso   1.000  H
  H1196    1.0000 0.97447  0.84999  0.59708  Biso   1.000  H
  C1202    1.0000 0.03537  0.87242  0.52057  Biso   1.000  C
  C1203    1.0000 0.64744  0.93069  0.90467  Biso   1.000  C
  H1197    1.0000 0.57896  0.99859  0.94418  Biso   1.000  H
  C1204    1.0000 0.52403  0.99411  0.84596  Biso   1.000  C
  H1198    1.0000 0.57890  0.99859  0.94418  Biso   1.000  H
  C1205    1.0000 0.52403  0.99411  0.84601  Biso   1.000  C
  O199     1.0000 0.68162  0.05691  0.01798  Biso   1.000  O
  O200     1.0000 0.68156  0.05691  0.01798  Biso   1.000  O
  C1206    1.0000 0.74420  0.18342  0.05658  Biso   1.000  C
  C1207    1.0000 0.74414  0.18342  0.05658  Biso   1.000  C
  C1208    1.0000 0.77022  0.21971  0.02580  Biso   1.000  C
  H1199    1.0000 0.48525  0.10691  0.70999  Biso   1.000  H
  C1209    1.0000 0.40107  0.13089  0.63117  Biso   1.000  C
  C1210    1.0000 0.40101  0.13089  0.63117  Biso   1.000  C
  C1211    1.0000 0.43698  0.22462  0.57041  Biso   1.000  C
  H1200    1.0000 0.54518  0.26339  0.60856  Biso   1.000  H
  H1201    1.0000 0.54513  0.26339  0.60861  Biso   1.000  H
  O201     1.0000 0.97806  0.18260  0.15535  Biso   1.000  O
  O202     1.0000 0.97807  0.18260  0.15540  Biso   1.000  O
  C1212    1.0000 0.04508  0.11669  0.24590  Biso   1.000  C
  C1213    1.0000 0.11266  0.03818  0.32988  Biso   1.000  C
  C1214    1.0000 0.52337  0.22370  0.35099  Biso   1.000  C
  C1215    1.0000 0.43278  0.31339  0.35916  Biso   1.000  C
  C1216    1.0000 0.43273  0.31339  0.35921  Biso   1.000  C
  O203     1.0000 0.20974  0.84479  0.98960  Biso   1.000  O
  C1217    1.0000 0.24120  0.84450  0.11108  Biso   1.000  C
  C1218    1.0000 0.24114  0.84450  0.11108  Biso   1.000  C
  C1219    1.0000 0.25967  0.84990  0.23718  Biso   1.000  C
  C1220    1.0000 0.65929  0.99421  0.21196  Biso   1.000  C
  C1221    1.0000 0.65924  0.99421  0.21201  Biso   1.000  C
  C1222    1.0000 0.64460  0.10998  0.22279  Biso   1.000  C
  C1223    1.0000 0.64454  0.10998  0.22279  Biso   1.000  C
  C1224    1.0000 0.86984  0.76341  0.91760  Biso   1.000  C
  C1225    1.0000 0.12894  0.75072  0.89188  Biso   1.000  C
  H1202    1.0000 0.02115  0.72202  0.83789  Biso   1.000  H
  H1203    1.0000 0.07843  0.75592  0.79296  Biso   1.000  H
  H1204    1.0000 0.07844  0.75592  0.79301  Biso   1.000  H
  H1205    1.0000 0.07162  0.75320  0.79201  Biso   1.000  H
  H1206    1.0000 0.09084  0.82538  0.77471  Biso   1.000  H
  C1226    1.0000 0.16455  0.79162  0.85719  Biso   1.000  C
  C1227    1.0000 0.65877  0.89542  0.84796  Biso   1.000  C
  C1228    1.0000 0.74435  0.82008  0.91720  Biso   1.000  C
  C1229    1.0000 0.65872  0.89542  0.84801  Biso   1.000  C
  H1207    1.0000 0.68647  0.78472  0.69339  Biso   1.000  H
  H1208    1.0000 0.64674  0.84698  0.71906  Biso   1.000  H
  C1230    1.0000 0.59678  0.76691  0.74037  Biso   1.000  C
  H1209    1.0000 0.68641  0.78472  0.69339  Biso   1.000  H
  H1210    1.0000 0.64675  0.84698  0.71911  Biso   1.000  H
  C1231    1.0000 0.59672  0.76691  0.74037  Biso   1.000  C
  H1211    1.0000 0.94978  0.94980  0.38866  Biso   1.000  H
  H1212    1.0000 0.94979  0.94980  0.38871  Biso   1.000  H
  C1232    1.0000 0.02800  0.90218  0.45820  Biso   1.000  C
  C1233    1.0000 0.02794  0.90218  0.45820  Biso   1.000  C
  H1213    1.0000 0.08439  0.85388  0.53917  Biso   1.000  H
  H1214    1.0000 0.08433  0.85388  0.53917  Biso   1.000  H
  C1234    1.0000 0.68466  0.91070  0.96769  Biso   1.000  C
  C1235    1.0000 0.68460  0.91070  0.96769  Biso   1.000  C
  H1215    1.0000 0.54063  0.98069  0.80399  Biso   1.000  H
  C1236    1.0000 0.45734  0.95058  0.86070  Biso   1.000  C
  H1216    1.0000 0.50358  0.03818  0.84029  Biso   1.000  H
  H1217    1.0000 0.50352  0.03818  0.84029  Biso   1.000  H
  C1237    1.0000 0.72139  0.99951  0.04139  Biso   1.000  C
  C1238    1.0000 0.80258  0.20478  0.11620  Biso   1.000  C
  H1218    1.0000 0.70650  0.15190  0.06987  Biso   1.000  H
  H1219    1.0000 0.71378  0.22039  0.03628  Biso   1.000  H
  H1220    1.0000 0.70644  0.15190  0.06987  Biso   1.000  H
  H1221    1.0000 0.71839  0.22058  0.04199  Biso   1.000  H
  H1222    1.0000 0.76634  0.24670  0.98599  Biso   1.000  H
  C1239    1.0000 0.83549  0.24461  0.07879  Biso   1.000  C
  H1223    1.0000 0.36499  0.09772  0.63679  Biso   1.000  H
  C1240    1.0000 0.38300  0.17501  0.57888  Biso   1.000  C
  H1224    1.0000 0.36493  0.09772  0.63679  Biso   1.000  H
  C1241    1.0000 0.38294  0.17501  0.57888  Biso   1.000  C
  H1225    1.0000 0.42486  0.25410  0.53536  Biso   1.000  H
  H1226    1.0000 0.42487  0.25410  0.53541  Biso   1.000  H
  C1242    1.0000 0.94071  0.24272  0.16388  Biso   1.000  C
  C1243    1.0000 0.94065  0.24272  0.16388  Biso   1.000  C
  C1244    1.0000 0.91466  0.20419  0.18879  Biso   1.000  C
  O204     1.0000 0.97007  0.09509  0.25588  Biso   1.000  O
  C1245    1.0000 0.11175  0.97398  0.29167  Biso   1.000  C
  H1227    1.0000 0.06076  0.04188  0.34667  Biso   1.000  H
  C1246    1.0000 0.18067  0.03989  0.39220  Biso   1.000  C
  C1247    1.0000 0.18061  0.03989  0.39220  Biso   1.000  C
  H1228    1.0000 0.53755  0.18678  0.32858  Biso   1.000  H
  C1248    1.0000 0.57149  0.24422  0.40940  Biso   1.000  C
  C1249    1.0000 0.57143  0.24422  0.40940  Biso   1.000  C
  C1250    1.0000 0.48086  0.33382  0.41767  Biso   1.000  C
  H1229    1.0000 0.38648  0.33649  0.34236  Biso   1.000  H
  H1230    1.0000 0.38642  0.33649  0.34236  Biso   1.000  H
  C1251    1.0000 0.25573  0.81658  0.94337  Biso   1.000  C
  C1252    1.0000 0.22972  0.78029  0.97421  Biso   1.000  C
  O205     1.0000 0.19271  0.78778  0.11118  Biso   1.000  O
  O206     1.0000 0.19266  0.78778  0.11118  Biso   1.000  O
  C1253    1.0000 0.18107  0.88312  0.25086  Biso   1.000  C
  H1231    1.0000 0.24659  0.80359  0.23126  Biso   1.000  H
  C1254    1.0000 0.32928  0.85320  0.29569  Biso   1.000  C
  H1232    1.0000 0.24654  0.80359  0.23131  Biso   1.000  H
  H1233    1.0000 0.64135  0.95491  0.19225  Biso   1.000  H
  C1255    1.0000 0.72785  0.99562  0.26029  Biso   1.000  C
  H1234    1.0000 0.64136  0.95491  0.19230  Biso   1.000  H
  C1256    1.0000 0.71309  0.11148  0.27107  Biso   1.000  C
  H1235    1.0000 0.61670  0.14821  0.21025  Biso   1.000  H
  C1257    1.0000 0.71303  0.11148  0.27107  Biso   1.000  C
  H1236    1.0000 0.61665  0.14821  0.21030  Biso   1.000  H
  O207     1.0000 0.78745  0.76190  0.92678  Biso   1.000  O
  H1237    1.0000 0.89925  0.73092  0.94628  Biso   1.000  H
  H1238    1.0000 0.89234  0.80558  0.93139  Biso   1.000  H
  O208     1.0000 0.78739  0.76190  0.92678  Biso   1.000  O
  H1239    1.0000 0.89919  0.73092  0.94628  Biso   1.000  H
  C1258    1.0000 0.19735  0.79522  0.88376  Biso   1.000  C
  H1240    1.0000 0.14825  0.70611  0.89349  Biso   1.000  H
  H1241    1.0000 0.11025  0.76001  0.93420  Biso   1.000  H
  C1259    1.0000 0.19736  0.79522  0.88381  Biso   1.000  C
  H1242    1.0000 0.11224  0.76049  0.93630  Biso   1.000  H
  H1243    1.0000 0.17283  0.70952  0.91389  Biso   1.000  H
  H1244    1.0000 0.22863  0.77450  0.85298  Biso   1.000  H
  H1245    1.0000 0.17405  0.83428  0.86180  Biso   1.000  H
  H1246    1.0000 0.18310  0.83560  0.86797  Biso   1.000  H
  H1247    1.0000 0.20361  0.77129  0.83277  Biso   1.000  H
  C1260    1.0000 0.16445  0.75539  0.92121  Biso   1.000  C
  H1248    1.0000 0.63397  0.90880  0.80590  Biso   1.000  H
  H1249    1.0000 0.63391  0.90880  0.80590  Biso   1.000  H
  C1261    1.0000 0.73301  0.85539  0.97386  Biso   1.000  C
  C1262    1.0000 0.73302  0.85539  0.97391  Biso   1.000  C
  H1250    1.0000 0.61439  0.72980  0.76860  Biso   1.000  H
  H1251    1.0000 0.56228  0.79342  0.76419  Biso   1.000  H
  C1263    1.0000 0.54588  0.74172  0.67409  Biso   1.000  C
  H1252    1.0000 0.61433  0.72980  0.76860  Biso   1.000  H
  H1253    1.0000 0.56222  0.79342  0.76419  Biso   1.000  H
  C1264    1.0000 0.54582  0.74172  0.67409  Biso   1.000  C
  H1254    1.0000 0.07199  0.90379  0.43499  Biso   1.000  H
  H1255    1.0000 0.07193  0.90379  0.43499  Biso   1.000  H
  O209     1.0000 0.67520  0.94421  0.02620  Biso   1.000  O
  H1256    1.0000 0.47843  0.90680  0.86727  Biso   1.000  H
  H1257    1.0000 0.44066  0.96449  0.90256  Biso   1.000  H
  C1265    1.0000 0.38226  0.94868  0.80670  Biso   1.000  C
  H1258    1.0000 0.44061  0.96449  0.90261  Biso   1.000  H
  H1259    1.0000 0.77088  0.99562  0.02179  Biso   1.000  H
  H1260    1.0000 0.73640  0.00238  0.08957  Biso   1.000  H
  H1261    1.0000 0.73634  0.00238  0.08957  Biso   1.000  H
  C1266    1.0000 0.87099  0.24928  0.10807  Biso   1.000  C
  H1262    1.0000 0.77130  0.22550  0.14698  Biso   1.000  H
  H1263    1.0000 0.82588  0.16572  0.13816  Biso   1.000  H
  H1264    1.0000 0.77124  0.22550  0.14698  Biso   1.000  H
  H1265    1.0000 0.82589  0.16572  0.13821  Biso   1.000  H
  H1266    1.0000 0.81677  0.16440  0.13199  Biso   1.000  H
  H1267    1.0000 0.79626  0.22871  0.16718  Biso   1.000  H
  H1268    1.0000 0.85168  0.29389  0.10647  Biso   1.000  H
  H1269    1.0000 0.88968  0.23999  0.06576  Biso   1.000  H
  H1270    1.0000 0.88969  0.23999  0.06581  Biso   1.000  H
  C1267    1.0000 0.83538  0.20838  0.14277  Biso   1.000  C
  H1271    1.0000 0.88770  0.23951  0.06370  Biso   1.000  H
  H1272    1.0000 0.82710  0.29048  0.08606  Biso   1.000  H
  H1273    1.0000 0.33480  0.17131  0.54950  Biso   1.000  H
  H1274    1.0000 0.33474  0.17131  0.54950  Biso   1.000  H
  H1275    1.0000 0.97878  0.27798  0.16207  Biso   1.000  H
  H1276    1.0000 0.92150  0.24408  0.20699  Biso   1.000  H
  H1277    1.0000 0.92144  0.24408  0.20699  Biso   1.000  H
  H1278    1.0000 0.92826  0.24680  0.20800  Biso   1.000  H
  H1279    1.0000 0.90910  0.17462  0.22529  Biso   1.000  H
  C1268    1.0000 0.94896  0.03629  0.22479  Biso   1.000  C
  C1269    1.0000 0.18316  0.94080  0.28696  Biso   1.000  C
  C1270    1.0000 0.03836  0.94961  0.26019  Biso   1.000  C
  C1271    1.0000 0.18317  0.94080  0.28701  Biso   1.000  C
  H1280    1.0000 0.17648  0.00141  0.41927  Biso   1.000  H
  H1281    1.0000 0.23305  0.03911  0.37706  Biso   1.000  H
  C1272    1.0000 0.17433  0.10142  0.43567  Biso   1.000  C
  H1282    1.0000 0.17642  0.00141  0.41927  Biso   1.000  H
  H1283    1.0000 0.23306  0.03911  0.37711  Biso   1.000  H
  H1284    1.0000 0.61785  0.22102  0.42619  Biso   1.000  H
  C1273    1.0000 0.55018  0.29919  0.44279  Biso   1.000  C
  C1274    1.0000 0.55012  0.29919  0.44279  Biso   1.000  C
  H1285    1.0000 0.46666  0.37069  0.43998  Biso   1.000  H
  H1286    1.0000 0.29343  0.84810  0.93009  Biso   1.000  H
  H1287    1.0000 0.28615  0.77961  0.96368  Biso   1.000  H
  H1288    1.0000 0.28609  0.77961  0.96368  Biso   1.000  H
  H1289    1.0000 0.28155  0.77942  0.95801  Biso   1.000  H
  H1290    1.0000 0.23360  0.75330  0.01397  Biso   1.000  H
  C1275    1.0000 0.11338  0.80009  0.11840  Biso   1.000  C
  C1276    1.0000 0.10768  0.85870  0.21938  Biso   1.000  C
  H1291    1.0000 0.31019  0.84012  0.33680  Biso   1.000  H
  H1292    1.0000 0.34886  0.89761  0.30120  Biso   1.000  H
  C1277    1.0000 0.39848  0.80811  0.28200  Biso   1.000  C
  H1293    1.0000 0.31013  0.84012  0.33680  Biso   1.000  H
  H1294    1.0000 0.75570  0.95739  0.27287  Biso   1.000  H
  H1295    1.0000 0.75564  0.95739  0.27287  Biso   1.000  H
  C1278    1.0000 0.75467  0.05428  0.28987  Biso   1.000  C
  H1296    1.0000 0.73105  0.15069  0.29087  Biso   1.000  H
  O210     1.0000 0.78271  0.84440  0.03377  Biso   1.000  O
  O211     1.0000 0.78265  0.84440  0.03377  Biso   1.000  O
  C1279    1.0000 0.47656  0.77630  0.64897  Biso   1.000  C
  C1280    1.0000 0.56715  0.68661  0.64080  Biso   1.000  C
  C1281    1.0000 0.35533  0.89002  0.77717  Biso   1.000  C
  C1282    1.0000 0.34064  0.00579  0.78800  Biso   1.000  C
  O212     1.0000 0.96588  0.98200  0.26555  Biso   1.000  O
  O213     1.0000 0.96583  0.98200  0.26560  Biso   1.000  O
  H1297    1.0000 0.97739  0.03201  0.18639  Biso   1.000  H
  H1298    1.0000 0.89149  0.03692  0.20810  Biso   1.000  H
  H1299    1.0000 0.89143  0.03692  0.20810  Biso   1.000  H
  H1300    1.0000 0.23227  0.95710  0.30807  Biso   1.000  H
  C1283    1.0000 0.03626  0.89192  0.22399  Biso   1.000  C
  H1301    1.0000 0.22328  0.10492  0.46796  Biso   1.000  H
  H1302    1.0000 0.17164  0.13931  0.40689  Biso   1.000  H
  C1284    1.0000 0.10367  0.10239  0.47237  Biso   1.000  C
  H1303    1.0000 0.22323  0.10492  0.46801  Biso   1.000  H
  C1285    1.0000 0.10361  0.10239  0.47237  Biso   1.000  C
  H1304    1.0000 0.58235  0.31290  0.48189  Biso   1.000  H
  O214     1.0000 0.10117  0.79960  0.18558  Biso   1.000  O
  H1305    1.0000 0.07892  0.76750  0.09388  Biso   1.000  H
  H1306    1.0000 0.09771  0.84221  0.09900  Biso   1.000  H
  H1307    1.0000 0.07886  0.76750  0.09388  Biso   1.000  H
  H1308    1.0000 0.09765  0.84221  0.09900  Biso   1.000  H
  H1309    1.0000 0.37956  0.76351  0.28089  Biso   1.000  H
  H1310    1.0000 0.41248  0.81818  0.23818  Biso   1.000  H
  C1286    1.0000 0.47280  0.81390  0.33339  Biso   1.000  C
  C1287    1.0000 0.47274  0.81390  0.33339  Biso   1.000  C
  H1311    1.0000 0.80057  0.05530  0.32216  Biso   1.000  H
  H1312    1.0000 0.80052  0.05530  0.32221  Biso   1.000  H
  C1288    1.0000 0.76677  0.78540  0.07077  Biso   1.000  C
  H1313    1.0000 0.46239  0.81322  0.67138  Biso   1.000  H
  C1289    1.0000 0.42844  0.75578  0.59056  Biso   1.000  C
  H1314    1.0000 0.46233  0.81322  0.67138  Biso   1.000  H
  C1290    1.0000 0.42845  0.75578  0.59061  Biso   1.000  C
  C1291    1.0000 0.51907  0.66618  0.58229  Biso   1.000  C
  H1315    1.0000 0.61345  0.66351  0.65759  Biso   1.000  H
  C1292    1.0000 0.28684  0.88852  0.72889  Biso   1.000  C
  H1316    1.0000 0.38323  0.85179  0.78970  Biso   1.000  H
  H1317    1.0000 0.35858  0.04509  0.80770  Biso   1.000  H
  C1293    1.0000 0.27208  0.00438  0.73967  Biso   1.000  C
  H1318    1.0000 0.35852  0.04509  0.80770  Biso   1.000  H
  C1294    1.0000 0.27202  0.00438  0.73967  Biso   1.000  C
  O215     1.0000 0.96480  0.87431  0.18589  Biso   1.000  O
  O216     1.0000 0.96474  0.87431  0.18589  Biso   1.000  O
  C1295    1.0000 0.11108  0.07252  0.53489  Biso   1.000  C
  C1296    1.0000 0.03037  0.13002  0.44469  Biso   1.000  C
  C1297    1.0000 0.11102  0.07252  0.53489  Biso   1.000  C
  C1298    1.0000 0.52679  0.86361  0.32497  Biso   1.000  C
  C1299    1.0000 0.49089  0.76978  0.38578  Biso   1.000  C
  C1300    1.0000 0.52673  0.86361  0.32497  Biso   1.000  C
  C1301    1.0000 0.49083  0.76978  0.38578  Biso   1.000  C
  C1302    1.0000 0.83976  0.78321  0.13249  Biso   1.000  C
  H1319    1.0000 0.76728  0.74712  0.04280  Biso   1.000  H
  H1320    1.0000 0.71501  0.78822  0.08666  Biso   1.000  H
  H1321    1.0000 0.71495  0.78822  0.08666  Biso   1.000  H
  H1322    1.0000 0.38208  0.77898  0.57377  Biso   1.000  H
  C1303    1.0000 0.44975  0.70081  0.55717  Biso   1.000  C
  H1323    1.0000 0.38203  0.77898  0.57382  Biso   1.000  H
  H1324    1.0000 0.53327  0.62931  0.55998  Biso   1.000  H
  C1304    1.0000 0.24526  0.94572  0.71009  Biso   1.000  C
  H1325    1.0000 0.26888  0.84931  0.70908  Biso   1.000  H
  H1326    1.0000 0.26882  0.84931  0.70908  Biso   1.000  H
  H1327    1.0000 0.24423  0.04261  0.72708  Biso   1.000  H
  C1305    1.0000 0.90515  0.84581  0.22429  Biso   1.000  C
  H1328    1.0000 0.16014  0.05399  0.55339  Biso   1.000  H
  C1306    1.0000 0.04525  0.07019  0.56948  Biso   1.000  C
  C1307    1.0000 0.96456  0.12758  0.47939  Biso   1.000  C
  H1329    1.0000 0.02546  0.15001  0.40288  Biso   1.000  H
  H1330    1.0000 0.51468  0.89309  0.28997  Biso   1.000  H
  C1308    1.0000 0.59886  0.86911  0.36878  Biso   1.000  C
  H1331    1.0000 0.51462  0.89309  0.28997  Biso   1.000  H
  C1309    1.0000 0.56295  0.77538  0.42955  Biso   1.000  C
  H1332    1.0000 0.45475  0.73661  0.39140  Biso   1.000  H
  C1310    1.0000 0.56296  0.77538  0.42960  Biso   1.000  C
  C1311    1.0000 0.82418  0.83511  0.17746  Biso   1.000  C
  H1333    1.0000 0.84117  0.74148  0.15510  Biso   1.000  H
  H1334    1.0000 0.89127  0.79002  0.11680  Biso   1.000  H
  H1335    1.0000 0.41758  0.68710  0.51806  Biso   1.000  H
  H1336    1.0000 0.41753  0.68710  0.51811  Biso   1.000  H
  H1337    1.0000 0.19936  0.94470  0.67780  Biso   1.000  H
  H1338    1.0000 0.89677  0.87470  0.26069  Biso   1.000  H
  H1339    1.0000 0.92509  0.80451  0.24349  Biso   1.000  H
  H1340    1.0000 0.92503  0.80451  0.24349  Biso   1.000  H
  C1312    1.0000 0.97193  0.09782  0.54176  Biso   1.000  C
  C1313    1.0000 0.97194  0.09782  0.54181  Biso   1.000  C
  H1341    1.0000 0.05015  0.05020  0.61130  Biso   1.000  H
  H1342    1.0000 0.91554  0.14612  0.46079  Biso   1.000  H
  H1343    1.0000 0.63494  0.90228  0.36317  Biso   1.000  H
  C1314    1.0000 0.61694  0.82499  0.42108  Biso   1.000  C
  H1344    1.0000 0.57507  0.74590  0.46460  Biso   1.000  H
  H1345    1.0000 0.57501  0.74590  0.46460  Biso   1.000  H
  H1346    1.0000 0.78187  0.82271  0.20308  Biso   1.000  H
  H1347    1.0000 0.80777  0.87441  0.15259  Biso   1.000  H
  H1348    1.0000 0.92794  0.09621  0.56497  Biso   1.000  H
  H1349    1.0000 0.66513  0.82869  0.45046  Biso   1.000  H
  H1350    1.0000 0.66514  0.82869  0.45051  Biso   1.000  H
  C1315    1.0000 0.17575  0.16489  0.82249  Biso   1.000  C
  C1316    1.0000 0.09478  0.15419  0.77567  Biso   1.000  C
  H1351    1.0000 0.21806  0.17729  0.79687  Biso   1.000  H
  H1352    1.0000 0.19216  0.12559  0.84736  Biso   1.000  H
  C1317    1.0000 0.16017  0.21679  0.86747  Biso   1.000  C
  C1318    1.0000 0.09473  0.15419  0.77572  Biso   1.000  C
  H1353    1.0000 0.21801  0.17729  0.79687  Biso   1.000  H
  H1354    1.0000 0.19211  0.12559  0.84741  Biso   1.000  H
  C1319    1.0000 0.16011  0.21679  0.86747  Biso   1.000  C
  O217     1.0000 0.03513  0.12569  0.81407  Biso   1.000  O
  H1355    1.0000 0.10316  0.12530  0.73927  Biso   1.000  H
  H1356    1.0000 0.07484  0.19549  0.75646  Biso   1.000  H
  H1357    1.0000 0.10311  0.12530  0.73932  Biso   1.000  H
  H1358    1.0000 0.07485  0.19549  0.75651  Biso   1.000  H
  H1359    1.0000 0.15876  0.25852  0.84486  Biso   1.000  H
  H1360    1.0000 0.10866  0.20998  0.88316  Biso   1.000  H
  C1320    1.0000 0.23316  0.21460  0.92919  Biso   1.000  C
  H1361    1.0000 0.15871  0.25852  0.84491  Biso   1.000  H
  H1362    1.0000 0.10861  0.20998  0.88321  Biso   1.000  H
  C1321    1.0000 0.23310  0.21460  0.92919  Biso   1.000  C
  C1322    1.0000 0.96367  0.10808  0.77597  Biso   1.000  C
  C1323    1.0000 0.96361  0.10808  0.77597  Biso   1.000  C
  H1363    1.0000 0.28492  0.21178  0.91329  Biso   1.000  H
  O218     1.0000 0.21722  0.15560  0.96619  Biso   1.000  O
  H1364    1.0000 0.23265  0.25288  0.95716  Biso   1.000  H
  H1365    1.0000 0.23260  0.25288  0.95721  Biso   1.000  H
  C1324    1.0000 0.96157  0.05039  0.73977  Biso   1.000  C
  C1325    1.0000 0.89225  0.14130  0.78058  Biso   1.000  C
  C1326    1.0000 0.96151  0.05039  0.73977  Biso   1.000  C
  C1327    1.0000 0.26692  0.14461  0.02610  Biso   1.000  C
  C1328    1.0000 0.26686  0.14461  0.02610  Biso   1.000  C
  O219     1.0000 0.03405  0.01800  0.73440  Biso   1.000  O
  C1329    1.0000 0.88818  0.02602  0.70828  Biso   1.000  C
  C1330    1.0000 0.88812  0.02602  0.70828  Biso   1.000  C
  C1331    1.0000 0.81886  0.11688  0.74909  Biso   1.000  C
  O220     1.0000 0.89876  0.20040  0.81437  Biso   1.000  O
  O221     1.0000 0.89870  0.20040  0.81437  Biso   1.000  O
  C1332    1.0000 0.25558  0.17992  0.08275  Biso   1.000  C
  C1333    1.0000 0.31527  0.08930  0.03227  Biso   1.000  C
  C1334    1.0000 0.25559  0.17992  0.08280  Biso   1.000  C
  C1335    1.0000 0.05097  0.96371  0.77517  Biso   1.000  C
  C1336    1.0000 0.05092  0.96371  0.77522  Biso   1.000  C
  C1337    1.0000 0.88727  0.96182  0.67008  Biso   1.000  C
  C1338    1.0000 0.88721  0.96182  0.67008  Biso   1.000  C
  C1339    1.0000 0.81677  0.05920  0.71300  Biso   1.000  C
  C1340    1.0000 0.81671  0.05920  0.71300  Biso   1.000  C
  C1341    1.0000 0.74026  0.15010  0.76278  Biso   1.000  C
  C1342    1.0000 0.88655  0.19991  0.88156  Biso   1.000  C
  C1343    1.0000 0.88656  0.19991  0.88161  Biso   1.000  C
  O222     1.0000 0.21248  0.23810  0.07318  Biso   1.000  O
  C1344    1.0000 0.29278  0.15988  0.14568  Biso   1.000  C
  O223     1.0000 0.32473  0.05579  0.97376  Biso   1.000  O
  O224     1.0000 0.32474  0.05579  0.97381  Biso   1.000  O
  C1345    1.0000 0.35249  0.06931  0.09529  Biso   1.000  C
  O225     1.0000 0.02986  0.90491  0.74408  Biso   1.000  O
  H1366    1.0000 0.02254  0.96799  0.81357  Biso   1.000  H
  H1367    1.0000 0.10844  0.96308  0.79186  Biso   1.000  H
  H1368    1.0000 0.10845  0.96308  0.79191  Biso   1.000  H
  C1346    1.0000 0.88305  0.90700  0.71876  Biso   1.000  C
  H1369    1.0000 0.93917  0.95812  0.65328  Biso   1.000  H
  C1347    1.0000 0.81926  0.96011  0.60776  Biso   1.000  C
  C1348    1.0000 0.88306  0.90700  0.71881  Biso   1.000  C
  H1370    1.0000 0.93911  0.95812  0.65328  Biso   1.000  H
  C1349    1.0000 0.81927  0.96011  0.60781  Biso   1.000  C
  H1371    1.0000 0.76766  0.04290  0.69189  Biso   1.000  H
  C1350    1.0000 0.72047  0.12690  0.83006  Biso   1.000  C
  H1372    1.0000 0.75334  0.19641  0.76870  Biso   1.000  H
  C1351    1.0000 0.67065  0.14680  0.70427  Biso   1.000  C
  C1352    1.0000 0.72042  0.12690  0.83011  Biso   1.000  C
  H1373    1.0000 0.92101  0.23250  0.90607  Biso   1.000  H
  H1374    1.0000 0.90222  0.15779  0.90096  Biso   1.000  H
  O226     1.0000 0.80722  0.21222  0.88878  Biso   1.000  O
  H1375    1.0000 0.90222  0.15779  0.90101  Biso   1.000  H
  C1353    1.0000 0.13009  0.23659  0.08235  Biso   1.000  C
  C1354    1.0000 0.13010  0.23659  0.08240  Biso   1.000  C
  C1355    1.0000 0.26936  0.19500  0.20709  Biso   1.000  C
  C1356    1.0000 0.34116  0.10458  0.15199  Biso   1.000  C
  C1357    1.0000 0.27854  0.00049  0.95857  Biso   1.000  C
  C1358    1.0000 0.40111  0.00618  0.09890  Biso   1.000  C
  C1359    1.0000 0.40105  0.00618  0.09890  Biso   1.000  C
  C1360    1.0000 0.95485  0.88331  0.75406  Biso   1.000  C
  C1361    1.0000 0.95486  0.88331  0.75411  Biso   1.000  C
  C1362    1.0000 0.80949  0.88098  0.72979  Biso   1.000  C
  C1363    1.0000 0.80943  0.88098  0.72979  Biso   1.000  C
  H1376    1.0000 0.82345  0.99859  0.58068  Biso   1.000  H
  H1377    1.0000 0.76688  0.96089  0.62290  Biso   1.000  H
  C1364    1.0000 0.82560  0.89858  0.56429  Biso   1.000  C
  H1378    1.0000 0.76682  0.96089  0.62290  Biso   1.000  H
  C1365    1.0000 0.82554  0.89858  0.56429  Biso   1.000  C
  C1366    1.0000 0.66877  0.07442  0.83327  Biso   1.000  C
  C1367    1.0000 0.75873  0.15550  0.88888  Biso   1.000  C
  C1368    1.0000 0.66871  0.07442  0.83327  Biso   1.000  C
  H1379    1.0000 0.68974  0.15988  0.66316  Biso   1.000  H
  H1380    1.0000 0.65107  0.10239  0.69876  Biso   1.000  H
  C1369    1.0000 0.60145  0.19189  0.71796  Biso   1.000  C
  H1381    1.0000 0.68975  0.15988  0.66321  Biso   1.000  H
  H1382    1.0000 0.65102  0.10239  0.69881  Biso   1.000  H
  C1370    1.0000 0.60146  0.19189  0.71801  Biso   1.000  C
  H1383    1.0000 0.10068  0.26908  0.05367  Biso   1.000  H
  H1384    1.0000 0.10759  0.19442  0.06857  Biso   1.000  H
  O227     1.0000 0.11880  0.24821  0.14838  Biso   1.000  O
  O228     1.0000 0.11874  0.24821  0.14838  Biso   1.000  O
  C1371    1.0000 0.19237  0.16869  0.22369  Biso   1.000  C
  H1385    1.0000 0.25855  0.24028  0.19346  Biso   1.000  H
  C1372    1.0000 0.33618  0.19709  0.26906  Biso   1.000  C
  H1386    1.0000 0.25856  0.24028  0.19351  Biso   1.000  H
  C1373    1.0000 0.33612  0.19709  0.26906  Biso   1.000  C
  H1387    1.0000 0.36596  0.09120  0.19406  Biso   1.000  H
  H1388    1.0000 0.36597  0.09120  0.19411  Biso   1.000  H
  O229     1.0000 0.31831  0.94309  0.98198  Biso   1.000  O
  H1389    1.0000 0.26353  0.99762  0.91038  Biso   1.000  H
  H1390    1.0000 0.22905  0.00438  0.97817  Biso   1.000  H
  H1391    1.0000 0.22899  0.00438  0.97817  Biso   1.000  H
  C1374    1.0000 0.34450  0.94951  0.10476  Biso   1.000  C
  C1375    1.0000 0.34444  0.94951  0.10476  Biso   1.000  C
  H1392    1.0000 0.42097  0.00141  0.05578  Biso   1.000  H
  C1376    1.0000 0.47590  0.00589  0.15400  Biso   1.000  C
  C1377    1.0000 0.47584  0.00589  0.15400  Biso   1.000  C
  C1378    1.0000 0.95294  0.83360  0.80058  Biso   1.000  C
  H1393    1.0000 0.76149  0.89688  0.70618  Biso   1.000  H
  C1379    1.0000 0.80756  0.83131  0.77627  Biso   1.000  C
  H1394    1.0000 0.76143  0.89688  0.70618  Biso   1.000  H
  C1380    1.0000 0.80750  0.83131  0.77627  Biso   1.000  C
  H1395    1.0000 0.77665  0.89508  0.53200  Biso   1.000  H
  H1396    1.0000 0.82829  0.86069  0.59307  Biso   1.000  H
  C1381    1.0000 0.89626  0.89761  0.52759  Biso   1.000  C
  H1397    1.0000 0.82824  0.86069  0.59312  Biso   1.000  H
  H1398    1.0000 0.64314  0.05540  0.79397  Biso   1.000  H
  C1382    1.0000 0.65543  0.05049  0.89519  Biso   1.000  C
  H1399    1.0000 0.64315  0.05540  0.79402  Biso   1.000  H
  C1383    1.0000 0.74543  0.13152  0.95069  Biso   1.000  C
  H1400    1.0000 0.62037  0.23649  0.71906  Biso   1.000  H
  H1401    1.0000 0.58745  0.18182  0.76178  Biso   1.000  H
  C1384    1.0000 0.52713  0.18610  0.66657  Biso   1.000  C
  H1402    1.0000 0.62032  0.23649  0.71911  Biso   1.000  H
  C1385    1.0000 0.12061  0.19242  0.18829  Biso   1.000  C
  C1386    1.0000 0.12055  0.19242  0.18829  Biso   1.000  C
  C1387    1.0000 0.19044  0.11902  0.27017  Biso   1.000  C
  H1403    1.0000 0.31346  0.21528  0.30656  Biso   1.000  H
  H1404    1.0000 0.35319  0.15302  0.28089  Biso   1.000  H
  C1388    1.0000 0.40315  0.23309  0.25959  Biso   1.000  C
  H1405    1.0000 0.35313  0.15302  0.28089  Biso   1.000  H
  C1389    1.0000 0.30620  0.92101  0.04605  Biso   1.000  C
  C1390    1.0000 0.30614  0.92101  0.04610  Biso   1.000  C
  C1391    1.0000 0.33116  0.92558  0.16668  Biso   1.000  C
  H1406    1.0000 0.49636  0.96182  0.15966  Biso   1.000  H
  H1407    1.0000 0.45930  0.01931  0.19596  Biso   1.000  H
  C1392    1.0000 0.54259  0.04942  0.13926  Biso   1.000  C
  H1408    1.0000 0.45924  0.01931  0.19596  Biso   1.000  H
  C1393    1.0000 0.54254  0.04942  0.13931  Biso   1.000  C
  C1394    1.0000 0.87932  0.80758  0.81166  Biso   1.000  C
  C1395    1.0000 0.87933  0.80758  0.81171  Biso   1.000  C
  O230     1.0000 0.02187  0.81740  0.84460  Biso   1.000  O
  O231     1.0000 0.02181  0.81740  0.84460  Biso   1.000  O
  C1396    1.0000 0.73057  0.80500  0.79286  Biso   1.000  C
  C1397    1.0000 0.73052  0.80500  0.79291  Biso   1.000  C
  C1398    1.0000 0.88885  0.92748  0.46507  Biso   1.000  C
  C1399    1.0000 0.96956  0.86998  0.55527  Biso   1.000  C
  C1400    1.0000 0.88886  0.92748  0.46512  Biso   1.000  C
  C1401    1.0000 0.96957  0.86998  0.55532  Biso   1.000  C
  C1402    1.0000 0.59882  0.99382  0.90106  Biso   1.000  C
  C1403    1.0000 0.59883  0.99382  0.90111  Biso   1.000  C
  C1404    1.0000 0.69373  0.07899  0.95390  Biso   1.000  C
  O232     1.0000 0.79019  0.15521  0.01036  Biso   1.000  O
  O233     1.0000 0.79020  0.15521  0.01041  Biso   1.000  O
  C1405    1.0000 0.47314  0.13639  0.67499  Biso   1.000  C
  C1406    1.0000 0.50904  0.23022  0.61418  Biso   1.000  C
  C1407    1.0000 0.04699  0.16640  0.19937  Biso   1.000  C
  C1408    1.0000 0.04693  0.16640  0.19937  Biso   1.000  C
  H1409    1.0000 0.23844  0.10312  0.29378  Biso   1.000  H
  C1409    1.0000 0.11688  0.09300  0.28120  Biso   1.000  C
  H1410    1.0000 0.38554  0.27020  0.23136  Biso   1.000  H
  H1411    1.0000 0.43765  0.20658  0.23577  Biso   1.000  H
  C1410    1.0000 0.45405  0.25828  0.32587  Biso   1.000  C
  H1412    1.0000 0.38555  0.27020  0.23141  Biso   1.000  H
  C1411    1.0000 0.25450  0.86848  0.04926  Biso   1.000  C
  C1412    1.0000 0.25445  0.86848  0.04931  Biso   1.000  C
  C1413    1.0000 0.27946  0.87310  0.16989  Biso   1.000  C
  H1413    1.0000 0.35679  0.94460  0.20599  Biso   1.000  H
  H1414    1.0000 0.52150  0.09320  0.13269  Biso   1.000  H
  H1415    1.0000 0.55927  0.03551  0.09739  Biso   1.000  H
  C1414    1.0000 0.61767  0.05132  0.19326  Biso   1.000  C
  H1416    1.0000 0.52144  0.09320  0.13269  Biso   1.000  H
  C1415    1.0000 0.61768  0.05132  0.19331  Biso   1.000  C
  O234     1.0000 0.88113  0.75179  0.85157  Biso   1.000  O
  C1416    1.0000 0.05922  0.75728  0.83608  Biso   1.000  C
  C1417    1.0000 0.08522  0.79581  0.81121  Biso   1.000  C
  C1418    1.0000 0.70715  0.84012  0.85428  Biso   1.000  C
  H1417    1.0000 0.74138  0.75972  0.80650  Biso   1.000  H
  C1419    1.0000 0.66375  0.80291  0.73089  Biso   1.000  C
  H1418    1.0000 0.74132  0.75972  0.80650  Biso   1.000  H
  H1419    1.0000 0.83979  0.94601  0.44657  Biso   1.000  H
  C1420    1.0000 0.95468  0.92981  0.43047  Biso   1.000  C
  H1420    1.0000 0.83974  0.94601  0.44662  Biso   1.000  H
  H1421    1.0000 0.97447  0.84999  0.59708  Biso   1.000  H
  C1421    1.0000 0.03537  0.87242  0.52057  Biso   1.000  C
  C1422    1.0000 0.64744  0.93069  0.90467  Biso   1.000  C
  H1422    1.0000 0.57896  0.99859  0.94418  Biso   1.000  H
  C1423    1.0000 0.52403  0.99411  0.84596  Biso   1.000  C
  H1423    1.0000 0.57890  0.99859  0.94418  Biso   1.000  H
  C1424    1.0000 0.52403  0.99411  0.84601  Biso   1.000  C
  O235     1.0000 0.68162  0.05691  0.01798  Biso   1.000  O
  O236     1.0000 0.68156  0.05691  0.01798  Biso   1.000  O
  C1425    1.0000 0.74420  0.18342  0.05658  Biso   1.000  C
  C1426    1.0000 0.74414  0.18342  0.05658  Biso   1.000  C
  C1427    1.0000 0.77022  0.21971  0.02580  Biso   1.000  C
  H1424    1.0000 0.48525  0.10691  0.70999  Biso   1.000  H
  C1428    1.0000 0.40107  0.13089  0.63117  Biso   1.000  C
  C1429    1.0000 0.40101  0.13089  0.63117  Biso   1.000  C
  C1430    1.0000 0.43698  0.22462  0.57041  Biso   1.000  C
  H1425    1.0000 0.54518  0.26339  0.60856  Biso   1.000  H
  H1426    1.0000 0.54513  0.26339  0.60861  Biso   1.000  H
  O237     1.0000 0.97806  0.18260  0.15535  Biso   1.000  O
  O238     1.0000 0.97807  0.18260  0.15540  Biso   1.000  O
  C1431    1.0000 0.04508  0.11669  0.24590  Biso   1.000  C
  C1432    1.0000 0.11266  0.03818  0.32988  Biso   1.000  C
  C1433    1.0000 0.52337  0.22370  0.35099  Biso   1.000  C
  C1434    1.0000 0.43278  0.31339  0.35916  Biso   1.000  C
  C1435    1.0000 0.43273  0.31339  0.35921  Biso   1.000  C
  O239     1.0000 0.20974  0.84479  0.98960  Biso   1.000  O
  C1436    1.0000 0.24120  0.84450  0.11108  Biso   1.000  C
  C1437    1.0000 0.24114  0.84450  0.11108  Biso   1.000  C
  C1438    1.0000 0.25967  0.84990  0.23718  Biso   1.000  C
  C1439    1.0000 0.65929  0.99421  0.21196  Biso   1.000  C
  C1440    1.0000 0.65924  0.99421  0.21201  Biso   1.000  C
  C1441    1.0000 0.64460  0.10998  0.22279  Biso   1.000  C
  C1442    1.0000 0.64454  0.10998  0.22279  Biso   1.000  C
  C1443    1.0000 0.86984  0.76341  0.91760  Biso   1.000  C
  C1444    1.0000 0.12894  0.75072  0.89188  Biso   1.000  C
  H1427    1.0000 0.02115  0.72202  0.83789  Biso   1.000  H
  H1428    1.0000 0.07843  0.75592  0.79296  Biso   1.000  H
  H1429    1.0000 0.07844  0.75592  0.79301  Biso   1.000  H
  H1430    1.0000 0.07162  0.75320  0.79201  Biso   1.000  H
  H1431    1.0000 0.09084  0.82538  0.77471  Biso   1.000  H
  C1445    1.0000 0.16455  0.79162  0.85719  Biso   1.000  C
  C1446    1.0000 0.65877  0.89542  0.84796  Biso   1.000  C
  C1447    1.0000 0.74435  0.82008  0.91720  Biso   1.000  C
  C1448    1.0000 0.65872  0.89542  0.84801  Biso   1.000  C
  H1432    1.0000 0.68647  0.78472  0.69339  Biso   1.000  H
  H1433    1.0000 0.64674  0.84698  0.71906  Biso   1.000  H
  C1449    1.0000 0.59678  0.76691  0.74037  Biso   1.000  C
  H1434    1.0000 0.68641  0.78472  0.69339  Biso   1.000  H
  H1435    1.0000 0.64675  0.84698  0.71911  Biso   1.000  H
  C1450    1.0000 0.59672  0.76691  0.74037  Biso   1.000  C
  H1436    1.0000 0.94978  0.94980  0.38866  Biso   1.000  H
  H1437    1.0000 0.94979  0.94980  0.38871  Biso   1.000  H
  C1451    1.0000 0.02800  0.90218  0.45820  Biso   1.000  C
  C1452    1.0000 0.02794  0.90218  0.45820  Biso   1.000  C
  H1438    1.0000 0.08439  0.85388  0.53917  Biso   1.000  H
  H1439    1.0000 0.08433  0.85388  0.53917  Biso   1.000  H
  C1453    1.0000 0.68466  0.91070  0.96769  Biso   1.000  C
  C1454    1.0000 0.68460  0.91070  0.96769  Biso   1.000  C
  H1440    1.0000 0.54063  0.98069  0.80399  Biso   1.000  H
  C1455    1.0000 0.45734  0.95058  0.86070  Biso   1.000  C
  H1441    1.0000 0.50358  0.03818  0.84029  Biso   1.000  H
  H1442    1.0000 0.50352  0.03818  0.84029  Biso   1.000  H
  C1456    1.0000 0.72139  0.99951  0.04139  Biso   1.000  C
  C1457    1.0000 0.80258  0.20478  0.11620  Biso   1.000  C
  H1443    1.0000 0.70650  0.15190  0.06987  Biso   1.000  H
  H1444    1.0000 0.71378  0.22039  0.03628  Biso   1.000  H
  H1445    1.0000 0.70644  0.15190  0.06987  Biso   1.000  H
  H1446    1.0000 0.71839  0.22058  0.04199  Biso   1.000  H
  H1447    1.0000 0.76634  0.24670  0.98599  Biso   1.000  H
  C1458    1.0000 0.83549  0.24461  0.07879  Biso   1.000  C
  H1448    1.0000 0.36499  0.09772  0.63679  Biso   1.000  H
  C1459    1.0000 0.38300  0.17501  0.57888  Biso   1.000  C
  H1449    1.0000 0.36493  0.09772  0.63679  Biso   1.000  H
  C1460    1.0000 0.38294  0.17501  0.57888  Biso   1.000  C
  H1450    1.0000 0.42486  0.25410  0.53536  Biso   1.000  H
  H1451    1.0000 0.42487  0.25410  0.53541  Biso   1.000  H
  C1461    1.0000 0.94071  0.24272  0.16388  Biso   1.000  C
  C1462    1.0000 0.94065  0.24272  0.16388  Biso   1.000  C
  C1463    1.0000 0.91466  0.20419  0.18879  Biso   1.000  C
  O240     1.0000 0.97007  0.09509  0.25588  Biso   1.000  O
  C1464    1.0000 0.11175  0.97398  0.29167  Biso   1.000  C
  H1452    1.0000 0.06076  0.04188  0.34667  Biso   1.000  H
  C1465    1.0000 0.18067  0.03989  0.39220  Biso   1.000  C
  C1466    1.0000 0.18061  0.03989  0.39220  Biso   1.000  C
  H1453    1.0000 0.53755  0.18678  0.32858  Biso   1.000  H
  C1467    1.0000 0.57149  0.24422  0.40940  Biso   1.000  C
  C1468    1.0000 0.57143  0.24422  0.40940  Biso   1.000  C
  C1469    1.0000 0.48086  0.33382  0.41767  Biso   1.000  C
  H1454    1.0000 0.38648  0.33649  0.34236  Biso   1.000  H
  H1455    1.0000 0.38642  0.33649  0.34236  Biso   1.000  H
  C1470    1.0000 0.25573  0.81658  0.94337  Biso   1.000  C
  C1471    1.0000 0.22972  0.78029  0.97421  Biso   1.000  C
  O241     1.0000 0.19271  0.78778  0.11118  Biso   1.000  O
  O242     1.0000 0.19266  0.78778  0.11118  Biso   1.000  O
  C1472    1.0000 0.18107  0.88312  0.25086  Biso   1.000  C
  H1456    1.0000 0.24659  0.80359  0.23126  Biso   1.000  H
  C1473    1.0000 0.32928  0.85320  0.29569  Biso   1.000  C
  H1457    1.0000 0.24654  0.80359  0.23131  Biso   1.000  H
  H1458    1.0000 0.64135  0.95491  0.19225  Biso   1.000  H
  C1474    1.0000 0.72785  0.99562  0.26029  Biso   1.000  C
  H1459    1.0000 0.64136  0.95491  0.19230  Biso   1.000  H
  C1475    1.0000 0.71309  0.11148  0.27107  Biso   1.000  C
  H1460    1.0000 0.61670  0.14821  0.21025  Biso   1.000  H
  C1476    1.0000 0.71303  0.11148  0.27107  Biso   1.000  C
  H1461    1.0000 0.61665  0.14821  0.21030  Biso   1.000  H
  O243     1.0000 0.78745  0.76190  0.92678  Biso   1.000  O
  H1462    1.0000 0.89925  0.73092  0.94628  Biso   1.000  H
  H1463    1.0000 0.89234  0.80558  0.93139  Biso   1.000  H
  O244     1.0000 0.78739  0.76190  0.92678  Biso   1.000  O
  H1464    1.0000 0.89919  0.73092  0.94628  Biso   1.000  H
  C1477    1.0000 0.19735  0.79522  0.88376  Biso   1.000  C
  H1465    1.0000 0.14825  0.70611  0.89349  Biso   1.000  H
  H1466    1.0000 0.11025  0.76001  0.93420  Biso   1.000  H
  C1478    1.0000 0.19736  0.79522  0.88381  Biso   1.000  C
  H1467    1.0000 0.11224  0.76049  0.93630  Biso   1.000  H
  H1468    1.0000 0.17283  0.70952  0.91389  Biso   1.000  H
  H1469    1.0000 0.22863  0.77450  0.85298  Biso   1.000  H
  H1470    1.0000 0.17405  0.83428  0.86180  Biso   1.000  H
  H1471    1.0000 0.18310  0.83560  0.86797  Biso   1.000  H
  H1472    1.0000 0.20361  0.77129  0.83277  Biso   1.000  H
  C1479    1.0000 0.16445  0.75539  0.92121  Biso   1.000  C
  H1473    1.0000 0.63397  0.90880  0.80590  Biso   1.000  H
  H1474    1.0000 0.63391  0.90880  0.80590  Biso   1.000  H
  C1480    1.0000 0.73301  0.85539  0.97386  Biso   1.000  C
  C1481    1.0000 0.73302  0.85539  0.97391  Biso   1.000  C
  H1475    1.0000 0.61439  0.72980  0.76860  Biso   1.000  H
  H1476    1.0000 0.56228  0.79342  0.76419  Biso   1.000  H
  C1482    1.0000 0.54588  0.74172  0.67409  Biso   1.000  C
  H1477    1.0000 0.61433  0.72980  0.76860  Biso   1.000  H
  H1478    1.0000 0.56222  0.79342  0.76419  Biso   1.000  H
  C1483    1.0000 0.54582  0.74172  0.67409  Biso   1.000  C
  H1479    1.0000 0.07199  0.90379  0.43499  Biso   1.000  H
  H1480    1.0000 0.07193  0.90379  0.43499  Biso   1.000  H
  O245     1.0000 0.67520  0.94421  0.02620  Biso   1.000  O
  H1481    1.0000 0.47843  0.90680  0.86727  Biso   1.000  H
  H1482    1.0000 0.44066  0.96449  0.90256  Biso   1.000  H
  C1484    1.0000 0.38226  0.94868  0.80670  Biso   1.000  C
  H1483    1.0000 0.44061  0.96449  0.90261  Biso   1.000  H
  H1484    1.0000 0.77088  0.99562  0.02179  Biso   1.000  H
  H1485    1.0000 0.73640  0.00238  0.08957  Biso   1.000  H
  H1486    1.0000 0.73634  0.00238  0.08957  Biso   1.000  H
  C1485    1.0000 0.87099  0.24928  0.10807  Biso   1.000  C
  H1487    1.0000 0.77130  0.22550  0.14698  Biso   1.000  H
  H1488    1.0000 0.82588  0.16572  0.13816  Biso   1.000  H
  H1489    1.0000 0.77124  0.22550  0.14698  Biso   1.000  H
  H1490    1.0000 0.82589  0.16572  0.13821  Biso   1.000  H
  H1491    1.0000 0.81677  0.16440  0.13199  Biso   1.000  H
  H1492    1.0000 0.79626  0.22871  0.16718  Biso   1.000  H
  H1493    1.0000 0.85168  0.29389  0.10647  Biso   1.000  H
  H1494    1.0000 0.88968  0.23999  0.06576  Biso   1.000  H
  H1495    1.0000 0.88969  0.23999  0.06581  Biso   1.000  H
  C1486    1.0000 0.83538  0.20838  0.14277  Biso   1.000  C
  H1496    1.0000 0.88770  0.23951  0.06370  Biso   1.000  H
  H1497    1.0000 0.82710  0.29048  0.08606  Biso   1.000  H
  H1498    1.0000 0.33480  0.17131  0.54950  Biso   1.000  H
  H1499    1.0000 0.33474  0.17131  0.54950  Biso   1.000  H
  H1500    1.0000 0.97878  0.27798  0.16207  Biso   1.000  H
  H1501    1.0000 0.92150  0.24408  0.20699  Biso   1.000  H
  H1502    1.0000 0.92144  0.24408  0.20699  Biso   1.000  H
  H1503    1.0000 0.92826  0.24680  0.20800  Biso   1.000  H
  H1504    1.0000 0.90910  0.17462  0.22529  Biso   1.000  H
  C1487    1.0000 0.94896  0.03629  0.22479  Biso   1.000  C
  C1488    1.0000 0.18316  0.94080  0.28696  Biso   1.000  C
  C1489    1.0000 0.03836  0.94961  0.26019  Biso   1.000  C
  C1490    1.0000 0.18317  0.94080  0.28701  Biso   1.000  C
  H1505    1.0000 0.17648  0.00141  0.41927  Biso   1.000  H
  H1506    1.0000 0.23305  0.03911  0.37706  Biso   1.000  H
  C1491    1.0000 0.17433  0.10142  0.43567  Biso   1.000  C
  H1507    1.0000 0.17642  0.00141  0.41927  Biso   1.000  H
  H1508    1.0000 0.23306  0.03911  0.37711  Biso   1.000  H
  H1509    1.0000 0.61785  0.22102  0.42619  Biso   1.000  H
  C1492    1.0000 0.55018  0.29919  0.44279  Biso   1.000  C
  C1493    1.0000 0.55012  0.29919  0.44279  Biso   1.000  C
  H1510    1.0000 0.46666  0.37069  0.43998  Biso   1.000  H
  H1511    1.0000 0.29343  0.84810  0.93009  Biso   1.000  H
  H1512    1.0000 0.28615  0.77961  0.96368  Biso   1.000  H
  H1513    1.0000 0.28609  0.77961  0.96368  Biso   1.000  H
  H1514    1.0000 0.28155  0.77942  0.95801  Biso   1.000  H
  H1515    1.0000 0.23360  0.75330  0.01397  Biso   1.000  H
  C1494    1.0000 0.11338  0.80009  0.11840  Biso   1.000  C
  C1495    1.0000 0.10768  0.85870  0.21938  Biso   1.000  C
  H1516    1.0000 0.31019  0.84012  0.33680  Biso   1.000  H
  H1517    1.0000 0.34886  0.89761  0.30120  Biso   1.000  H
  C1496    1.0000 0.39848  0.80811  0.28200  Biso   1.000  C
  H1518    1.0000 0.31013  0.84012  0.33680  Biso   1.000  H
  H1519    1.0000 0.75570  0.95739  0.27287  Biso   1.000  H
  H1520    1.0000 0.75564  0.95739  0.27287  Biso   1.000  H
  C1497    1.0000 0.75467  0.05428  0.28987  Biso   1.000  C
  H1521    1.0000 0.73105  0.15069  0.29087  Biso   1.000  H
  O246     1.0000 0.78271  0.84440  0.03377  Biso   1.000  O
  O247     1.0000 0.78265  0.84440  0.03377  Biso   1.000  O
  C1498    1.0000 0.47656  0.77630  0.64897  Biso   1.000  C
  C1499    1.0000 0.56715  0.68661  0.64080  Biso   1.000  C
  C1500    1.0000 0.35533  0.89002  0.77717  Biso   1.000  C
  C1501    1.0000 0.34064  0.00579  0.78800  Biso   1.000  C
  O248     1.0000 0.96588  0.98200  0.26555  Biso   1.000  O
  O249     1.0000 0.96583  0.98200  0.26560  Biso   1.000  O
  H1522    1.0000 0.97739  0.03201  0.18639  Biso   1.000  H
  H1523    1.0000 0.89149  0.03692  0.20810  Biso   1.000  H
  H1524    1.0000 0.89143  0.03692  0.20810  Biso   1.000  H
  H1525    1.0000 0.23227  0.95710  0.30807  Biso   1.000  H
  C1502    1.0000 0.03626  0.89192  0.22399  Biso   1.000  C
  H1526    1.0000 0.22328  0.10492  0.46796  Biso   1.000  H
  H1527    1.0000 0.17164  0.13931  0.40689  Biso   1.000  H
  C1503    1.0000 0.10367  0.10239  0.47237  Biso   1.000  C
  H1528    1.0000 0.22323  0.10492  0.46801  Biso   1.000  H
  C1504    1.0000 0.10361  0.10239  0.47237  Biso   1.000  C
  H1529    1.0000 0.58235  0.31290  0.48189  Biso   1.000  H
  O250     1.0000 0.10117  0.79960  0.18558  Biso   1.000  O
  H1530    1.0000 0.07892  0.76750  0.09388  Biso   1.000  H
  H1531    1.0000 0.09771  0.84221  0.09900  Biso   1.000  H
  H1532    1.0000 0.07886  0.76750  0.09388  Biso   1.000  H
  H1533    1.0000 0.09765  0.84221  0.09900  Biso   1.000  H
  H1534    1.0000 0.37956  0.76351  0.28089  Biso   1.000  H
  H1535    1.0000 0.41248  0.81818  0.23818  Biso   1.000  H
  C1505    1.0000 0.47280  0.81390  0.33339  Biso   1.000  C
  C1506    1.0000 0.47274  0.81390  0.33339  Biso   1.000  C
  H1536    1.0000 0.80057  0.05530  0.32216  Biso   1.000  H
  H1537    1.0000 0.80052  0.05530  0.32221  Biso   1.000  H
  C1507    1.0000 0.76677  0.78540  0.07077  Biso   1.000  C
  H1538    1.0000 0.46239  0.81322  0.67138  Biso   1.000  H
  C1508    1.0000 0.42844  0.75578  0.59056  Biso   1.000  C
  H1539    1.0000 0.46233  0.81322  0.67138  Biso   1.000  H
  C1509    1.0000 0.42845  0.75578  0.59061  Biso   1.000  C
  C1510    1.0000 0.51907  0.66618  0.58229  Biso   1.000  C
  H1540    1.0000 0.61345  0.66351  0.65759  Biso   1.000  H
  C1511    1.0000 0.28684  0.88852  0.72889  Biso   1.000  C
  H1541    1.0000 0.38323  0.85179  0.78970  Biso   1.000  H
  H1542    1.0000 0.35858  0.04509  0.80770  Biso   1.000  H
  C1512    1.0000 0.27208  0.00438  0.73967  Biso   1.000  C
  H1543    1.0000 0.35852  0.04509  0.80770  Biso   1.000  H
  C1513    1.0000 0.27202  0.00438  0.73967  Biso   1.000  C
  O251     1.0000 0.96480  0.87431  0.18589  Biso   1.000  O
  O252     1.0000 0.96474  0.87431  0.18589  Biso   1.000  O
  C1514    1.0000 0.11108  0.07252  0.53489  Biso   1.000  C
  C1515    1.0000 0.03037  0.13002  0.44469  Biso   1.000  C
  C1516    1.0000 0.11102  0.07252  0.53489  Biso   1.000  C
  C1517    1.0000 0.52679  0.86361  0.32497  Biso   1.000  C
  C1518    1.0000 0.49089  0.76978  0.38578  Biso   1.000  C
  C1519    1.0000 0.52673  0.86361  0.32497  Biso   1.000  C
  C1520    1.0000 0.49083  0.76978  0.38578  Biso   1.000  C
  C1521    1.0000 0.83976  0.78321  0.13249  Biso   1.000  C
  H1544    1.0000 0.76728  0.74712  0.04280  Biso   1.000  H
  H1545    1.0000 0.71501  0.78822  0.08666  Biso   1.000  H
  H1546    1.0000 0.71495  0.78822  0.08666  Biso   1.000  H
  H1547    1.0000 0.38208  0.77898  0.57377  Biso   1.000  H
  C1522    1.0000 0.44975  0.70081  0.55717  Biso   1.000  C
  H1548    1.0000 0.38203  0.77898  0.57382  Biso   1.000  H
  H1549    1.0000 0.53327  0.62931  0.55998  Biso   1.000  H
  C1523    1.0000 0.24526  0.94572  0.71009  Biso   1.000  C
  H1550    1.0000 0.26888  0.84931  0.70908  Biso   1.000  H
  H1551    1.0000 0.26882  0.84931  0.70908  Biso   1.000  H
  H1552    1.0000 0.24423  0.04261  0.72708  Biso   1.000  H
  C1524    1.0000 0.90515  0.84581  0.22429  Biso   1.000  C
  H1553    1.0000 0.16014  0.05399  0.55339  Biso   1.000  H
  C1525    1.0000 0.04525  0.07019  0.56948  Biso   1.000  C
  C1526    1.0000 0.96456  0.12758  0.47939  Biso   1.000  C
  H1554    1.0000 0.02546  0.15001  0.40288  Biso   1.000  H
  H1555    1.0000 0.51468  0.89309  0.28997  Biso   1.000  H
  C1527    1.0000 0.59886  0.86911  0.36878  Biso   1.000  C
  H1556    1.0000 0.51462  0.89309  0.28997  Biso   1.000  H
  C1528    1.0000 0.56295  0.77538  0.42955  Biso   1.000  C
  H1557    1.0000 0.45475  0.73661  0.39140  Biso   1.000  H
  C1529    1.0000 0.56296  0.77538  0.42960  Biso   1.000  C
  C1530    1.0000 0.82418  0.83511  0.17746  Biso   1.000  C
  H1558    1.0000 0.84117  0.74148  0.15510  Biso   1.000  H
  H1559    1.0000 0.89127  0.79002  0.11680  Biso   1.000  H
  H1560    1.0000 0.41758  0.68710  0.51806  Biso   1.000  H
  H1561    1.0000 0.41753  0.68710  0.51811  Biso   1.000  H
  H1562    1.0000 0.19936  0.94470  0.67780  Biso   1.000  H
  H1563    1.0000 0.89677  0.87470  0.26069  Biso   1.000  H
  H1564    1.0000 0.92509  0.80451  0.24349  Biso   1.000  H
  H1565    1.0000 0.92503  0.80451  0.24349  Biso   1.000  H
  C1531    1.0000 0.97193  0.09782  0.54176  Biso   1.000  C
  C1532    1.0000 0.97194  0.09782  0.54181  Biso   1.000  C
  H1566    1.0000 0.05015  0.05020  0.61130  Biso   1.000  H
  H1567    1.0000 0.91554  0.14612  0.46079  Biso   1.000  H
  H1568    1.0000 0.63494  0.90228  0.36317  Biso   1.000  H
  C1533    1.0000 0.61694  0.82499  0.42108  Biso   1.000  C
  H1569    1.0000 0.57507  0.74590  0.46460  Biso   1.000  H
  H1570    1.0000 0.57501  0.74590  0.46460  Biso   1.000  H
  H1571    1.0000 0.78187  0.82271  0.20308  Biso   1.000  H
  H1572    1.0000 0.80777  0.87441  0.15259  Biso   1.000  H
  H1573    1.0000 0.92794  0.09621  0.56497  Biso   1.000  H
  H1574    1.0000 0.66513  0.82869  0.45046  Biso   1.000  H
  H1575    1.0000 0.66514  0.82869  0.45051  Biso   1.000  H
  C1534    1.0000 0.17575  0.16489  0.82249  Biso   1.000  C
  C1535    1.0000 0.09478  0.15419  0.77567  Biso   1.000  C
  H1576    1.0000 0.21806  0.17729  0.79687  Biso   1.000  H
  H1577    1.0000 0.19216  0.12559  0.84736  Biso   1.000  H
  C1536    1.0000 0.16017  0.21679  0.86747  Biso   1.000  C
  C1537    1.0000 0.09473  0.15419  0.77572  Biso   1.000  C
  H1578    1.0000 0.21801  0.17729  0.79687  Biso   1.000  H
  H1579    1.0000 0.19211  0.12559  0.84741  Biso   1.000  H
  C1538    1.0000 0.16011  0.21679  0.86747  Biso   1.000  C
  O253     1.0000 0.03513  0.12569  0.81407  Biso   1.000  O
  H1580    1.0000 0.10316  0.12530  0.73927  Biso   1.000  H
  H1581    1.0000 0.07484  0.19549  0.75646  Biso   1.000  H
  H1582    1.0000 0.10311  0.12530  0.73932  Biso   1.000  H
  H1583    1.0000 0.07485  0.19549  0.75651  Biso   1.000  H
  H1584    1.0000 0.15876  0.25852  0.84486  Biso   1.000  H
  H1585    1.0000 0.10866  0.20998  0.88316  Biso   1.000  H
  C1539    1.0000 0.23316  0.21460  0.92919  Biso   1.000  C
  H1586    1.0000 0.15871  0.25852  0.84491  Biso   1.000  H
  H1587    1.0000 0.10861  0.20998  0.88321  Biso   1.000  H
  C1540    1.0000 0.23310  0.21460  0.92919  Biso   1.000  C
  C1541    1.0000 0.96367  0.10808  0.77597  Biso   1.000  C
  C1542    1.0000 0.96361  0.10808  0.77597  Biso   1.000  C
  H1588    1.0000 0.28492  0.21178  0.91329  Biso   1.000  H
  O254     1.0000 0.21722  0.15560  0.96619  Biso   1.000  O
  H1589    1.0000 0.23265  0.25288  0.95716  Biso   1.000  H
  H1590    1.0000 0.23260  0.25288  0.95721  Biso   1.000  H
  C1543    1.0000 0.96157  0.05039  0.73977  Biso   1.000  C
  C1544    1.0000 0.89225  0.14130  0.78058  Biso   1.000  C
  C1545    1.0000 0.96151  0.05039  0.73977  Biso   1.000  C
  C1546    1.0000 0.26692  0.14461  0.02610  Biso   1.000  C
  C1547    1.0000 0.26686  0.14461  0.02610  Biso   1.000  C
  O255     1.0000 0.03405  0.01800  0.73440  Biso   1.000  O
  C1548    1.0000 0.88818  0.02602  0.70828  Biso   1.000  C
  C1549    1.0000 0.88812  0.02602  0.70828  Biso   1.000  C
  C1550    1.0000 0.81886  0.11688  0.74909  Biso   1.000  C
  O256     1.0000 0.89876  0.20040  0.81437  Biso   1.000  O
  O257     1.0000 0.89870  0.20040  0.81437  Biso   1.000  O
  C1551    1.0000 0.25558  0.17992  0.08275  Biso   1.000  C
  C1552    1.0000 0.31527  0.08930  0.03227  Biso   1.000  C
  C1553    1.0000 0.25559  0.17992  0.08280  Biso   1.000  C
  C1554    1.0000 0.05097  0.96371  0.77517  Biso   1.000  C
  C1555    1.0000 0.05092  0.96371  0.77522  Biso   1.000  C
  C1556    1.0000 0.88727  0.96182  0.67008  Biso   1.000  C
  C1557    1.0000 0.88721  0.96182  0.67008  Biso   1.000  C
  C1558    1.0000 0.81677  0.05920  0.71300  Biso   1.000  C
  C1559    1.0000 0.81671  0.05920  0.71300  Biso   1.000  C
  C1560    1.0000 0.74026  0.15010  0.76278  Biso   1.000  C
  C1561    1.0000 0.88655  0.19991  0.88156  Biso   1.000  C
  C1562    1.0000 0.88656  0.19991  0.88161  Biso   1.000  C
  O258     1.0000 0.21248  0.23810  0.07318  Biso   1.000  O
  C1563    1.0000 0.29278  0.15988  0.14568  Biso   1.000  C
  O259     1.0000 0.32473  0.05579  0.97376  Biso   1.000  O
  O260     1.0000 0.32474  0.05579  0.97381  Biso   1.000  O
  C1564    1.0000 0.35249  0.06931  0.09529  Biso   1.000  C
  O261     1.0000 0.02986  0.90491  0.74408  Biso   1.000  O
  H1591    1.0000 0.02254  0.96799  0.81357  Biso   1.000  H
  H1592    1.0000 0.10844  0.96308  0.79186  Biso   1.000  H
  H1593    1.0000 0.10845  0.96308  0.79191  Biso   1.000  H
  C1565    1.0000 0.88305  0.90700  0.71876  Biso   1.000  C
  H1594    1.0000 0.93917  0.95812  0.65328  Biso   1.000  H
  C1566    1.0000 0.81926  0.96011  0.60776  Biso   1.000  C
  C1567    1.0000 0.88306  0.90700  0.71881  Biso   1.000  C
  H1595    1.0000 0.93911  0.95812  0.65328  Biso   1.000  H
  C1568    1.0000 0.81927  0.96011  0.60781  Biso   1.000  C
  H1596    1.0000 0.76766  0.04290  0.69189  Biso   1.000  H
  C1569    1.0000 0.72047  0.12690  0.83006  Biso   1.000  C
  H1597    1.0000 0.75334  0.19641  0.76870  Biso   1.000  H
  C1570    1.0000 0.67065  0.14680  0.70427  Biso   1.000  C
  C1571    1.0000 0.72042  0.12690  0.83011  Biso   1.000  C
  H1598    1.0000 0.92101  0.23250  0.90607  Biso   1.000  H
  H1599    1.0000 0.90222  0.15779  0.90096  Biso   1.000  H
  O262     1.0000 0.80722  0.21222  0.88878  Biso   1.000  O
  H1600    1.0000 0.90222  0.15779  0.90101  Biso   1.000  H
  C1572    1.0000 0.13009  0.23659  0.08235  Biso   1.000  C
  C1573    1.0000 0.13010  0.23659  0.08240  Biso   1.000  C
  C1574    1.0000 0.26936  0.19500  0.20709  Biso   1.000  C
  C1575    1.0000 0.34116  0.10458  0.15199  Biso   1.000  C
  C1576    1.0000 0.27854  0.00049  0.95857  Biso   1.000  C
  C1577    1.0000 0.40111  0.00618  0.09890  Biso   1.000  C
  C1578    1.0000 0.40105  0.00618  0.09890  Biso   1.000  C
  C1579    1.0000 0.95485  0.88331  0.75406  Biso   1.000  C
  C1580    1.0000 0.95486  0.88331  0.75411  Biso   1.000  C
  C1581    1.0000 0.80949  0.88098  0.72979  Biso   1.000  C
  C1582    1.0000 0.80943  0.88098  0.72979  Biso   1.000  C
  H1601    1.0000 0.82345  0.99859  0.58068  Biso   1.000  H
  H1602    1.0000 0.76688  0.96089  0.62290  Biso   1.000  H
  C1583    1.0000 0.82560  0.89858  0.56429  Biso   1.000  C
  H1603    1.0000 0.76682  0.96089  0.62290  Biso   1.000  H
  C1584    1.0000 0.82554  0.89858  0.56429  Biso   1.000  C
  C1585    1.0000 0.66877  0.07442  0.83327  Biso   1.000  C
  C1586    1.0000 0.75873  0.15550  0.88888  Biso   1.000  C
  C1587    1.0000 0.66871  0.07442  0.83327  Biso   1.000  C
  H1604    1.0000 0.68974  0.15988  0.66316  Biso   1.000  H
  H1605    1.0000 0.65107  0.10239  0.69876  Biso   1.000  H
  C1588    1.0000 0.60145  0.19189  0.71796  Biso   1.000  C
  H1606    1.0000 0.68975  0.15988  0.66321  Biso   1.000  H
  H1607    1.0000 0.65102  0.10239  0.69881  Biso   1.000  H
  C1589    1.0000 0.60146  0.19189  0.71801  Biso   1.000  C
  H1608    1.0000 0.10068  0.26908  0.05367  Biso   1.000  H
  H1609    1.0000 0.10759  0.19442  0.06857  Biso   1.000  H
  O263     1.0000 0.11880  0.24821  0.14838  Biso   1.000  O
  O264     1.0000 0.11874  0.24821  0.14838  Biso   1.000  O
  C1590    1.0000 0.19237  0.16869  0.22369  Biso   1.000  C
  H1610    1.0000 0.25855  0.24028  0.19346  Biso   1.000  H
  C1591    1.0000 0.33618  0.19709  0.26906  Biso   1.000  C
  H1611    1.0000 0.25856  0.24028  0.19351  Biso   1.000  H
  C1592    1.0000 0.33612  0.19709  0.26906  Biso   1.000  C
  H1612    1.0000 0.36596  0.09120  0.19406  Biso   1.000  H
  H1613    1.0000 0.36597  0.09120  0.19411  Biso   1.000  H
  O265     1.0000 0.31831  0.94309  0.98198  Biso   1.000  O
  H1614    1.0000 0.26353  0.99762  0.91038  Biso   1.000  H
  H1615    1.0000 0.22905  0.00438  0.97817  Biso   1.000  H
  H1616    1.0000 0.22899  0.00438  0.97817  Biso   1.000  H
  C1593    1.0000 0.34450  0.94951  0.10476  Biso   1.000  C
  C1594    1.0000 0.34444  0.94951  0.10476  Biso   1.000  C
  H1617    1.0000 0.42097  0.00141  0.05578  Biso   1.000  H
  C1595    1.0000 0.47590  0.00589  0.15400  Biso   1.000  C
  C1596    1.0000 0.47584  0.00589  0.15400  Biso   1.000  C
  C1597    1.0000 0.95294  0.83360  0.80058  Biso   1.000  C
  H1618    1.0000 0.76149  0.89688  0.70618  Biso   1.000  H
  C1598    1.0000 0.80756  0.83131  0.77627  Biso   1.000  C
  H1619    1.0000 0.76143  0.89688  0.70618  Biso   1.000  H
  C1599    1.0000 0.80750  0.83131  0.77627  Biso   1.000  C
  H1620    1.0000 0.77665  0.89508  0.53200  Biso   1.000  H
  H1621    1.0000 0.82829  0.86069  0.59307  Biso   1.000  H
  C1600    1.0000 0.89626  0.89761  0.52759  Biso   1.000  C
  H1622    1.0000 0.82824  0.86069  0.59312  Biso   1.000  H
  H1623    1.0000 0.64314  0.05540  0.79397  Biso   1.000  H
  C1601    1.0000 0.65543  0.05049  0.89519  Biso   1.000  C
  H1624    1.0000 0.64315  0.05540  0.79402  Biso   1.000  H
  C1602    1.0000 0.74543  0.13152  0.95069  Biso   1.000  C
  H1625    1.0000 0.62037  0.23649  0.71906  Biso   1.000  H
  H1626    1.0000 0.58745  0.18182  0.76178  Biso   1.000  H
  C1603    1.0000 0.52713  0.18610  0.66657  Biso   1.000  C
  H1627    1.0000 0.62032  0.23649  0.71911  Biso   1.000  H
  C1604    1.0000 0.12061  0.19242  0.18829  Biso   1.000  C
  C1605    1.0000 0.12055  0.19242  0.18829  Biso   1.000  C
  C1606    1.0000 0.19044  0.11902  0.27017  Biso   1.000  C
  H1628    1.0000 0.31346  0.21528  0.30656  Biso   1.000  H
  H1629    1.0000 0.35319  0.15302  0.28089  Biso   1.000  H
  C1607    1.0000 0.40315  0.23309  0.25959  Biso   1.000  C
  H1630    1.0000 0.35313  0.15302  0.28089  Biso   1.000  H
  C1608    1.0000 0.30620  0.92101  0.04605  Biso   1.000  C
  C1609    1.0000 0.30614  0.92101  0.04610  Biso   1.000  C
  C1610    1.0000 0.33116  0.92558  0.16668  Biso   1.000  C
  H1631    1.0000 0.49636  0.96182  0.15966  Biso   1.000  H
  H1632    1.0000 0.45930  0.01931  0.19596  Biso   1.000  H
  C1611    1.0000 0.54259  0.04942  0.13926  Biso   1.000  C
  H1633    1.0000 0.45924  0.01931  0.19596  Biso   1.000  H
  C1612    1.0000 0.54254  0.04942  0.13931  Biso   1.000  C
  C1613    1.0000 0.87932  0.80758  0.81166  Biso   1.000  C
  C1614    1.0000 0.87933  0.80758  0.81171  Biso   1.000  C
  O266     1.0000 0.02187  0.81740  0.84460  Biso   1.000  O
  O267     1.0000 0.02181  0.81740  0.84460  Biso   1.000  O
  C1615    1.0000 0.73057  0.80500  0.79286  Biso   1.000  C
  C1616    1.0000 0.73052  0.80500  0.79291  Biso   1.000  C
  C1617    1.0000 0.88885  0.92748  0.46507  Biso   1.000  C
  C1618    1.0000 0.96956  0.86998  0.55527  Biso   1.000  C
  C1619    1.0000 0.88886  0.92748  0.46512  Biso   1.000  C
  C1620    1.0000 0.96957  0.86998  0.55532  Biso   1.000  C
  C1621    1.0000 0.59882  0.99382  0.90106  Biso   1.000  C
  C1622    1.0000 0.59883  0.99382  0.90111  Biso   1.000  C
  C1623    1.0000 0.69373  0.07899  0.95390  Biso   1.000  C
  O268     1.0000 0.79019  0.15521  0.01036  Biso   1.000  O
  O269     1.0000 0.79020  0.15521  0.01041  Biso   1.000  O
  C1624    1.0000 0.47314  0.13639  0.67499  Biso   1.000  C
  C1625    1.0000 0.50904  0.23022  0.61418  Biso   1.000  C
  C1626    1.0000 0.04699  0.16640  0.19937  Biso   1.000  C
  C1627    1.0000 0.04693  0.16640  0.19937  Biso   1.000  C
  H1634    1.0000 0.23844  0.10312  0.29378  Biso   1.000  H
  C1628    1.0000 0.11688  0.09300  0.28120  Biso   1.000  C
  H1635    1.0000 0.38554  0.27020  0.23136  Biso   1.000  H
  H1636    1.0000 0.43765  0.20658  0.23577  Biso   1.000  H
  C1629    1.0000 0.45405  0.25828  0.32587  Biso   1.000  C
  H1637    1.0000 0.38555  0.27020  0.23141  Biso   1.000  H
  C1630    1.0000 0.25450  0.86848  0.04926  Biso   1.000  C
  C1631    1.0000 0.25445  0.86848  0.04931  Biso   1.000  C
  C1632    1.0000 0.27946  0.87310  0.16989  Biso   1.000  C
  H1638    1.0000 0.35679  0.94460  0.20599  Biso   1.000  H
  H1639    1.0000 0.52150  0.09320  0.13269  Biso   1.000  H
  H1640    1.0000 0.55927  0.03551  0.09739  Biso   1.000  H
  C1633    1.0000 0.61767  0.05132  0.19326  Biso   1.000  C
  H1641    1.0000 0.52144  0.09320  0.13269  Biso   1.000  H
  C1634    1.0000 0.61768  0.05132  0.19331  Biso   1.000  C
  O270     1.0000 0.88113  0.75179  0.85157  Biso   1.000  O
  C1635    1.0000 0.05922  0.75728  0.83608  Biso   1.000  C
  C1636    1.0000 0.08522  0.79581  0.81121  Biso   1.000  C
  C1637    1.0000 0.70715  0.84012  0.85428  Biso   1.000  C
  H1642    1.0000 0.74138  0.75972  0.80650  Biso   1.000  H
  C1638    1.0000 0.66375  0.80291  0.73089  Biso   1.000  C
  H1643    1.0000 0.74132  0.75972  0.80650  Biso   1.000  H
  H1644    1.0000 0.83979  0.94601  0.44657  Biso   1.000  H
  C1639    1.0000 0.95468  0.92981  0.43047  Biso   1.000  C
  H1645    1.0000 0.83974  0.94601  0.44662  Biso   1.000  H
  H1646    1.0000 0.97447  0.84999  0.59708  Biso   1.000  H
  C1640    1.0000 0.03537  0.87242  0.52057  Biso   1.000  C
  C1641    1.0000 0.64744  0.93069  0.90467  Biso   1.000  C
  H1647    1.0000 0.57896  0.99859  0.94418  Biso   1.000  H
  C1642    1.0000 0.52403  0.99411  0.84596  Biso   1.000  C
  H1648    1.0000 0.57890  0.99859  0.94418  Biso   1.000  H
  C1643    1.0000 0.52403  0.99411  0.84601  Biso   1.000  C
  O271     1.0000 0.68162  0.05691  0.01798  Biso   1.000  O
  O272     1.0000 0.68156  0.05691  0.01798  Biso   1.000  O
  C1644    1.0000 0.74420  0.18342  0.05658  Biso   1.000  C
  C1645    1.0000 0.74414  0.18342  0.05658  Biso   1.000  C
  C1646    1.0000 0.77022  0.21971  0.02580  Biso   1.000  C
  H1649    1.0000 0.48525  0.10691  0.70999  Biso   1.000  H
  C1647    1.0000 0.40107  0.13089  0.63117  Biso   1.000  C
  C1648    1.0000 0.40101  0.13089  0.63117  Biso   1.000  C
  C1649    1.0000 0.43698  0.22462  0.57041  Biso   1.000  C
  H1650    1.0000 0.54518  0.26339  0.60856  Biso   1.000  H
  H1651    1.0000 0.54513  0.26339  0.60861  Biso   1.000  H
  O273     1.0000 0.97806  0.18260  0.15535  Biso   1.000  O
  O274     1.0000 0.97807  0.18260  0.15540  Biso   1.000  O
  C1650    1.0000 0.04508  0.11669  0.24590  Biso   1.000  C
  C1651    1.0000 0.11266  0.03818  0.32988  Biso   1.000  C
  C1652    1.0000 0.52337  0.22370  0.35099  Biso   1.000  C
  C1653    1.0000 0.43278  0.31339  0.35916  Biso   1.000  C
  C1654    1.0000 0.43273  0.31339  0.35921  Biso   1.000  C
  O275     1.0000 0.20974  0.84479  0.98960  Biso   1.000  O
  C1655    1.0000 0.24120  0.84450  0.11108  Biso   1.000  C
  C1656    1.0000 0.24114  0.84450  0.11108  Biso   1.000  C
  C1657    1.0000 0.25967  0.84990  0.23718  Biso   1.000  C
  C1658    1.0000 0.65929  0.99421  0.21196  Biso   1.000  C
  C1659    1.0000 0.65924  0.99421  0.21201  Biso   1.000  C
  C1660    1.0000 0.64460  0.10998  0.22279  Biso   1.000  C
  C1661    1.0000 0.64454  0.10998  0.22279  Biso   1.000  C
  C1662    1.0000 0.86984  0.76341  0.91760  Biso   1.000  C
  C1663    1.0000 0.12894  0.75072  0.89188  Biso   1.000  C
  H1652    1.0000 0.02115  0.72202  0.83789  Biso   1.000  H
  H1653    1.0000 0.07843  0.75592  0.79296  Biso   1.000  H
  H1654    1.0000 0.07844  0.75592  0.79301  Biso   1.000  H
  H1655    1.0000 0.07162  0.75320  0.79201  Biso   1.000  H
  H1656    1.0000 0.09084  0.82538  0.77471  Biso   1.000  H
  C1664    1.0000 0.16455  0.79162  0.85719  Biso   1.000  C
  C1665    1.0000 0.65877  0.89542  0.84796  Biso   1.000  C
  C1666    1.0000 0.74435  0.82008  0.91720  Biso   1.000  C
  C1667    1.0000 0.65872  0.89542  0.84801  Biso   1.000  C
  H1657    1.0000 0.68647  0.78472  0.69339  Biso   1.000  H
  H1658    1.0000 0.64674  0.84698  0.71906  Biso   1.000  H
  C1668    1.0000 0.59678  0.76691  0.74037  Biso   1.000  C
  H1659    1.0000 0.68641  0.78472  0.69339  Biso   1.000  H
  H1660    1.0000 0.64675  0.84698  0.71911  Biso   1.000  H
  C1669    1.0000 0.59672  0.76691  0.74037  Biso   1.000  C
  H1661    1.0000 0.94978  0.94980  0.38866  Biso   1.000  H
  H1662    1.0000 0.94979  0.94980  0.38871  Biso   1.000  H
  C1670    1.0000 0.02800  0.90218  0.45820  Biso   1.000  C
  C1671    1.0000 0.02794  0.90218  0.45820  Biso   1.000  C
  H1663    1.0000 0.08439  0.85388  0.53917  Biso   1.000  H
  H1664    1.0000 0.08433  0.85388  0.53917  Biso   1.000  H
  C1672    1.0000 0.68466  0.91070  0.96769  Biso   1.000  C
  C1673    1.0000 0.68460  0.91070  0.96769  Biso   1.000  C
  H1665    1.0000 0.54063  0.98069  0.80399  Biso   1.000  H
  C1674    1.0000 0.45734  0.95058  0.86070  Biso   1.000  C
  H1666    1.0000 0.50358  0.03818  0.84029  Biso   1.000  H
  H1667    1.0000 0.50352  0.03818  0.84029  Biso   1.000  H
  C1675    1.0000 0.72139  0.99951  0.04139  Biso   1.000  C
  C1676    1.0000 0.80258  0.20478  0.11620  Biso   1.000  C
  H1668    1.0000 0.70650  0.15190  0.06987  Biso   1.000  H
  H1669    1.0000 0.71378  0.22039  0.03628  Biso   1.000  H
  H1670    1.0000 0.70644  0.15190  0.06987  Biso   1.000  H
  H1671    1.0000 0.71839  0.22058  0.04199  Biso   1.000  H
  H1672    1.0000 0.76634  0.24670  0.98599  Biso   1.000  H
  C1677    1.0000 0.83549  0.24461  0.07879  Biso   1.000  C
  H1673    1.0000 0.36499  0.09772  0.63679  Biso   1.000  H
  C1678    1.0000 0.38300  0.17501  0.57888  Biso   1.000  C
  H1674    1.0000 0.36493  0.09772  0.63679  Biso   1.000  H
  C1679    1.0000 0.38294  0.17501  0.57888  Biso   1.000  C
  H1675    1.0000 0.42486  0.25410  0.53536  Biso   1.000  H
  H1676    1.0000 0.42487  0.25410  0.53541  Biso   1.000  H
  C1680    1.0000 0.94071  0.24272  0.16388  Biso   1.000  C
  C1681    1.0000 0.94065  0.24272  0.16388  Biso   1.000  C
  C1682    1.0000 0.91466  0.20419  0.18879  Biso   1.000  C
  O276     1.0000 0.97007  0.09509  0.25588  Biso   1.000  O
  C1683    1.0000 0.11175  0.97398  0.29167  Biso   1.000  C
  H1677    1.0000 0.06076  0.04188  0.34667  Biso   1.000  H
  C1684    1.0000 0.18067  0.03989  0.39220  Biso   1.000  C
  C1685    1.0000 0.18061  0.03989  0.39220  Biso   1.000  C
  H1678    1.0000 0.53755  0.18678  0.32858  Biso   1.000  H
  C1686    1.0000 0.57149  0.24422  0.40940  Biso   1.000  C
  C1687    1.0000 0.57143  0.24422  0.40940  Biso   1.000  C
  C1688    1.0000 0.48086  0.33382  0.41767  Biso   1.000  C
  H1679    1.0000 0.38648  0.33649  0.34236  Biso   1.000  H
  H1680    1.0000 0.38642  0.33649  0.34236  Biso   1.000  H
  C1689    1.0000 0.25573  0.81658  0.94337  Biso   1.000  C
  C1690    1.0000 0.22972  0.78029  0.97421  Biso   1.000  C
  O277     1.0000 0.19271  0.78778  0.11118  Biso   1.000  O
  O278     1.0000 0.19266  0.78778  0.11118  Biso   1.000  O
  C1691    1.0000 0.18107  0.88312  0.25086  Biso   1.000  C
  H1681    1.0000 0.24659  0.80359  0.23126  Biso   1.000  H
  C1692    1.0000 0.32928  0.85320  0.29569  Biso   1.000  C
  H1682    1.0000 0.24654  0.80359  0.23131  Biso   1.000  H
  H1683    1.0000 0.64135  0.95491  0.19225  Biso   1.000  H
  C1693    1.0000 0.72785  0.99562  0.26029  Biso   1.000  C
  H1684    1.0000 0.64136  0.95491  0.19230  Biso   1.000  H
  C1694    1.0000 0.71309  0.11148  0.27107  Biso   1.000  C
  H1685    1.0000 0.61670  0.14821  0.21025  Biso   1.000  H
  C1695    1.0000 0.71303  0.11148  0.27107  Biso   1.000  C
  H1686    1.0000 0.61665  0.14821  0.21030  Biso   1.000  H
  O279     1.0000 0.78745  0.76190  0.92678  Biso   1.000  O
  H1687    1.0000 0.89925  0.73092  0.94628  Biso   1.000  H
  H1688    1.0000 0.89234  0.80558  0.93139  Biso   1.000  H
  O280     1.0000 0.78739  0.76190  0.92678  Biso   1.000  O
  H1689    1.0000 0.89919  0.73092  0.94628  Biso   1.000  H
  C1696    1.0000 0.19735  0.79522  0.88376  Biso   1.000  C
  H1690    1.0000 0.14825  0.70611  0.89349  Biso   1.000  H
  H1691    1.0000 0.11025  0.76001  0.93420  Biso   1.000  H
  C1697    1.0000 0.19736  0.79522  0.88381  Biso   1.000  C
  H1692    1.0000 0.11224  0.76049  0.93630  Biso   1.000  H
  H1693    1.0000 0.17283  0.70952  0.91389  Biso   1.000  H
  H1694    1.0000 0.22863  0.77450  0.85298  Biso   1.000  H
  H1695    1.0000 0.17405  0.83428  0.86180  Biso   1.000  H
  H1696    1.0000 0.18310  0.83560  0.86797  Biso   1.000  H
  H1697    1.0000 0.20361  0.77129  0.83277  Biso   1.000  H
  C1698    1.0000 0.16445  0.75539  0.92121  Biso   1.000  C
  H1698    1.0000 0.63397  0.90880  0.80590  Biso   1.000  H
  H1699    1.0000 0.63391  0.90880  0.80590  Biso   1.000  H
  C1699    1.0000 0.73301  0.85539  0.97386  Biso   1.000  C
  C1700    1.0000 0.73302  0.85539  0.97391  Biso   1.000  C
  H1700    1.0000 0.61439  0.72980  0.76860  Biso   1.000  H
  H1701    1.0000 0.56228  0.79342  0.76419  Biso   1.000  H
  C1701    1.0000 0.54588  0.74172  0.67409  Biso   1.000  C
  H1702    1.0000 0.61433  0.72980  0.76860  Biso   1.000  H
  H1703    1.0000 0.56222  0.79342  0.76419  Biso   1.000  H
  C1702    1.0000 0.54582  0.74172  0.67409  Biso   1.000  C
  H1704    1.0000 0.07199  0.90379  0.43499  Biso   1.000  H
  H1705    1.0000 0.07193  0.90379  0.43499  Biso   1.000  H
  O281     1.0000 0.67520  0.94421  0.02620  Biso   1.000  O
  H1706    1.0000 0.47843  0.90680  0.86727  Biso   1.000  H
  H1707    1.0000 0.44066  0.96449  0.90256  Biso   1.000  H
  C1703    1.0000 0.38226  0.94868  0.80670  Biso   1.000  C
  H1708    1.0000 0.44061  0.96449  0.90261  Biso   1.000  H
  H1709    1.0000 0.77088  0.99562  0.02179  Biso   1.000  H
  H1710    1.0000 0.73640  0.00238  0.08957  Biso   1.000  H
  H1711    1.0000 0.73634  0.00238  0.08957  Biso   1.000  H
  C1704    1.0000 0.87099  0.24928  0.10807  Biso   1.000  C
  H1712    1.0000 0.77130  0.22550  0.14698  Biso   1.000  H
  H1713    1.0000 0.82588  0.16572  0.13816  Biso   1.000  H
  H1714    1.0000 0.77124  0.22550  0.14698  Biso   1.000  H
  H1715    1.0000 0.82589  0.16572  0.13821  Biso   1.000  H
  H1716    1.0000 0.81677  0.16440  0.13199  Biso   1.000  H
  H1717    1.0000 0.79626  0.22871  0.16718  Biso   1.000  H
  H1718    1.0000 0.85168  0.29389  0.10647  Biso   1.000  H
  H1719    1.0000 0.88968  0.23999  0.06576  Biso   1.000  H
  H1720    1.0000 0.88969  0.23999  0.06581  Biso   1.000  H
  C1705    1.0000 0.83538  0.20838  0.14277  Biso   1.000  C
  H1721    1.0000 0.88770  0.23951  0.06370  Biso   1.000  H
  H1722    1.0000 0.82710  0.29048  0.08606  Biso   1.000  H
  H1723    1.0000 0.33480  0.17131  0.54950  Biso   1.000  H
  H1724    1.0000 0.33474  0.17131  0.54950  Biso   1.000  H
  H1725    1.0000 0.97878  0.27798  0.16207  Biso   1.000  H
  H1726    1.0000 0.92150  0.24408  0.20699  Biso   1.000  H
  H1727    1.0000 0.92144  0.24408  0.20699  Biso   1.000  H
  H1728    1.0000 0.92826  0.24680  0.20800  Biso   1.000  H
  H1729    1.0000 0.90910  0.17462  0.22529  Biso   1.000  H
  C1706    1.0000 0.94896  0.03629  0.22479  Biso   1.000  C
  C1707    1.0000 0.18316  0.94080  0.28696  Biso   1.000  C
  C1708    1.0000 0.03836  0.94961  0.26019  Biso   1.000  C
  C1709    1.0000 0.18317  0.94080  0.28701  Biso   1.000  C
  H1730    1.0000 0.17648  0.00141  0.41927  Biso   1.000  H
  H1731    1.0000 0.23305  0.03911  0.37706  Biso   1.000  H
  C1710    1.0000 0.17433  0.10142  0.43567  Biso   1.000  C
  H1732    1.0000 0.17642  0.00141  0.41927  Biso   1.000  H
  H1733    1.0000 0.23306  0.03911  0.37711  Biso   1.000  H
  H1734    1.0000 0.61785  0.22102  0.42619  Biso   1.000  H
  C1711    1.0000 0.55018  0.29919  0.44279  Biso   1.000  C
  C1712    1.0000 0.55012  0.29919  0.44279  Biso   1.000  C
  H1735    1.0000 0.46666  0.37069  0.43998  Biso   1.000  H
  H1736    1.0000 0.29343  0.84810  0.93009  Biso   1.000  H
  H1737    1.0000 0.28615  0.77961  0.96368  Biso   1.000  H
  H1738    1.0000 0.28609  0.77961  0.96368  Biso   1.000  H
  H1739    1.0000 0.28155  0.77942  0.95801  Biso   1.000  H
  H1740    1.0000 0.23360  0.75330  0.01397  Biso   1.000  H
  C1713    1.0000 0.11338  0.80009  0.11840  Biso   1.000  C
  C1714    1.0000 0.10768  0.85870  0.21938  Biso   1.000  C
  H1741    1.0000 0.31019  0.84012  0.33680  Biso   1.000  H
  H1742    1.0000 0.34886  0.89761  0.30120  Biso   1.000  H
  C1715    1.0000 0.39848  0.80811  0.28200  Biso   1.000  C
  H1743    1.0000 0.31013  0.84012  0.33680  Biso   1.000  H
  H1744    1.0000 0.75570  0.95739  0.27287  Biso   1.000  H
  H1745    1.0000 0.75564  0.95739  0.27287  Biso   1.000  H
  C1716    1.0000 0.75467  0.05428  0.28987  Biso   1.000  C
  H1746    1.0000 0.73105  0.15069  0.29087  Biso   1.000  H
  O282     1.0000 0.78271  0.84440  0.03377  Biso   1.000  O
  O283     1.0000 0.78265  0.84440  0.03377  Biso   1.000  O
  C1717    1.0000 0.47656  0.77630  0.64897  Biso   1.000  C
  C1718    1.0000 0.56715  0.68661  0.64080  Biso   1.000  C
  C1719    1.0000 0.35533  0.89002  0.77717  Biso   1.000  C
  C1720    1.0000 0.34064  0.00579  0.78800  Biso   1.000  C
  O284     1.0000 0.96588  0.98200  0.26555  Biso   1.000  O
  O285     1.0000 0.96583  0.98200  0.26560  Biso   1.000  O
  H1747    1.0000 0.97739  0.03201  0.18639  Biso   1.000  H
  H1748    1.0000 0.89149  0.03692  0.20810  Biso   1.000  H
  H1749    1.0000 0.89143  0.03692  0.20810  Biso   1.000  H
  H1750    1.0000 0.23227  0.95710  0.30807  Biso   1.000  H
  C1721    1.0000 0.03626  0.89192  0.22399  Biso   1.000  C
  H1751    1.0000 0.22328  0.10492  0.46796  Biso   1.000  H
  H1752    1.0000 0.17164  0.13931  0.40689  Biso   1.000  H
  C1722    1.0000 0.10367  0.10239  0.47237  Biso   1.000  C
  H1753    1.0000 0.22323  0.10492  0.46801  Biso   1.000  H
  C1723    1.0000 0.10361  0.10239  0.47237  Biso   1.000  C
  H1754    1.0000 0.58235  0.31290  0.48189  Biso   1.000  H
  O286     1.0000 0.10117  0.79960  0.18558  Biso   1.000  O
  H1755    1.0000 0.07892  0.76750  0.09388  Biso   1.000  H
  H1756    1.0000 0.09771  0.84221  0.09900  Biso   1.000  H
  H1757    1.0000 0.07886  0.76750  0.09388  Biso   1.000  H
  H1758    1.0000 0.09765  0.84221  0.09900  Biso   1.000  H
  H1759    1.0000 0.37956  0.76351  0.28089  Biso   1.000  H
  H1760    1.0000 0.41248  0.81818  0.23818  Biso   1.000  H
  C1724    1.0000 0.47280  0.81390  0.33339  Biso   1.000  C
  C1725    1.0000 0.47274  0.81390  0.33339  Biso   1.000  C
  H1761    1.0000 0.80057  0.05530  0.32216  Biso   1.000  H
  H1762    1.0000 0.80052  0.05530  0.32221  Biso   1.000  H
  C1726    1.0000 0.76677  0.78540  0.07077  Biso   1.000  C
  H1763    1.0000 0.46239  0.81322  0.67138  Biso   1.000  H
  C1727    1.0000 0.42844  0.75578  0.59056  Biso   1.000  C
  H1764    1.0000 0.46233  0.81322  0.67138  Biso   1.000  H
  C1728    1.0000 0.42845  0.75578  0.59061  Biso   1.000  C
  C1729    1.0000 0.51907  0.66618  0.58229  Biso   1.000  C
  H1765    1.0000 0.61345  0.66351  0.65759  Biso   1.000  H
  C1730    1.0000 0.28684  0.88852  0.72889  Biso   1.000  C
  H1766    1.0000 0.38323  0.85179  0.78970  Biso   1.000  H
  H1767    1.0000 0.35858  0.04509  0.80770  Biso   1.000  H
  C1731    1.0000 0.27208  0.00438  0.73967  Biso   1.000  C
  H1768    1.0000 0.35852  0.04509  0.80770  Biso   1.000  H
  C1732    1.0000 0.27202  0.00438  0.73967  Biso   1.000  C
  O287     1.0000 0.96480  0.87431  0.18589  Biso   1.000  O
  O288     1.0000 0.96474  0.87431  0.18589  Biso   1.000  O
  C1733    1.0000 0.11108  0.07252  0.53489  Biso   1.000  C
  C1734    1.0000 0.03037  0.13002  0.44469  Biso   1.000  C
  C1735    1.0000 0.11102  0.07252  0.53489  Biso   1.000  C
  C1736    1.0000 0.52679  0.86361  0.32497  Biso   1.000  C
  C1737    1.0000 0.49089  0.76978  0.38578  Biso   1.000  C
  C1738    1.0000 0.52673  0.86361  0.32497  Biso   1.000  C
  C1739    1.0000 0.49083  0.76978  0.38578  Biso   1.000  C
  C1740    1.0000 0.83976  0.78321  0.13249  Biso   1.000  C
  H1769    1.0000 0.76728  0.74712  0.04280  Biso   1.000  H
  H1770    1.0000 0.71501  0.78822  0.08666  Biso   1.000  H
  H1771    1.0000 0.71495  0.78822  0.08666  Biso   1.000  H
  H1772    1.0000 0.38208  0.77898  0.57377  Biso   1.000  H
  C1741    1.0000 0.44975  0.70081  0.55717  Biso   1.000  C
  H1773    1.0000 0.38203  0.77898  0.57382  Biso   1.000  H
  H1774    1.0000 0.53327  0.62931  0.55998  Biso   1.000  H
  C1742    1.0000 0.24526  0.94572  0.71009  Biso   1.000  C
  H1775    1.0000 0.26888  0.84931  0.70908  Biso   1.000  H
  H1776    1.0000 0.26882  0.84931  0.70908  Biso   1.000  H
  H1777    1.0000 0.24423  0.04261  0.72708  Biso   1.000  H
  C1743    1.0000 0.90515  0.84581  0.22429  Biso   1.000  C
  H1778    1.0000 0.16014  0.05399  0.55339  Biso   1.000  H
  C1744    1.0000 0.04525  0.07019  0.56948  Biso   1.000  C
  C1745    1.0000 0.96456  0.12758  0.47939  Biso   1.000  C
  H1779    1.0000 0.02546  0.15001  0.40288  Biso   1.000  H
  H1780    1.0000 0.51468  0.89309  0.28997  Biso   1.000  H
  C1746    1.0000 0.59886  0.86911  0.36878  Biso   1.000  C
  H1781    1.0000 0.51462  0.89309  0.28997  Biso   1.000  H
  C1747    1.0000 0.56295  0.77538  0.42955  Biso   1.000  C
  H1782    1.0000 0.45475  0.73661  0.39140  Biso   1.000  H
  C1748    1.0000 0.56296  0.77538  0.42960  Biso   1.000  C
  C1749    1.0000 0.82418  0.83511  0.17746  Biso   1.000  C
  H1783    1.0000 0.84117  0.74148  0.15510  Biso   1.000  H
  H1784    1.0000 0.89127  0.79002  0.11680  Biso   1.000  H
  H1785    1.0000 0.41758  0.68710  0.51806  Biso   1.000  H
  H1786    1.0000 0.41753  0.68710  0.51811  Biso   1.000  H
  H1787    1.0000 0.19936  0.94470  0.67780  Biso   1.000  H
  H1788    1.0000 0.89677  0.87470  0.26069  Biso   1.000  H
  H1789    1.0000 0.92509  0.80451  0.24349  Biso   1.000  H
  H1790    1.0000 0.92503  0.80451  0.24349  Biso   1.000  H
  C1750    1.0000 0.97193  0.09782  0.54176  Biso   1.000  C
  C1751    1.0000 0.97194  0.09782  0.54181  Biso   1.000  C
  H1791    1.0000 0.05015  0.05020  0.61130  Biso   1.000  H
  H1792    1.0000 0.91554  0.14612  0.46079  Biso   1.000  H
  H1793    1.0000 0.63494  0.90228  0.36317  Biso   1.000  H
  C1752    1.0000 0.61694  0.82499  0.42108  Biso   1.000  C
  H1794    1.0000 0.57507  0.74590  0.46460  Biso   1.000  H
  H1795    1.0000 0.57501  0.74590  0.46460  Biso   1.000  H
  H1796    1.0000 0.78187  0.82271  0.20308  Biso   1.000  H
  H1797    1.0000 0.80777  0.87441  0.15259  Biso   1.000  H
  H1798    1.0000 0.92794  0.09621  0.56497  Biso   1.000  H
  H1799    1.0000 0.66513  0.82869  0.45046  Biso   1.000  H
  H1800    1.0000 0.66514  0.82869  0.45051  Biso   1.000  H
  C1753    1.0000 0.74415  0.31660  0.55662  Biso   1.000  C
  O289     1.0000 0.79013  0.34481  0.51039  Biso   1.000  O
  C1754    1.0000 0.77016  0.28032  0.52578  Biso   1.000  C
  C1755    1.0000 0.80252  0.29520  0.61618  Biso   1.000  C
  H1801    1.0000 0.70645  0.34812  0.56990  Biso   1.000  H
  H1802    1.0000 0.71379  0.27959  0.53631  Biso   1.000  H
  H1803    1.0000 0.71833  0.27939  0.54198  Biso   1.000  H
  C1756    1.0000 0.74543  0.36850  0.45068  Biso   1.000  C
  C1757    1.0000 0.83543  0.25541  0.57878  Biso   1.000  C
  H1804    1.0000 0.76633  0.25332  0.48598  Biso   1.000  H
  C1758    1.0000 0.87093  0.25069  0.60811  Biso   1.000  C
  H1805    1.0000 0.77125  0.27448  0.64702  Biso   1.000  H
  H1806    1.0000 0.82583  0.33431  0.63819  Biso   1.000  H
  H1807    1.0000 0.81677  0.33562  0.63197  Biso   1.000  H
  H1808    1.0000 0.79626  0.27132  0.66717  Biso   1.000  H
  C1759    1.0000 0.75880  0.34452  0.38891  Biso   1.000  C
  C1760    1.0000 0.69373  0.42098  0.45389  Biso   1.000  C
  H1809    1.0000 0.85163  0.20609  0.60650  Biso   1.000  H
  H1810    1.0000 0.88963  0.25998  0.56579  Biso   1.000  H
  C1761    1.0000 0.83533  0.29160  0.64280  Biso   1.000  C
  H1811    1.0000 0.88764  0.26052  0.56369  Biso   1.000  H
  H1812    1.0000 0.82705  0.20949  0.58610  Biso   1.000  H
  C1762    1.0000 0.94066  0.25731  0.66391  Biso   1.000  C
  C1763    1.0000 0.72047  0.37312  0.33010  Biso   1.000  C
  O290     1.0000 0.80728  0.28781  0.38881  Biso   1.000  O
  C1764    1.0000 0.65549  0.44949  0.39518  Biso   1.000  C
  O291     1.0000 0.68157  0.44311  0.51801  Biso   1.000  O
  C1765    1.0000 0.91466  0.29578  0.68878  Biso   1.000  C
  O292     1.0000 0.97807  0.31738  0.65539  Biso   1.000  O
  H1813    1.0000 0.97873  0.22200  0.66211  Biso   1.000  H
  H1814    1.0000 0.92144  0.25590  0.70698  Biso   1.000  H
  H1815    1.0000 0.92826  0.25322  0.70798  Biso   1.000  H
  C1766    1.0000 0.74027  0.34992  0.26282  Biso   1.000  C
  C1767    1.0000 0.66878  0.42560  0.33331  Biso   1.000  C
  C1768    1.0000 0.88655  0.30011  0.38159  Biso   1.000  C
  C1769    1.0000 0.59889  0.50620  0.40109  Biso   1.000  C
  C1770    1.0000 0.72133  0.50051  0.54138  Biso   1.000  C
  H1816    1.0000 0.90904  0.32540  0.72528  Biso   1.000  H
  C1771    1.0000 0.04694  0.33358  0.69941  Biso   1.000  C
  C1772    1.0000 0.67066  0.35318  0.20431  Biso   1.000  C
  C1773    1.0000 0.81885  0.38309  0.24908  Biso   1.000  C
  H1817    1.0000 0.75340  0.30361  0.26868  Biso   1.000  H
  H1818    1.0000 0.64315  0.44462  0.29400  Biso   1.000  H
  O293     1.0000 0.89877  0.29958  0.31441  Biso   1.000  O
  H1819    1.0000 0.92108  0.26752  0.40611  Biso   1.000  H
  H1820    1.0000 0.90228  0.34219  0.40099  Biso   1.000  H
  C1774    1.0000 0.64744  0.56929  0.40470  Biso   1.000  C
  H1821    1.0000 0.57897  0.50139  0.44421  Biso   1.000  H
  C1775    1.0000 0.52409  0.50591  0.34599  Biso   1.000  C
  H1822    1.0000 0.73635  0.49759  0.58961  Biso   1.000  H
  H1823    1.0000 0.77088  0.50440  0.52177  Biso   1.000  H
  O294     1.0000 0.67513  0.55581  0.52619  Biso   1.000  O
  C1776    1.0000 0.04502  0.38329  0.74589  Biso   1.000  C
  C1777    1.0000 0.12055  0.30760  0.68828  Biso   1.000  C
  C1778    1.0000 0.60146  0.30809  0.21799  Biso   1.000  C
  H1824    1.0000 0.68981  0.34009  0.16320  Biso   1.000  H
  H1825    1.0000 0.65108  0.39759  0.19879  Biso   1.000  H
  C1779    1.0000 0.81677  0.44078  0.21298  Biso   1.000  C
  C1780    1.0000 0.89225  0.35872  0.28062  Biso   1.000  C
  C1781    1.0000 0.65878  0.60460  0.34800  Biso   1.000  C
  C1782    1.0000 0.68465  0.58928  0.46768  Biso   1.000  C
  H1826    1.0000 0.54069  0.51929  0.30398  Biso   1.000  H
  H1827    1.0000 0.50357  0.46179  0.34028  Biso   1.000  H
  C1783    1.0000 0.45734  0.54939  0.36068  Biso   1.000  C
  O295     1.0000 0.97002  0.40488  0.75591  Biso   1.000  O
  C1784    1.0000 0.11682  0.40702  0.78118  Biso   1.000  C
  O296     1.0000 0.11874  0.25181  0.64837  Biso   1.000  O
  C1785    1.0000 0.19236  0.33129  0.72367  Biso   1.000  C
  C1786    1.0000 0.52720  0.31388  0.16660  Biso   1.000  C
  H1828    1.0000 0.62037  0.26349  0.21910  Biso   1.000  H
  H1829    1.0000 0.58746  0.31821  0.26181  Biso   1.000  H
  H1830    1.0000 0.76766  0.45712  0.19187  Biso   1.000  H
  C1787    1.0000 0.88818  0.47400  0.20832  Biso   1.000  C
  C1788    1.0000 0.96368  0.39190  0.27600  Biso   1.000  C
  H1831    1.0000 0.63397  0.59118  0.30588  Biso   1.000  H
  C1789    1.0000 0.70716  0.65991  0.35432  Biso   1.000  C
  C1790    1.0000 0.73307  0.64458  0.47389  Biso   1.000  C
  H1832    1.0000 0.47850  0.59322  0.36730  Biso   1.000  H
  H1833    1.0000 0.44067  0.53548  0.40260  Biso   1.000  H
  C1791    1.0000 0.38226  0.55129  0.30669  Biso   1.000  C
  C1792    1.0000 0.94896  0.46369  0.72478  Biso   1.000  C
  C1793    1.0000 0.19045  0.38100  0.77020  Biso   1.000  C
  C1794    1.0000 0.11261  0.46179  0.82991  Biso   1.000  C
  C1795    1.0000 0.13003  0.26339  0.58239  Biso   1.000  C
  C1796    1.0000 0.26936  0.30498  0.70708  Biso   1.000  C
  C1797    1.0000 0.47320  0.36359  0.17498  Biso   1.000  C
  C1798    1.0000 0.50911  0.26981  0.11421  Biso   1.000  C
  C1799    1.0000 0.88728  0.53821  0.17011  Biso   1.000  C
  C1800    1.0000 0.96157  0.44958  0.23980  Biso   1.000  C
  O297     1.0000 0.03520  0.37429  0.31411  Biso   1.000  O
  C1801    1.0000 0.74435  0.67990  0.41719  Biso   1.000  C
  C1802    1.0000 0.73057  0.69502  0.29290  Biso   1.000  C
  O298     1.0000 0.78266  0.65558  0.53381  Biso   1.000  O
  C1803    1.0000 0.34070  0.49419  0.28799  Biso   1.000  C
  C1804    1.0000 0.35540  0.61000  0.27721  Biso   1.000  C
  H1834    1.0000 0.97732  0.46802  0.68637  Biso   1.000  H
  H1835    1.0000 0.89143  0.46311  0.70808  Biso   1.000  H
  O299     1.0000 0.96582  0.51802  0.76559  Biso   1.000  O
  H1836    1.0000 0.23845  0.39691  0.79382  Biso   1.000  H
  H1837    1.0000 0.06070  0.45810  0.84671  Biso   1.000  H
  C1805    1.0000 0.18061  0.46009  0.89218  Biso   1.000  C
  C1806    1.0000 0.11176  0.52600  0.79171  Biso   1.000  C
  O300     1.0000 0.21243  0.26188  0.57321  Biso   1.000  O
  H1838    1.0000 0.10063  0.23090  0.55371  Biso   1.000  H
  H1839    1.0000 0.10753  0.30561  0.56860  Biso   1.000  H
  C1807    1.0000 0.29273  0.34009  0.64571  Biso   1.000  C
  H1840    1.0000 0.25856  0.25969  0.69349  Biso   1.000  H
  C1808    1.0000 0.33613  0.30288  0.76910  Biso   1.000  C
  C1809    1.0000 0.40108  0.36908  0.13121  Biso   1.000  C
  H1841    1.0000 0.48525  0.39311  0.20997  Biso   1.000  H
  C1810    1.0000 0.43698  0.27540  0.07039  Biso   1.000  C
  H1842    1.0000 0.54518  0.23659  0.10860  Biso   1.000  H
  C1811    1.0000 0.88306  0.59298  0.21880  Biso   1.000  C
  H1843    1.0000 0.93918  0.54190  0.15332  Biso   1.000  H
  C1812    1.0000 0.81926  0.53991  0.10779  Biso   1.000  C
  O301     1.0000 0.03405  0.48198  0.23439  Biso   1.000  O
  C1813    1.0000 0.09478  0.34579  0.27570  Biso   1.000  C
  O302     1.0000 0.78746  0.73812  0.42681  Biso   1.000  O
  C1814    1.0000 0.80757  0.66871  0.27630  Biso   1.000  C
  H1844    1.0000 0.74137  0.74031  0.30649  Biso   1.000  H
  C1815    1.0000 0.66375  0.69712  0.23088  Biso   1.000  C
  C1816    1.0000 0.76678  0.71458  0.57081  Biso   1.000  C
  H1845    1.0000 0.35857  0.45489  0.30769  Biso   1.000  H
  C1817    1.0000 0.27208  0.49560  0.23970  Biso   1.000  C
  C1818    1.0000 0.28689  0.61151  0.22887  Biso   1.000  C
  H1846    1.0000 0.38329  0.64818  0.28969  Biso   1.000  H
  C1819    1.0000 0.03836  0.55042  0.76017  Biso   1.000  C
  H1847    1.0000 0.17643  0.49861  0.91931  Biso   1.000  H
  H1848    1.0000 0.23300  0.46092  0.87709  Biso   1.000  H
  C1820    1.0000 0.17433  0.39861  0.93570  Biso   1.000  C
  C1821    1.0000 0.18311  0.55922  0.78700  Biso   1.000  C
  C1822    1.0000 0.25552  0.32010  0.58279  Biso   1.000  C
  C1823    1.0000 0.34115  0.39540  0.65198  Biso   1.000  C
  H1849    1.0000 0.31340  0.28469  0.80660  Biso   1.000  H
  H1850    1.0000 0.35313  0.34700  0.78088  Biso   1.000  H
  C1824    1.0000 0.40315  0.26689  0.75957  Biso   1.000  C
  H1851    1.0000 0.36500  0.40231  0.13682  Biso   1.000  H
  C1825    1.0000 0.38300  0.32502  0.07892  Biso   1.000  C
  H1852    1.0000 0.42493  0.24588  0.03540  Biso   1.000  H
  C1826    1.0000 0.95486  0.61671  0.25409  Biso   1.000  C
  C1827    1.0000 0.80948  0.61900  0.22978  Biso   1.000  C
  H1853    1.0000 0.82352  0.50139  0.08072  Biso   1.000  H
  H1854    1.0000 0.76688  0.53908  0.12289  Biso   1.000  H
  C1828    1.0000 0.82560  0.60139  0.06428  Biso   1.000  C
  C1829    1.0000 0.05097  0.53631  0.27520  Biso   1.000  C
  H1855    1.0000 0.10317  0.37468  0.23930  Biso   1.000  H
  H1856    1.0000 0.07491  0.30449  0.25650  Biso   1.000  H
  C1830    1.0000 0.17575  0.33508  0.32248  Biso   1.000  C
  C1831    1.0000 0.86984  0.73661  0.41759  Biso   1.000  C
  C1832    1.0000 0.87939  0.69240  0.31170  Biso   1.000  C
  H1857    1.0000 0.68647  0.71531  0.19338  Biso   1.000  H
  H1858    1.0000 0.64681  0.65300  0.21910  Biso   1.000  H
  C1833    1.0000 0.59679  0.73311  0.24041  Biso   1.000  C
  C1834    1.0000 0.83976  0.71682  0.63248  Biso   1.000  C
  H1859    1.0000 0.76727  0.75291  0.54278  Biso   1.000  H
  H1860    1.0000 0.71496  0.71181  0.58670  Biso   1.000  H
  H1861    1.0000 0.24430  0.45742  0.22712  Biso   1.000  H
  C1835    1.0000 0.24526  0.55431  0.21007  Biso   1.000  C
  H1862    1.0000 0.26889  0.65071  0.20912  Biso   1.000  H
  C1836    1.0000 0.03626  0.60810  0.72398  Biso   1.000  C
  H1863    1.0000 0.22323  0.39511  0.96799  Biso   1.000  H
  H1864    1.0000 0.17163  0.36072  0.90687  Biso   1.000  H
  C1837    1.0000 0.10362  0.39759  0.97240  Biso   1.000  C
  C1838    1.0000 0.18102  0.61691  0.75090  Biso   1.000  C
  H1865    1.0000 0.23221  0.54288  0.80810  Biso   1.000  H
  C1839    1.0000 0.26686  0.35542  0.52609  Biso   1.000  C
  C1840    1.0000 0.35243  0.43071  0.59527  Biso   1.000  C
  H1866    1.0000 0.36597  0.40882  0.69409  Biso   1.000  H
  H1867    1.0000 0.38555  0.22978  0.73140  Biso   1.000  H
  H1868    1.0000 0.43765  0.29340  0.73581  Biso   1.000  H
  C1841    1.0000 0.45405  0.24169  0.82590  Biso   1.000  C
  H1869    1.0000 0.33480  0.32871  0.04949  Biso   1.000  H
  C1842    1.0000 0.95301  0.66642  0.30062  Biso   1.000  C
  O303     1.0000 0.02987  0.59512  0.24412  Biso   1.000  O
  H1870    1.0000 0.76149  0.60309  0.20621  Biso   1.000  H
  H1871    1.0000 0.77671  0.60489  0.03199  Biso   1.000  H
  H1872    1.0000 0.82830  0.63928  0.09310  Biso   1.000  H
  C1843    1.0000 0.89632  0.60241  0.02758  Biso   1.000  C
  H1873    1.0000 0.02255  0.53198  0.31361  Biso   1.000  H
  H1874    1.0000 0.10850  0.53689  0.29190  Biso   1.000  H
  H1875    1.0000 0.21807  0.32268  0.29691  Biso   1.000  H
  H1876    1.0000 0.19217  0.37439  0.34740  Biso   1.000  H
  C1844    1.0000 0.16017  0.28318  0.36750  Biso   1.000  C
  O304     1.0000 0.88120  0.74819  0.35161  Biso   1.000  O
  H1877    1.0000 0.89926  0.76910  0.44632  Biso   1.000  H
  H1878    1.0000 0.89234  0.69439  0.43138  Biso   1.000  H
  H1879    1.0000 0.61439  0.77022  0.26858  Biso   1.000  H
  H1880    1.0000 0.56229  0.70660  0.26422  Biso   1.000  H
  C1845    1.0000 0.54588  0.75831  0.17407  Biso   1.000  C
  C1846    1.0000 0.82412  0.66492  0.67750  Biso   1.000  C
  H1881    1.0000 0.84117  0.75850  0.65509  Biso   1.000  H
  H1882    1.0000 0.89126  0.71001  0.61678  Biso   1.000  H
  H1883    1.0000 0.19936  0.55528  0.17779  Biso   1.000  H
  O305     1.0000 0.96474  0.62571  0.68587  Biso   1.000  O
  C1847    1.0000 0.10763  0.64128  0.71941  Biso   1.000  C
  C1848    1.0000 0.03030  0.37001  0.94468  Biso   1.000  C
  C1849    1.0000 0.11108  0.42750  0.03487  Biso   1.000  C
  C1850    1.0000 0.25962  0.65008  0.73721  Biso   1.000  C
  O306     1.0000 0.21728  0.34442  0.46617  Biso   1.000  O
  C1851    1.0000 0.31528  0.41072  0.53230  Biso   1.000  C
  C1852    1.0000 0.40104  0.49380  0.59888  Biso   1.000  C
  C1853    1.0000 0.52331  0.27628  0.85097  Biso   1.000  C
  C1854    1.0000 0.43273  0.18658  0.85919  Biso   1.000  C
  O307     1.0000 0.02187  0.68262  0.34459  Biso   1.000  O
  C1855    1.0000 0.96957  0.62999  0.05530  Biso   1.000  C
  C1856    1.0000 0.88886  0.57250  0.96510  Biso   1.000  C
  H1884    1.0000 0.15876  0.24150  0.34489  Biso   1.000  H
  H1885    1.0000 0.10867  0.28999  0.38320  Biso   1.000  H
  C1857    1.0000 0.23316  0.28542  0.42917  Biso   1.000  C
  C1858    1.0000 0.47657  0.72372  0.14901  Biso   1.000  C
  C1859    1.0000 0.56720  0.81342  0.14078  Biso   1.000  C
  C1860    1.0000 0.90515  0.65421  0.72428  Biso   1.000  C
  H1886    1.0000 0.78186  0.67732  0.70307  Biso   1.000  H
  H1887    1.0000 0.80777  0.62561  0.65258  Biso   1.000  H
  O308     1.0000 0.10116  0.70042  0.68557  Biso   1.000  O
  C1861    1.0000 0.96449  0.37239  0.97937  Biso   1.000  C
  H1888    1.0000 0.02541  0.35002  0.90291  Biso   1.000  H
  H1889    1.0000 0.16020  0.44598  0.05337  Biso   1.000  H
  C1862    1.0000 0.04525  0.42979  0.06947  Biso   1.000  C
  C1863    1.0000 0.27946  0.62688  0.66988  Biso   1.000  C
  H1890    1.0000 0.24654  0.69639  0.73130  Biso   1.000  H
  C1864    1.0000 0.32921  0.64682  0.79567  Biso   1.000  C
  O309     1.0000 0.32474  0.44419  0.47379  Biso   1.000  O
  C1865    1.0000 0.34445  0.55051  0.60480  Biso   1.000  C
  H1891    1.0000 0.42098  0.49861  0.55582  Biso   1.000  H
  C1866    1.0000 0.47584  0.49409  0.65398  Biso   1.000  C
  H1892    1.0000 0.53755  0.31320  0.82861  Biso   1.000  H
  C1867    1.0000 0.57142  0.25580  0.90938  Biso   1.000  C
  C1868    1.0000 0.48081  0.16620  0.91770  Biso   1.000  C
  H1893    1.0000 0.38643  0.16348  0.84240  Biso   1.000  H
  C1869    1.0000 0.05929  0.74269  0.33612  Biso   1.000  C
  C1870    1.0000 0.08528  0.70422  0.31120  Biso   1.000  C
  H1894    1.0000 0.97447  0.64998  0.09711  Biso   1.000  H
  C1871    1.0000 0.03538  0.62761  0.02061  Biso   1.000  C
  H1895    1.0000 0.83974  0.55402  0.94660  Biso   1.000  H
  C1872    1.0000 0.95463  0.57021  0.93051  Biso   1.000  C
  H1896    1.0000 0.23266  0.24709  0.45720  Biso   1.000  H
  H1897    1.0000 0.28498  0.28819  0.41328  Biso   1.000  H
  H1898    1.0000 0.46239  0.68680  0.17142  Biso   1.000  H
  C1873    1.0000 0.42851  0.74420  0.09060  Biso   1.000  C
  C1874    1.0000 0.51907  0.83380  0.08227  Biso   1.000  C
  H1899    1.0000 0.61351  0.83652  0.15758  Biso   1.000  H
  H1900    1.0000 0.89670  0.62532  0.76068  Biso   1.000  H
  H1901    1.0000 0.92503  0.69551  0.74348  Biso   1.000  H
  C1875    1.0000 0.11332  0.69989  0.61839  Biso   1.000  C
  H1902    1.0000 0.91554  0.35391  0.96077  Biso   1.000  H
  C1876    1.0000 0.97200  0.40221  0.04179  Biso   1.000  C
  H1903    1.0000 0.05015  0.44978  0.11128  Biso   1.000  H
  C1877    1.0000 0.24115  0.65548  0.61112  Biso   1.000  C
  C1878    1.0000 0.33116  0.57440  0.66667  Biso   1.000  C
  H1904    1.0000 0.31013  0.65991  0.83678  Biso   1.000  H
  H1905    1.0000 0.34886  0.60241  0.80119  Biso   1.000  H
  C1879    1.0000 0.39842  0.69191  0.78198  Biso   1.000  C
  C1880    1.0000 0.27855  0.49949  0.45860  Biso   1.000  C
  C1881    1.0000 0.30614  0.57902  0.54609  Biso   1.000  C
  H1906    1.0000 0.45925  0.48071  0.69600  Biso   1.000  H
  H1907    1.0000 0.49636  0.53821  0.65970  Biso   1.000  H
  C1882    1.0000 0.54254  0.45061  0.63929  Biso   1.000  C
  H1908    1.0000 0.61785  0.27900  0.92618  Biso   1.000  H
  C1883    1.0000 0.55012  0.20079  0.94277  Biso   1.000  C
  H1909    1.0000 0.46661  0.12929  0.94001  Biso   1.000  H
  C1884    1.0000 0.12895  0.74931  0.39192  Biso   1.000  C
  H1910    1.0000 0.02115  0.77800  0.33787  Biso   1.000  H
  H1911    1.0000 0.07850  0.74410  0.29300  Biso   1.000  H
  H1912    1.0000 0.07168  0.74678  0.29200  Biso   1.000  H
  H1913    1.0000 0.09090  0.67460  0.27470  Biso   1.000  H
  C1885    1.0000 0.16455  0.70840  0.35717  Biso   1.000  C
  C1886    1.0000 0.02793  0.59779  0.95819  Biso   1.000  C
  H1914    1.0000 0.08440  0.64609  0.03921  Biso   1.000  H
  H1915    1.0000 0.94973  0.55022  0.88870  Biso   1.000  H
  H1916    1.0000 0.38209  0.72100  0.07380  Biso   1.000  H
  C1887    1.0000 0.44982  0.79921  0.05721  Biso   1.000  C
  H1917    1.0000 0.53327  0.87071  0.06001  Biso   1.000  H
  O310     1.0000 0.19266  0.71219  0.61122  Biso   1.000  O
  H1918    1.0000 0.07886  0.73248  0.59387  Biso   1.000  H
  H1919    1.0000 0.09765  0.65781  0.59898  Biso   1.000  H
  H1920    1.0000 0.92794  0.40381  0.06501  Biso   1.000  H
  C1888    1.0000 0.25444  0.63150  0.54930  Biso   1.000  C
  H1921    1.0000 0.35673  0.55538  0.70598  Biso   1.000  H
  H1922    1.0000 0.37956  0.73651  0.78088  Biso   1.000  H
  H1923    1.0000 0.41243  0.68179  0.73821  Biso   1.000  H
  C1889    1.0000 0.47273  0.68612  0.83337  Biso   1.000  C
  O311     1.0000 0.31838  0.55689  0.48202  Biso   1.000  O
  H1924    1.0000 0.26360  0.50241  0.41042  Biso   1.000  H
  H1925    1.0000 0.22906  0.49560  0.47820  Biso   1.000  H
  H1926    1.0000 0.52144  0.40678  0.63268  Biso   1.000  H
  H1927    1.0000 0.55927  0.46452  0.59738  Biso   1.000  H
  C1890    1.0000 0.61762  0.44871  0.69329  Biso   1.000  C
  H1928    1.0000 0.58229  0.18712  0.98188  Biso   1.000  H
  C1891    1.0000 0.19736  0.70480  0.38380  Biso   1.000  C
  H1929    1.0000 0.14825  0.79391  0.39347  Biso   1.000  H
  H1930    1.0000 0.11025  0.74002  0.43418  Biso   1.000  H
  H1931    1.0000 0.11224  0.73948  0.43629  Biso   1.000  H
  H1932    1.0000 0.17289  0.79051  0.41388  Biso   1.000  H
  H1933    1.0000 0.22870  0.72552  0.35301  Biso   1.000  H
  H1934    1.0000 0.17404  0.66569  0.36179  Biso   1.000  H
  H1935    1.0000 0.18317  0.66438  0.36800  Biso   1.000  H
  H1936    1.0000 0.20367  0.72868  0.33281  Biso   1.000  H
  C1892    1.0000 0.16445  0.74459  0.42120  Biso   1.000  C
  H1937    1.0000 0.07194  0.59619  0.93502  Biso   1.000  H
  H1938    1.0000 0.41759  0.81288  0.01810  Biso   1.000  H
  O312     1.0000 0.20974  0.65519  0.48959  Biso   1.000  O
  C1893    1.0000 0.52674  0.63641  0.82500  Biso   1.000  C
  C1894    1.0000 0.49083  0.73019  0.88577  Biso   1.000  C
  C1895    1.0000 0.65924  0.50581  0.71199  Biso   1.000  C
  C1896    1.0000 0.64454  0.39000  0.72277  Biso   1.000  C
  C1897    1.0000 0.25574  0.68340  0.44341  Biso   1.000  C
  C1898    1.0000 0.22978  0.71968  0.47419  Biso   1.000  C
  H1939    1.0000 0.51462  0.60689  0.79001  Biso   1.000  H
  C1899    1.0000 0.59880  0.63092  0.86877  Biso   1.000  C
  C1900    1.0000 0.56289  0.72460  0.92959  Biso   1.000  C
  H1940    1.0000 0.45475  0.76341  0.89138  Biso   1.000  H
  H1941    1.0000 0.64136  0.54511  0.69229  Biso   1.000  H
  C1901    1.0000 0.72785  0.50440  0.76027  Biso   1.000  C
  C1902    1.0000 0.71304  0.38849  0.77110  Biso   1.000  C
  H1942    1.0000 0.61665  0.35182  0.71029  Biso   1.000  H
  H1943    1.0000 0.29348  0.65188  0.43007  Biso   1.000  H
  H1944    1.0000 0.28616  0.72041  0.46372  Biso   1.000  H
  H1945    1.0000 0.28155  0.72061  0.45800  Biso   1.000  H
  H1946    1.0000 0.23354  0.74668  0.51400  Biso   1.000  H
  H1947    1.0000 0.63494  0.59769  0.86321  Biso   1.000  H
  C1903    1.0000 0.61694  0.67498  0.92111  Biso   1.000  C
  H1948    1.0000 0.57501  0.75412  0.96458  Biso   1.000  H
  H1949    1.0000 0.75565  0.54258  0.77291  Biso   1.000  H
  C1904    1.0000 0.75462  0.44569  0.78991  Biso   1.000  C
  H1950    1.0000 0.73105  0.34929  0.79091  Biso   1.000  H
  H1951    1.0000 0.66514  0.67129  0.95049  Biso   1.000  H
  H1952    1.0000 0.80052  0.44472  0.82219  Biso   1.000  H
  C1905    1.0000 0.74415  0.31660  0.55662  Biso   1.000  C
  O313     1.0000 0.79013  0.34481  0.51039  Biso   1.000  O
  C1906    1.0000 0.77016  0.28032  0.52578  Biso   1.000  C
  C1907    1.0000 0.80252  0.29520  0.61618  Biso   1.000  C
  H1953    1.0000 0.70645  0.34812  0.56990  Biso   1.000  H
  H1954    1.0000 0.71379  0.27959  0.53631  Biso   1.000  H
  H1955    1.0000 0.71833  0.27939  0.54198  Biso   1.000  H
  C1908    1.0000 0.74543  0.36850  0.45068  Biso   1.000  C
  C1909    1.0000 0.83543  0.25541  0.57878  Biso   1.000  C
  H1956    1.0000 0.76633  0.25332  0.48598  Biso   1.000  H
  C1910    1.0000 0.87093  0.25069  0.60811  Biso   1.000  C
  H1957    1.0000 0.77125  0.27448  0.64702  Biso   1.000  H
  H1958    1.0000 0.82583  0.33431  0.63819  Biso   1.000  H
  H1959    1.0000 0.81677  0.33562  0.63197  Biso   1.000  H
  H1960    1.0000 0.79626  0.27132  0.66717  Biso   1.000  H
  C1911    1.0000 0.75880  0.34452  0.38891  Biso   1.000  C
  C1912    1.0000 0.69373  0.42098  0.45389  Biso   1.000  C
  H1961    1.0000 0.85163  0.20609  0.60650  Biso   1.000  H
  H1962    1.0000 0.88963  0.25998  0.56579  Biso   1.000  H
  C1913    1.0000 0.83533  0.29160  0.64280  Biso   1.000  C
  H1963    1.0000 0.88764  0.26052  0.56369  Biso   1.000  H
  H1964    1.0000 0.82705  0.20949  0.58610  Biso   1.000  H
  C1914    1.0000 0.94066  0.25731  0.66391  Biso   1.000  C
  C1915    1.0000 0.72047  0.37312  0.33010  Biso   1.000  C
  O314     1.0000 0.80728  0.28781  0.38881  Biso   1.000  O
  C1916    1.0000 0.65549  0.44949  0.39518  Biso   1.000  C
  O315     1.0000 0.68157  0.44311  0.51801  Biso   1.000  O
  C1917    1.0000 0.91466  0.29578  0.68878  Biso   1.000  C
  O316     1.0000 0.97807  0.31738  0.65539  Biso   1.000  O
  H1965    1.0000 0.97873  0.22200  0.66211  Biso   1.000  H
  H1966    1.0000 0.92144  0.25590  0.70698  Biso   1.000  H
  H1967    1.0000 0.92826  0.25322  0.70798  Biso   1.000  H
  C1918    1.0000 0.74027  0.34992  0.26282  Biso   1.000  C
  C1919    1.0000 0.66878  0.42560  0.33331  Biso   1.000  C
  C1920    1.0000 0.88655  0.30011  0.38159  Biso   1.000  C
  C1921    1.0000 0.59889  0.50620  0.40109  Biso   1.000  C
  C1922    1.0000 0.72133  0.50051  0.54138  Biso   1.000  C
  H1968    1.0000 0.90904  0.32540  0.72528  Biso   1.000  H
  C1923    1.0000 0.04694  0.33358  0.69941  Biso   1.000  C
  C1924    1.0000 0.67066  0.35318  0.20431  Biso   1.000  C
  C1925    1.0000 0.81885  0.38309  0.24908  Biso   1.000  C
  H1969    1.0000 0.75340  0.30361  0.26868  Biso   1.000  H
  H1970    1.0000 0.64315  0.44462  0.29400  Biso   1.000  H
  O317     1.0000 0.89877  0.29958  0.31441  Biso   1.000  O
  H1971    1.0000 0.92108  0.26752  0.40611  Biso   1.000  H
  H1972    1.0000 0.90228  0.34219  0.40099  Biso   1.000  H
  C1926    1.0000 0.64744  0.56929  0.40470  Biso   1.000  C
  H1973    1.0000 0.57897  0.50139  0.44421  Biso   1.000  H
  C1927    1.0000 0.52409  0.50591  0.34599  Biso   1.000  C
  H1974    1.0000 0.73635  0.49759  0.58961  Biso   1.000  H
  H1975    1.0000 0.77088  0.50440  0.52177  Biso   1.000  H
  O318     1.0000 0.67513  0.55581  0.52619  Biso   1.000  O
  C1928    1.0000 0.04502  0.38329  0.74589  Biso   1.000  C
  C1929    1.0000 0.12055  0.30760  0.68828  Biso   1.000  C
  C1930    1.0000 0.60146  0.30809  0.21799  Biso   1.000  C
  H1976    1.0000 0.68981  0.34009  0.16320  Biso   1.000  H
  H1977    1.0000 0.65108  0.39759  0.19879  Biso   1.000  H
  C1931    1.0000 0.81677  0.44078  0.21298  Biso   1.000  C
  C1932    1.0000 0.89225  0.35872  0.28062  Biso   1.000  C
  C1933    1.0000 0.65878  0.60460  0.34800  Biso   1.000  C
  C1934    1.0000 0.68465  0.58928  0.46768  Biso   1.000  C
  H1978    1.0000 0.54069  0.51929  0.30398  Biso   1.000  H
  H1979    1.0000 0.50357  0.46179  0.34028  Biso   1.000  H
  C1935    1.0000 0.45734  0.54939  0.36068  Biso   1.000  C
  O319     1.0000 0.97002  0.40488  0.75591  Biso   1.000  O
  C1936    1.0000 0.11682  0.40702  0.78118  Biso   1.000  C
  O320     1.0000 0.11874  0.25181  0.64837  Biso   1.000  O
  C1937    1.0000 0.19236  0.33129  0.72367  Biso   1.000  C
  C1938    1.0000 0.52720  0.31388  0.16660  Biso   1.000  C
  H1980    1.0000 0.62037  0.26349  0.21910  Biso   1.000  H
  H1981    1.0000 0.58746  0.31821  0.26181  Biso   1.000  H
  H1982    1.0000 0.76766  0.45712  0.19187  Biso   1.000  H
  C1939    1.0000 0.88818  0.47400  0.20832  Biso   1.000  C
  C1940    1.0000 0.96368  0.39190  0.27600  Biso   1.000  C
  H1983    1.0000 0.63397  0.59118  0.30588  Biso   1.000  H
  C1941    1.0000 0.70716  0.65991  0.35432  Biso   1.000  C
  C1942    1.0000 0.73307  0.64458  0.47389  Biso   1.000  C
  H1984    1.0000 0.47850  0.59322  0.36730  Biso   1.000  H
  H1985    1.0000 0.44067  0.53548  0.40260  Biso   1.000  H
  C1943    1.0000 0.38226  0.55129  0.30669  Biso   1.000  C
  C1944    1.0000 0.94896  0.46369  0.72478  Biso   1.000  C
  C1945    1.0000 0.19045  0.38100  0.77020  Biso   1.000  C
  C1946    1.0000 0.11261  0.46179  0.82991  Biso   1.000  C
  C1947    1.0000 0.13003  0.26339  0.58239  Biso   1.000  C
  C1948    1.0000 0.26936  0.30498  0.70708  Biso   1.000  C
  C1949    1.0000 0.47320  0.36359  0.17498  Biso   1.000  C
  C1950    1.0000 0.50911  0.26981  0.11421  Biso   1.000  C
  C1951    1.0000 0.88728  0.53821  0.17011  Biso   1.000  C
  C1952    1.0000 0.96157  0.44958  0.23980  Biso   1.000  C
  O321     1.0000 0.03520  0.37429  0.31411  Biso   1.000  O
  C1953    1.0000 0.74435  0.67990  0.41719  Biso   1.000  C
  C1954    1.0000 0.73057  0.69502  0.29290  Biso   1.000  C
  O322     1.0000 0.78266  0.65558  0.53381  Biso   1.000  O
  C1955    1.0000 0.34070  0.49419  0.28799  Biso   1.000  C
  C1956    1.0000 0.35540  0.61000  0.27721  Biso   1.000  C
  H1986    1.0000 0.97732  0.46802  0.68637  Biso   1.000  H
  H1987    1.0000 0.89143  0.46311  0.70808  Biso   1.000  H
  O323     1.0000 0.96582  0.51802  0.76559  Biso   1.000  O
  H1988    1.0000 0.23845  0.39691  0.79382  Biso   1.000  H
  H1989    1.0000 0.06070  0.45810  0.84671  Biso   1.000  H
  C1957    1.0000 0.18061  0.46009  0.89218  Biso   1.000  C
  C1958    1.0000 0.11176  0.52600  0.79171  Biso   1.000  C
  O324     1.0000 0.21243  0.26188  0.57321  Biso   1.000  O
  H1990    1.0000 0.10063  0.23090  0.55371  Biso   1.000  H
  H1991    1.0000 0.10753  0.30561  0.56860  Biso   1.000  H
  C1959    1.0000 0.29273  0.34009  0.64571  Biso   1.000  C
  H1992    1.0000 0.25856  0.25969  0.69349  Biso   1.000  H
  C1960    1.0000 0.33613  0.30288  0.76910  Biso   1.000  C
  C1961    1.0000 0.40108  0.36908  0.13121  Biso   1.000  C
  H1993    1.0000 0.48525  0.39311  0.20997  Biso   1.000  H
  C1962    1.0000 0.43698  0.27540  0.07039  Biso   1.000  C
  H1994    1.0000 0.54518  0.23659  0.10860  Biso   1.000  H
  C1963    1.0000 0.88306  0.59298  0.21880  Biso   1.000  C
  H1995    1.0000 0.93918  0.54190  0.15332  Biso   1.000  H
  C1964    1.0000 0.81926  0.53991  0.10779  Biso   1.000  C
  O325     1.0000 0.03405  0.48198  0.23439  Biso   1.000  O
  C1965    1.0000 0.09478  0.34579  0.27570  Biso   1.000  C
  O326     1.0000 0.78746  0.73812  0.42681  Biso   1.000  O
  C1966    1.0000 0.80757  0.66871  0.27630  Biso   1.000  C
  H1996    1.0000 0.74137  0.74031  0.30649  Biso   1.000  H
  C1967    1.0000 0.66375  0.69712  0.23088  Biso   1.000  C
  C1968    1.0000 0.76678  0.71458  0.57081  Biso   1.000  C
  H1997    1.0000 0.35857  0.45489  0.30769  Biso   1.000  H
  C1969    1.0000 0.27208  0.49560  0.23970  Biso   1.000  C
  C1970    1.0000 0.28689  0.61151  0.22887  Biso   1.000  C
  H1998    1.0000 0.38329  0.64818  0.28969  Biso   1.000  H
  C1971    1.0000 0.03836  0.55042  0.76017  Biso   1.000  C
  H1999    1.0000 0.17643  0.49861  0.91931  Biso   1.000  H
  H2000    1.0000 0.23300  0.46092  0.87709  Biso   1.000  H
  C1972    1.0000 0.17433  0.39861  0.93570  Biso   1.000  C
  C1973    1.0000 0.18311  0.55922  0.78700  Biso   1.000  C
  C1974    1.0000 0.25552  0.32010  0.58279  Biso   1.000  C
  C1975    1.0000 0.34115  0.39540  0.65198  Biso   1.000  C
  H2001    1.0000 0.31340  0.28469  0.80660  Biso   1.000  H
  H2002    1.0000 0.35313  0.34700  0.78088  Biso   1.000  H
  C1976    1.0000 0.40315  0.26689  0.75957  Biso   1.000  C
  H2003    1.0000 0.36500  0.40231  0.13682  Biso   1.000  H
  C1977    1.0000 0.38300  0.32502  0.07892  Biso   1.000  C
  H2004    1.0000 0.42493  0.24588  0.03540  Biso   1.000  H
  C1978    1.0000 0.95486  0.61671  0.25409  Biso   1.000  C
  C1979    1.0000 0.80948  0.61900  0.22978  Biso   1.000  C
  H2005    1.0000 0.82352  0.50139  0.08072  Biso   1.000  H
  H2006    1.0000 0.76688  0.53908  0.12289  Biso   1.000  H
  C1980    1.0000 0.82560  0.60139  0.06428  Biso   1.000  C
  C1981    1.0000 0.05097  0.53631  0.27520  Biso   1.000  C
  H2007    1.0000 0.10317  0.37468  0.23930  Biso   1.000  H
  H2008    1.0000 0.07491  0.30449  0.25650  Biso   1.000  H
  C1982    1.0000 0.17575  0.33508  0.32248  Biso   1.000  C
  C1983    1.0000 0.86984  0.73661  0.41759  Biso   1.000  C
  C1984    1.0000 0.87939  0.69240  0.31170  Biso   1.000  C
  H2009    1.0000 0.68647  0.71531  0.19338  Biso   1.000  H
  H2010    1.0000 0.64681  0.65300  0.21910  Biso   1.000  H
  C1985    1.0000 0.59679  0.73311  0.24041  Biso   1.000  C
  C1986    1.0000 0.83976  0.71682  0.63248  Biso   1.000  C
  H2011    1.0000 0.76727  0.75291  0.54278  Biso   1.000  H
  H2012    1.0000 0.71496  0.71181  0.58670  Biso   1.000  H
  H2013    1.0000 0.24430  0.45742  0.22712  Biso   1.000  H
  C1987    1.0000 0.24526  0.55431  0.21007  Biso   1.000  C
  H2014    1.0000 0.26889  0.65071  0.20912  Biso   1.000  H
  C1988    1.0000 0.03626  0.60810  0.72398  Biso   1.000  C
  H2015    1.0000 0.22323  0.39511  0.96799  Biso   1.000  H
  H2016    1.0000 0.17163  0.36072  0.90687  Biso   1.000  H
  C1989    1.0000 0.10362  0.39759  0.97240  Biso   1.000  C
  C1990    1.0000 0.18102  0.61691  0.75090  Biso   1.000  C
  H2017    1.0000 0.23221  0.54288  0.80810  Biso   1.000  H
  C1991    1.0000 0.26686  0.35542  0.52609  Biso   1.000  C
  C1992    1.0000 0.35243  0.43071  0.59527  Biso   1.000  C
  H2018    1.0000 0.36597  0.40882  0.69409  Biso   1.000  H
  H2019    1.0000 0.38555  0.22978  0.73140  Biso   1.000  H
  H2020    1.0000 0.43765  0.29340  0.73581  Biso   1.000  H
  C1993    1.0000 0.45405  0.24169  0.82590  Biso   1.000  C
  H2021    1.0000 0.33480  0.32871  0.04949  Biso   1.000  H
  C1994    1.0000 0.95301  0.66642  0.30062  Biso   1.000  C
  O327     1.0000 0.02987  0.59512  0.24412  Biso   1.000  O
  H2022    1.0000 0.76149  0.60309  0.20621  Biso   1.000  H
  H2023    1.0000 0.77671  0.60489  0.03199  Biso   1.000  H
  H2024    1.0000 0.82830  0.63928  0.09310  Biso   1.000  H
  C1995    1.0000 0.89632  0.60241  0.02758  Biso   1.000  C
  H2025    1.0000 0.02255  0.53198  0.31361  Biso   1.000  H
  H2026    1.0000 0.10850  0.53689  0.29190  Biso   1.000  H
  H2027    1.0000 0.21807  0.32268  0.29691  Biso   1.000  H
  H2028    1.0000 0.19217  0.37439  0.34740  Biso   1.000  H
  C1996    1.0000 0.16017  0.28318  0.36750  Biso   1.000  C
  O328     1.0000 0.88120  0.74819  0.35161  Biso   1.000  O
  H2029    1.0000 0.89926  0.76910  0.44632  Biso   1.000  H
  H2030    1.0000 0.89234  0.69439  0.43138  Biso   1.000  H
  H2031    1.0000 0.61439  0.77022  0.26858  Biso   1.000  H
  H2032    1.0000 0.56229  0.70660  0.26422  Biso   1.000  H
  C1997    1.0000 0.54588  0.75831  0.17407  Biso   1.000  C
  C1998    1.0000 0.82412  0.66492  0.67750  Biso   1.000  C
  H2033    1.0000 0.84117  0.75850  0.65509  Biso   1.000  H
  H2034    1.0000 0.89126  0.71001  0.61678  Biso   1.000  H
  H2035    1.0000 0.19936  0.55528  0.17779  Biso   1.000  H
  O329     1.0000 0.96474  0.62571  0.68587  Biso   1.000  O
  C1999    1.0000 0.10763  0.64128  0.71941  Biso   1.000  C
  C2000    1.0000 0.03030  0.37001  0.94468  Biso   1.000  C
  C2001    1.0000 0.11108  0.42750  0.03487  Biso   1.000  C
  C2002    1.0000 0.25962  0.65008  0.73721  Biso   1.000  C
  O330     1.0000 0.21728  0.34442  0.46617  Biso   1.000  O
  C2003    1.0000 0.31528  0.41072  0.53230  Biso   1.000  C
  C2004    1.0000 0.40104  0.49380  0.59888  Biso   1.000  C
  C2005    1.0000 0.52331  0.27628  0.85097  Biso   1.000  C
  C2006    1.0000 0.43273  0.18658  0.85919  Biso   1.000  C
  O331     1.0000 0.02187  0.68262  0.34459  Biso   1.000  O
  C2007    1.0000 0.96957  0.62999  0.05530  Biso   1.000  C
  C2008    1.0000 0.88886  0.57250  0.96510  Biso   1.000  C
  H2036    1.0000 0.15876  0.24150  0.34489  Biso   1.000  H
  H2037    1.0000 0.10867  0.28999  0.38320  Biso   1.000  H
  C2009    1.0000 0.23316  0.28542  0.42917  Biso   1.000  C
  C2010    1.0000 0.47657  0.72372  0.14901  Biso   1.000  C
  C2011    1.0000 0.56720  0.81342  0.14078  Biso   1.000  C
  C2012    1.0000 0.90515  0.65421  0.72428  Biso   1.000  C
  H2038    1.0000 0.78186  0.67732  0.70307  Biso   1.000  H
  H2039    1.0000 0.80777  0.62561  0.65258  Biso   1.000  H
  O332     1.0000 0.10116  0.70042  0.68557  Biso   1.000  O
  C2013    1.0000 0.96449  0.37239  0.97937  Biso   1.000  C
  H2040    1.0000 0.02541  0.35002  0.90291  Biso   1.000  H
  H2041    1.0000 0.16020  0.44598  0.05337  Biso   1.000  H
  C2014    1.0000 0.04525  0.42979  0.06947  Biso   1.000  C
  C2015    1.0000 0.27946  0.62688  0.66988  Biso   1.000  C
  H2042    1.0000 0.24654  0.69639  0.73130  Biso   1.000  H
  C2016    1.0000 0.32921  0.64682  0.79567  Biso   1.000  C
  O333     1.0000 0.32474  0.44419  0.47379  Biso   1.000  O
  C2017    1.0000 0.34445  0.55051  0.60480  Biso   1.000  C
  H2043    1.0000 0.42098  0.49861  0.55582  Biso   1.000  H
  C2018    1.0000 0.47584  0.49409  0.65398  Biso   1.000  C
  H2044    1.0000 0.53755  0.31320  0.82861  Biso   1.000  H
  C2019    1.0000 0.57142  0.25580  0.90938  Biso   1.000  C
  C2020    1.0000 0.48081  0.16620  0.91770  Biso   1.000  C
  H2045    1.0000 0.38643  0.16348  0.84240  Biso   1.000  H
  C2021    1.0000 0.05929  0.74269  0.33612  Biso   1.000  C
  C2022    1.0000 0.08528  0.70422  0.31120  Biso   1.000  C
  H2046    1.0000 0.97447  0.64998  0.09711  Biso   1.000  H
  C2023    1.0000 0.03538  0.62761  0.02061  Biso   1.000  C
  H2047    1.0000 0.83974  0.55402  0.94660  Biso   1.000  H
  C2024    1.0000 0.95463  0.57021  0.93051  Biso   1.000  C
  H2048    1.0000 0.23266  0.24709  0.45720  Biso   1.000  H
  H2049    1.0000 0.28498  0.28819  0.41328  Biso   1.000  H
  H2050    1.0000 0.46239  0.68680  0.17142  Biso   1.000  H
  C2025    1.0000 0.42851  0.74420  0.09060  Biso   1.000  C
  C2026    1.0000 0.51907  0.83380  0.08227  Biso   1.000  C
  H2051    1.0000 0.61351  0.83652  0.15758  Biso   1.000  H
  H2052    1.0000 0.89670  0.62532  0.76068  Biso   1.000  H
  H2053    1.0000 0.92503  0.69551  0.74348  Biso   1.000  H
  C2027    1.0000 0.11332  0.69989  0.61839  Biso   1.000  C
  H2054    1.0000 0.91554  0.35391  0.96077  Biso   1.000  H
  C2028    1.0000 0.97200  0.40221  0.04179  Biso   1.000  C
  H2055    1.0000 0.05015  0.44978  0.11128  Biso   1.000  H
  C2029    1.0000 0.24115  0.65548  0.61112  Biso   1.000  C
  C2030    1.0000 0.33116  0.57440  0.66667  Biso   1.000  C
  H2056    1.0000 0.31013  0.65991  0.83678  Biso   1.000  H
  H2057    1.0000 0.34886  0.60241  0.80119  Biso   1.000  H
  C2031    1.0000 0.39842  0.69191  0.78198  Biso   1.000  C
  C2032    1.0000 0.27855  0.49949  0.45860  Biso   1.000  C
  C2033    1.0000 0.30614  0.57902  0.54609  Biso   1.000  C
  H2058    1.0000 0.45925  0.48071  0.69600  Biso   1.000  H
  H2059    1.0000 0.49636  0.53821  0.65970  Biso   1.000  H
  C2034    1.0000 0.54254  0.45061  0.63929  Biso   1.000  C
  H2060    1.0000 0.61785  0.27900  0.92618  Biso   1.000  H
  C2035    1.0000 0.55012  0.20079  0.94277  Biso   1.000  C
  H2061    1.0000 0.46661  0.12929  0.94001  Biso   1.000  H
  C2036    1.0000 0.12895  0.74931  0.39192  Biso   1.000  C
  H2062    1.0000 0.02115  0.77800  0.33787  Biso   1.000  H
  H2063    1.0000 0.07850  0.74410  0.29300  Biso   1.000  H
  H2064    1.0000 0.07168  0.74678  0.29200  Biso   1.000  H
  H2065    1.0000 0.09090  0.67460  0.27470  Biso   1.000  H
  C2037    1.0000 0.16455  0.70840  0.35717  Biso   1.000  C
  C2038    1.0000 0.02793  0.59779  0.95819  Biso   1.000  C
  H2066    1.0000 0.08440  0.64609  0.03921  Biso   1.000  H
  H2067    1.0000 0.94973  0.55022  0.88870  Biso   1.000  H
  H2068    1.0000 0.38209  0.72100  0.07380  Biso   1.000  H
  C2039    1.0000 0.44982  0.79921  0.05721  Biso   1.000  C
  H2069    1.0000 0.53327  0.87071  0.06001  Biso   1.000  H
  O334     1.0000 0.19266  0.71219  0.61122  Biso   1.000  O
  H2070    1.0000 0.07886  0.73248  0.59387  Biso   1.000  H
  H2071    1.0000 0.09765  0.65781  0.59898  Biso   1.000  H
  H2072    1.0000 0.92794  0.40381  0.06501  Biso   1.000  H
  C2040    1.0000 0.25444  0.63150  0.54930  Biso   1.000  C
  H2073    1.0000 0.35673  0.55538  0.70598  Biso   1.000  H
  H2074    1.0000 0.37956  0.73651  0.78088  Biso   1.000  H
  H2075    1.0000 0.41243  0.68179  0.73821  Biso   1.000  H
  C2041    1.0000 0.47273  0.68612  0.83337  Biso   1.000  C
  O335     1.0000 0.31838  0.55689  0.48202  Biso   1.000  O
  H2076    1.0000 0.26360  0.50241  0.41042  Biso   1.000  H
  H2077    1.0000 0.22906  0.49560  0.47820  Biso   1.000  H
  H2078    1.0000 0.52144  0.40678  0.63268  Biso   1.000  H
  H2079    1.0000 0.55927  0.46452  0.59738  Biso   1.000  H
  C2042    1.0000 0.61762  0.44871  0.69329  Biso   1.000  C
  H2080    1.0000 0.58229  0.18712  0.98188  Biso   1.000  H
  C2043    1.0000 0.19736  0.70480  0.38380  Biso   1.000  C
  H2081    1.0000 0.14825  0.79391  0.39347  Biso   1.000  H
  H2082    1.0000 0.11025  0.74002  0.43418  Biso   1.000  H
  H2083    1.0000 0.11224  0.73948  0.43629  Biso   1.000  H
  H2084    1.0000 0.17289  0.79051  0.41388  Biso   1.000  H
  H2085    1.0000 0.22870  0.72552  0.35301  Biso   1.000  H
  H2086    1.0000 0.17404  0.66569  0.36179  Biso   1.000  H
  H2087    1.0000 0.18317  0.66438  0.36800  Biso   1.000  H
  H2088    1.0000 0.20367  0.72868  0.33281  Biso   1.000  H
  C2044    1.0000 0.16445  0.74459  0.42120  Biso   1.000  C
  H2089    1.0000 0.07194  0.59619  0.93502  Biso   1.000  H
  H2090    1.0000 0.41759  0.81288  0.01810  Biso   1.000  H
  O336     1.0000 0.20974  0.65519  0.48959  Biso   1.000  O
  C2045    1.0000 0.52674  0.63641  0.82500  Biso   1.000  C
  C2046    1.0000 0.49083  0.73019  0.88577  Biso   1.000  C
  C2047    1.0000 0.65924  0.50581  0.71199  Biso   1.000  C
  C2048    1.0000 0.64454  0.39000  0.72277  Biso   1.000  C
  C2049    1.0000 0.25574  0.68340  0.44341  Biso   1.000  C
  C2050    1.0000 0.22978  0.71968  0.47419  Biso   1.000  C
  H2091    1.0000 0.51462  0.60689  0.79001  Biso   1.000  H
  C2051    1.0000 0.59880  0.63092  0.86877  Biso   1.000  C
  C2052    1.0000 0.56289  0.72460  0.92959  Biso   1.000  C
  H2092    1.0000 0.45475  0.76341  0.89138  Biso   1.000  H
  H2093    1.0000 0.64136  0.54511  0.69229  Biso   1.000  H
  C2053    1.0000 0.72785  0.50440  0.76027  Biso   1.000  C
  C2054    1.0000 0.71304  0.38849  0.77110  Biso   1.000  C
  H2094    1.0000 0.61665  0.35182  0.71029  Biso   1.000  H
  H2095    1.0000 0.29348  0.65188  0.43007  Biso   1.000  H
  H2096    1.0000 0.28616  0.72041  0.46372  Biso   1.000  H
  H2097    1.0000 0.28155  0.72061  0.45800  Biso   1.000  H
  H2098    1.0000 0.23354  0.74668  0.51400  Biso   1.000  H
  H2099    1.0000 0.63494  0.59769  0.86321  Biso   1.000  H
  C2055    1.0000 0.61694  0.67498  0.92111  Biso   1.000  C
  H2100    1.0000 0.57501  0.75412  0.96458  Biso   1.000  H
  H2101    1.0000 0.75565  0.54258  0.77291  Biso   1.000  H
  C2056    1.0000 0.75462  0.44569  0.78991  Biso   1.000  C
  H2102    1.0000 0.73105  0.34929  0.79091  Biso   1.000  H
  H2103    1.0000 0.66514  0.67129  0.95049  Biso   1.000  H
  H2104    1.0000 0.80052  0.44472  0.82219  Biso   1.000  H
