data_image0
_cell_length_a       17.583
_cell_length_b       17.583
_cell_length_c       48.345
_cell_angle_alpha    90
_cell_angle_beta     90
_cell_angle_gamma    120

_symmetry_space_group_name_H-M    "P 1"
_symmetry_int_tables_number       1

loop_
  _symmetry_equiv_pos_as_xyz
  'x, y, z'

loop_
  _atom_site_label
  _atom_site_occupancy
  _atom_site_fract_x
  _atom_site_fract_y
  _atom_site_fract_z
  _atom_site_thermal_displace_type
  _atom_site_B_iso_or_equiv
  _atom_site_type_symbol
  C1       1.0000 0.23367  0.25645  0.50694  Biso   1.000  C
  C2       1.0000 0.31309  0.26755  0.50177  Biso   1.000  C
  C3       1.0000 0.20908  0.26551  0.53224  Biso   1.000  C
  C4       1.0000 0.19034  0.21711  0.53224  Biso   1.000  C
  H1       1.0000 0.19317  0.24154  0.49213  Biso   1.000  H
  C5       1.0000 0.37165  0.27273  0.52249  Biso   1.000  C
  H2       1.0000 0.33109  0.27214  0.48303  Biso   1.000  H
  C6       1.0000 0.26654  0.26203  0.55454  Biso   1.000  C
  C7       1.0000 0.24067  0.21836  0.55733  Biso   1.000  C
  H3       1.0000 0.16026  0.27332  0.53584  Biso   1.000  H
  H4       1.0000 0.12816  0.18966  0.53313  Biso   1.000  H
  N1       1.0000 0.45184  0.28593  0.51716  Biso   1.000  N
  C8       1.0000 0.34243  0.26321  0.54903  Biso   1.000  C
  H5       1.0000 0.24884  0.25881  0.57323  Biso   1.000  H
  H6       1.0000 0.21658  0.19623  0.57514  Biso   1.000  H
  C9       1.0000 0.48528  0.29434  0.49012  Biso   1.000  C
  H7       1.0000 0.48550  0.28955  0.53114  Biso   1.000  H
  S1       1.0000 0.41095  0.26932  0.57756  Biso   1.000  S
  C10      1.0000 0.57977  0.31634  0.49012  Biso   1.000  C
  H8       1.0000 0.48036  0.34103  0.48024  Biso   1.000  H
  H9       1.0000 0.44935  0.23852  0.48003  Biso   1.000  H
  S2       1.0000 0.47495  0.39731  0.58912  Biso   1.000  S
  C11      1.0000 0.64507  0.40053  0.48917  Biso   1.000  C
  C12      1.0000 0.59950  0.24456  0.48917  Biso   1.000  C
  C13      1.0000 0.41254  0.40342  0.61762  Biso   1.000  C
  C14      1.0000 0.62826  0.47566  0.49153  Biso   1.000  C
  C15      1.0000 0.73659  0.42023  0.49012  Biso   1.000  C
  C16      1.0000 0.52436  0.15262  0.49153  Biso   1.000  C
  C17      1.0000 0.68366  0.26341  0.49012  Biso   1.000  C
  C18      1.0000 0.33783  0.40460  0.61214  Biso   1.000  C
  C19      1.0000 0.43227  0.39396  0.64416  Biso   1.000  C
  C20      1.0000 0.35566  0.44834  0.60933  Biso   1.000  C
  C21      1.0000 0.61687  0.50633  0.46553  Biso   1.000  C
  H10      1.0000 0.57498  0.45714  0.50282  Biso   1.000  H
  H11      1.0000 0.67818  0.52465  0.50133  Biso   1.000  H
  C22      1.0000 0.80909  0.51473  0.49012  Biso   1.000  C
  C23      1.0000 0.75548  0.35495  0.48917  Biso   1.000  C
  H12      1.0000 0.54284  0.11781  0.50282  Biso   1.000  H
  H13      1.0000 0.47539  0.15354  0.50133  Biso   1.000  H
  C24      1.0000 0.49364  0.11052  0.46553  Biso   1.000  C
  C25      1.0000 0.70565  0.19091  0.49012  Biso   1.000  C
  H14      1.0000 0.32334  0.40782  0.59344  Biso   1.000  H
  C26      1.0000 0.27688  0.40112  0.63444  Biso   1.000  C
  C27      1.0000 0.30654  0.44952  0.63444  Biso   1.000  C
  C28      1.0000 0.37890  0.39915  0.66489  Biso   1.000  C
  N2       1.0000 0.49926  0.38076  0.64950  Biso   1.000  N
  H15      1.0000 0.35367  0.47040  0.59154  Biso   1.000  H
  H16      1.0000 0.60928  0.55735  0.46834  Biso   1.000  H
  H17      1.0000 0.56456  0.45950  0.45632  Biso   1.000  H
  H18      1.0000 0.66855  0.52314  0.45392  Biso   1.000  H
  H19      1.0000 0.86069  0.51966  0.48024  Biso   1.000  H
  H20      1.0000 0.78918  0.55065  0.48003  Biso   1.000  H
  N3       1.0000 0.83405  0.54816  0.51716  Biso   1.000  N
  C29      1.0000 0.84737  0.37177  0.49153  Biso   1.000  C
  H21      1.0000 0.44268  0.05195  0.46834  Biso   1.000  H
  H22      1.0000 0.54048  0.10501  0.45632  Biso   1.000  H
  H23      1.0000 0.47687  0.14546  0.45392  Biso   1.000  H
  H24      1.0000 0.65900  0.13935  0.48024  Biso   1.000  H
  H25      1.0000 0.76143  0.21081  0.48003  Biso   1.000  H
  N4       1.0000 0.71410  0.16595  0.51716  Biso   1.000  N
  H26      1.0000 0.22026  0.39331  0.63084  Biso   1.000  H
  C30      1.0000 0.31057  0.41025  0.65974  Biso   1.000  C
  H27      1.0000 0.27185  0.47704  0.63353  Biso   1.000  H
  H28      1.0000 0.39229  0.39455  0.68363  Biso   1.000  H
  C31      1.0000 0.52429  0.37236  0.67653  Biso   1.000  C
  H29      1.0000 0.52930  0.37715  0.63554  Biso   1.000  H
  C32      1.0000 0.90105  0.62834  0.52249  Biso   1.000  C
  H30      1.0000 0.80405  0.51454  0.53114  Biso   1.000  H
  H31      1.0000 0.88214  0.42503  0.50282  Biso   1.000  H
  H32      1.0000 0.84648  0.32186  0.50133  Biso   1.000  H
  C33      1.0000 0.88945  0.38313  0.46553  Biso   1.000  C
  C34      1.0000 0.72726  0.09890  0.52249  Biso   1.000  C
  H33      1.0000 0.71051  0.19596  0.53114  Biso   1.000  H
  H34      1.0000 0.28498  0.42516  0.67453  Biso   1.000  H
  H35      1.0000 0.47268  0.32566  0.68644  Biso   1.000  H
  H36      1.0000 0.54415  0.42811  0.68663  Biso   1.000  H
  C35      1.0000 0.59678  0.35036  0.67653  Biso   1.000  C
  C36      1.0000 0.92074  0.65750  0.54903  Biso   1.000  C
  C37      1.0000 0.95445  0.68692  0.50177  Biso   1.000  C
  H37      1.0000 0.94809  0.39074  0.46834  Biso   1.000  H
  H38      1.0000 0.89495  0.43540  0.45632  Biso   1.000  H
  H39      1.0000 0.85457  0.33144  0.45392  Biso   1.000  H
  C38      1.0000 0.73678  0.07927  0.54903  Biso   1.000  C
  C39      1.0000 0.73247  0.04551  0.50177  Biso   1.000  C
  C40      1.0000 0.57785  0.26610  0.67751  Biso   1.000  C
  C41      1.0000 0.68829  0.42214  0.67751  Biso   1.000  C
  C42      1.0000 0.99544  0.73342  0.55454  Biso   1.000  C
  S3       1.0000 0.85834  0.58901  0.57756  Biso   1.000  S
  C43      1.0000 0.97770  0.75936  0.55733  Biso   1.000  C
  H40      1.0000 0.94107  0.66893  0.48303  Biso   1.000  H
  C44      1.0000 0.02275  0.76632  0.50694  Biso   1.000  C
  C45      1.0000 0.73798  0.00453  0.55454  Biso   1.000  C
  S4       1.0000 0.73067  0.14165  0.57756  Biso   1.000  S
  C46      1.0000 0.78162  0.02233  0.55733  Biso   1.000  C
  H41      1.0000 0.72786  0.05891  0.48303  Biso   1.000  H
  C47      1.0000 0.74354  0.97721  0.50694  Biso   1.000  C
  C48      1.0000 0.64971  0.24646  0.67653  Biso   1.000  C
  C49      1.0000 0.48595  0.19104  0.67513  Biso   1.000  C
  C50      1.0000 0.75356  0.40322  0.67653  Biso   1.000  C
  C51      1.0000 0.70505  0.51401  0.67513  Biso   1.000  C
  H42      1.0000 0.00999  0.75115  0.57323  Biso   1.000  H
  C52      1.0000 0.05645  0.79095  0.53224  Biso   1.000  C
  C53      1.0000 0.02680  0.80966  0.53224  Biso   1.000  C
  S5       1.0000 0.92236  0.52504  0.58912  Biso   1.000  S
  H43      1.0000 0.97968  0.78346  0.57514  Biso   1.000  H
  H44      1.0000 0.04836  0.80684  0.49213  Biso   1.000  H
  H45      1.0000 0.74118  0.99002  0.57323  Biso   1.000  H
  C54      1.0000 0.73454  0.94352  0.53224  Biso   1.000  C
  C55      1.0000 0.78292  0.97327  0.53224  Biso   1.000  C
  S6       1.0000 0.60265  0.07762  0.58912  Biso   1.000  S
  H46      1.0000 0.80373  0.02036  0.57514  Biso   1.000  H
  H47      1.0000 0.75846  0.95167  0.49213  Biso   1.000  H
  C56      1.0000 0.62771  0.15196  0.67653  Biso   1.000  C
  C57      1.0000 0.73387  0.31174  0.67751  Biso   1.000  C
  H48      1.0000 0.45119  0.20956  0.66383  Biso   1.000  H
  H49      1.0000 0.48688  0.14205  0.66534  Biso   1.000  H
  C58      1.0000 0.44386  0.16030  0.70113  Biso   1.000  C
  C59      1.0000 0.84805  0.47572  0.67653  Biso   1.000  C
  H50      1.0000 0.75834  0.54882  0.66383  Biso   1.000  H
  H51      1.0000 0.65520  0.51316  0.66534  Biso   1.000  H
  C60      1.0000 0.71643  0.55611  0.70113  Biso   1.000  C
  H52      1.0000 0.11310  0.83974  0.53584  Biso   1.000  H
  H53      1.0000 0.06147  0.87185  0.53313  Biso   1.000  H
  C61      1.0000 0.99087  0.58743  0.61762  Biso   1.000  C
  H54      1.0000 0.72666  0.88691  0.53584  Biso   1.000  H
  H55      1.0000 0.81042  0.93853  0.53313  Biso   1.000  H
  C62      1.0000 0.59656  0.00913  0.61762  Biso   1.000  C
  N5       1.0000 0.61924  0.11854  0.64950  Biso   1.000  N
  H56      1.0000 0.67438  0.14704  0.68644  Biso   1.000  H
  H57      1.0000 0.57187  0.11604  0.68663  Biso   1.000  H
  C63      1.0000 0.80896  0.29493  0.67513  Biso   1.000  C
  H58      1.0000 0.38527  0.10934  0.69833  Biso   1.000  H
  H59      1.0000 0.43838  0.20713  0.71033  Biso   1.000  H
  H60      1.0000 0.47876  0.14356  0.71273  Biso   1.000  H
  N6       1.0000 0.88149  0.50074  0.64950  Biso   1.000  N
  H61      1.0000 0.85299  0.52734  0.68644  Biso   1.000  H
  H62      1.0000 0.88394  0.45583  0.68663  Biso   1.000  H
  H63      1.0000 0.72408  0.61475  0.69833  Biso   1.000  H
  H64      1.0000 0.76878  0.56162  0.71033  Biso   1.000  H
  H65      1.0000 0.66476  0.52123  0.71273  Biso   1.000  H
  C64      1.0000 0.96168  0.56773  0.64416  Biso   1.000  C
  C65      1.0000 0.06679  0.66216  0.61214  Biso   1.000  C
  C66      1.0000 0.09267  0.64430  0.60933  Biso   1.000  C
  C67      1.0000 0.60605  0.03835  0.64416  Biso   1.000  C
  C68      1.0000 0.59540  0.93321  0.61214  Biso   1.000  C
  C69      1.0000 0.55163  0.90734  0.60933  Biso   1.000  C
  H66      1.0000 0.62286  0.15216  0.63554  Biso   1.000  H
  H67      1.0000 0.79043  0.24161  0.66383  Biso   1.000  H
  H68      1.0000 0.85797  0.34484  0.66534  Biso   1.000  H
  C70      1.0000 0.83964  0.28350  0.70113  Biso   1.000  C
  H69      1.0000 0.84789  0.47073  0.63554  Biso   1.000  H
  C71      1.0000 0.02028  0.62112  0.66489  Biso   1.000  C
  H70      1.0000 0.08448  0.67661  0.59344  Biso   1.000  H
  C72      1.0000 0.12428  0.72311  0.63444  Biso   1.000  C
  C73      1.0000 0.14294  0.69342  0.63444  Biso   1.000  C
  H71      1.0000 0.11678  0.64634  0.59154  Biso   1.000  H
  C74      1.0000 0.60084  0.97971  0.66489  Biso   1.000  C
  H72      1.0000 0.59219  0.91555  0.59344  Biso   1.000  H
  C75      1.0000 0.59891  0.87575  0.63444  Biso   1.000  C
  C76      1.0000 0.55042  0.85703  0.63444  Biso   1.000  C
  H73      1.0000 0.52957  0.88324  0.59154  Biso   1.000  H
  H74      1.0000 0.89069  0.27595  0.69833  Biso   1.000  H
  H75      1.0000 0.79286  0.23123  0.71033  Biso   1.000  H
  H76      1.0000 0.85647  0.33525  0.71273  Biso   1.000  H
  C77      1.0000 0.09964  0.68942  0.65974  Biso   1.000  C
  H77      1.0000 0.00226  0.60772  0.68363  Biso   1.000  H
  H78      1.0000 0.17306  0.77972  0.63084  Biso   1.000  H
  H79      1.0000 0.20518  0.72816  0.63353  Biso   1.000  H
  C78      1.0000 0.58975  0.90031  0.65974  Biso   1.000  C
  H80      1.0000 0.60546  0.99770  0.68363  Biso   1.000  H
  H81      1.0000 0.60676  0.82696  0.63084  Biso   1.000  H
  H82      1.0000 0.52297  0.79484  0.63353  Biso   1.000  H
  H83      1.0000 0.14015  0.71503  0.67453  Biso   1.000  H
  H84      1.0000 0.57493  0.85986  0.67453  Biso   1.000  H
  C79      1.0000 0.97325  0.19038  0.46776  Biso   1.000  C
  C80      1.0000 0.00452  0.26656  0.44546  Biso   1.000  C
  C81      1.0000 0.02235  0.24069  0.44267  Biso   1.000  C
  C82      1.0000 0.97721  0.23366  0.49306  Biso   1.000  C
  H85      1.0000 0.93852  0.12819  0.46687  Biso   1.000  H
  C83      1.0000 0.07922  0.34248  0.45097  Biso   1.000  C
  H86      1.0000 0.99006  0.24889  0.42677  Biso   1.000  H
  C84      1.0000 0.94354  0.20910  0.46776  Biso   1.000  C
  H87      1.0000 0.02037  0.21658  0.42486  Biso   1.000  H
  C85      1.0000 0.04551  0.31306  0.49823  Biso   1.000  C
  H88      1.0000 0.95160  0.19314  0.50787  Biso   1.000  H
  S7       1.0000 0.14162  0.41097  0.42244  Biso   1.000  S
  C86      1.0000 0.09892  0.37163  0.47751  Biso   1.000  C
  H89      1.0000 0.88692  0.16024  0.46416  Biso   1.000  H
  H90      1.0000 0.05894  0.33105  0.51697  Biso   1.000  H
  S8       1.0000 0.07760  0.47494  0.41088  Biso   1.000  S
  N7       1.0000 0.16594  0.45189  0.48284  Biso   1.000  N
  C87      1.0000 0.00915  0.41255  0.38238  Biso   1.000  C
  C88      1.0000 0.19093  0.48525  0.50988  Biso   1.000  C
  H91      1.0000 0.19591  0.48544  0.46886  Biso   1.000  H
  C89      1.0000 0.03834  0.43225  0.35584  Biso   1.000  C
  C90      1.0000 0.93326  0.33788  0.38786  Biso   1.000  C
  C91      1.0000 0.90735  0.35568  0.39067  Biso   1.000  C
  H92      1.0000 0.13936  0.48039  0.51976  Biso   1.000  H
  H93      1.0000 0.21082  0.44939  0.51997  Biso   1.000  H
  C92      1.0000 0.26343  0.57975  0.50988  Biso   1.000  C
  N8       1.0000 0.11852  0.49923  0.35050  Biso   1.000  N
  C93      1.0000 0.97974  0.37886  0.33511  Biso   1.000  C
  H94      1.0000 0.91554  0.32337  0.40656  Biso   1.000  H
  C94      1.0000 0.87574  0.27687  0.36556  Biso   1.000  C
  C95      1.0000 0.85703  0.30655  0.36556  Biso   1.000  C
  H95      1.0000 0.88324  0.35364  0.40846  Biso   1.000  H
  C96      1.0000 0.35495  0.59945  0.51083  Biso   1.000  C
  C97      1.0000 0.24457  0.64509  0.51083  Biso   1.000  C
  C98      1.0000 0.15191  0.52425  0.32347  Biso   1.000  C
  H96      1.0000 0.15213  0.52925  0.36446  Biso   1.000  H
  C99      1.0000 0.90032  0.31056  0.34026  Biso   1.000  C
  H97      1.0000 0.99775  0.39226  0.31637  Biso   1.000  H
  H98      1.0000 0.82690  0.22026  0.36916  Biso   1.000  H
  H99      1.0000 0.79481  0.27188  0.36647  Biso   1.000  H
  C100     1.0000 0.42025  0.68364  0.50988  Biso   1.000  C
  C101     1.0000 0.37173  0.52439  0.50847  Biso   1.000  C
  C102     1.0000 0.31636  0.73657  0.50988  Biso   1.000  C
  C103     1.0000 0.15262  0.62828  0.50847  Biso   1.000  C
  C104     1.0000 0.24645  0.59676  0.32347  Biso   1.000  C
  H100     1.0000 0.14703  0.47264  0.31356  Biso   1.000  H
  H101     1.0000 0.11602  0.54415  0.31337  Biso   1.000  H
  H102     1.0000 0.85981  0.28495  0.32547  Biso   1.000  H
  C105     1.0000 0.51474  0.70564  0.50988  Biso   1.000  C
  C106     1.0000 0.40055  0.75548  0.51083  Biso   1.000  C
  H103     1.0000 0.42503  0.54284  0.49718  Biso   1.000  H
  H104     1.0000 0.32187  0.47540  0.49867  Biso   1.000  H
  C107     1.0000 0.38315  0.49365  0.53447  Biso   1.000  C
  C108     1.0000 0.29432  0.80907  0.50988  Biso   1.000  C
  H105     1.0000 0.11782  0.57495  0.49718  Biso   1.000  H
  H106     1.0000 0.15352  0.67819  0.49867  Biso   1.000  H
  C109     1.0000 0.11051  0.61685  0.53447  Biso   1.000  C
  C110     1.0000 0.31173  0.57784  0.32249  Biso   1.000  C
  C111     1.0000 0.26615  0.68824  0.32249  Biso   1.000  C
  N9       1.0000 0.54812  0.71405  0.48284  Biso   1.000  N
  H107     1.0000 0.51960  0.65895  0.51976  Biso   1.000  H
  H108     1.0000 0.55061  0.76146  0.51997  Biso   1.000  H
  C112     1.0000 0.47560  0.84736  0.50847  Biso   1.000  C
  H109     1.0000 0.39077  0.44269  0.53166  Biso   1.000  H
  H110     1.0000 0.43545  0.54048  0.54368  Biso   1.000  H
  H111     1.0000 0.33141  0.47684  0.54608  Biso   1.000  H
  N10      1.0000 0.28595  0.83409  0.48284  Biso   1.000  N
  H112     1.0000 0.34105  0.86069  0.51976  Biso   1.000  H
  H113     1.0000 0.23853  0.78917  0.51997  Biso   1.000  H
  H114     1.0000 0.05196  0.60930  0.53166  Biso   1.000  H
  H115     1.0000 0.10502  0.56458  0.54368  Biso   1.000  H
  H116     1.0000 0.14539  0.66854  0.54608  Biso   1.000  H
  C113     1.0000 0.29491  0.48597  0.32487  Biso   1.000  C
  C114     1.0000 0.40327  0.64969  0.32347  Biso   1.000  C
  C115     1.0000 0.35034  0.75358  0.32347  Biso   1.000  C
  C116     1.0000 0.19100  0.70505  0.32487  Biso   1.000  C
  C117     1.0000 0.62831  0.72725  0.47751  Biso   1.000  C
  H117     1.0000 0.51455  0.71050  0.46886  Biso   1.000  H
  H118     1.0000 0.45712  0.88216  0.49718  Biso   1.000  H
  H119     1.0000 0.52462  0.84644  0.49867  Biso   1.000  H
  C118     1.0000 0.50632  0.88945  0.53447  Biso   1.000  C
  C119     1.0000 0.27275  0.90108  0.47751  Biso   1.000  C
  H120     1.0000 0.28955  0.80408  0.46886  Biso   1.000  H
  C120     1.0000 0.28353  0.44387  0.29887  Biso   1.000  C
  H121     1.0000 0.24162  0.45116  0.33617  Biso   1.000  H
  H122     1.0000 0.34485  0.48689  0.33466  Biso   1.000  H
  C121     1.0000 0.47576  0.62769  0.32347  Biso   1.000  C
  C122     1.0000 0.42216  0.73388  0.32249  Biso   1.000  C
  C123     1.0000 0.37234  0.84808  0.32347  Biso   1.000  C
  H123     1.0000 0.20953  0.75837  0.33617  Biso   1.000  H
  H124     1.0000 0.14199  0.65514  0.33466  Biso   1.000  H
  C124     1.0000 0.16032  0.71648  0.29887  Biso   1.000  C
  C125     1.0000 0.65753  0.73677  0.45097  Biso   1.000  C
  C126     1.0000 0.68696  0.73250  0.49823  Biso   1.000  C
  H125     1.0000 0.55737  0.94810  0.53166  Biso   1.000  H
  H126     1.0000 0.45954  0.89497  0.54368  Biso   1.000  H
  H127     1.0000 0.52312  0.85458  0.54608  Biso   1.000  H
  C127     1.0000 0.26327  0.92078  0.45097  Biso   1.000  C
  C128     1.0000 0.26754  0.95447  0.49823  Biso   1.000  C
  H128     1.0000 0.27597  0.38529  0.30167  Biso   1.000  H
  H129     1.0000 0.23124  0.43836  0.28967  Biso   1.000  H
  H130     1.0000 0.33520  0.47874  0.28727  Biso   1.000  H
  H131     1.0000 0.52732  0.67438  0.31356  Biso   1.000  H
  H132     1.0000 0.45581  0.57187  0.31337  Biso   1.000  H
  N11      1.0000 0.50073  0.61928  0.35050  Biso   1.000  N
  C129     1.0000 0.51401  0.80894  0.32487  Biso   1.000  C
  H133     1.0000 0.32563  0.85294  0.31356  Biso   1.000  H
  H134     1.0000 0.42809  0.88394  0.31337  Biso   1.000  H
  N12      1.0000 0.38072  0.88144  0.35050  Biso   1.000  N
  H135     1.0000 0.10936  0.72409  0.30167  Biso   1.000  H
  H136     1.0000 0.20710  0.76875  0.28967  Biso   1.000  H
  H137     1.0000 0.14352  0.66479  0.28727  Biso   1.000  H
  S9       1.0000 0.58901  0.73066  0.42244  Biso   1.000  S
  C130     1.0000 0.73342  0.73795  0.44546  Biso   1.000  C
  C131     1.0000 0.75932  0.78169  0.44267  Biso   1.000  C
  C132     1.0000 0.76633  0.74360  0.49306  Biso   1.000  C
  H138     1.0000 0.66893  0.72784  0.51697  Biso   1.000  H
  S10      1.0000 0.26933  0.85839  0.42244  Biso   1.000  S
  C133     1.0000 0.26204  0.99545  0.44546  Biso   1.000  C
  C134     1.0000 0.21834  0.97765  0.44267  Biso   1.000  C
  C135     1.0000 0.25636  0.02277  0.49306  Biso   1.000  C
  H139     1.0000 0.27216  0.94107  0.51697  Biso   1.000  H
  C136     1.0000 0.56773  0.60608  0.35584  Biso   1.000  C
  H140     1.0000 0.47075  0.62289  0.36446  Biso   1.000  H
  H141     1.0000 0.54886  0.79049  0.33617  Biso   1.000  H
  H142     1.0000 0.51317  0.85800  0.33466  Biso   1.000  H
  C137     1.0000 0.55616  0.83967  0.29887  Biso   1.000  C
  C138     1.0000 0.39394  0.96169  0.35584  Biso   1.000  C
  H143     1.0000 0.37714  0.84788  0.36446  Biso   1.000  H
  S11      1.0000 0.52502  0.60267  0.41088  Biso   1.000  S
  H144     1.0000 0.75112  0.74117  0.42677  Biso   1.000  H
  C139     1.0000 0.79094  0.73447  0.46776  Biso   1.000  C
  C140     1.0000 0.80962  0.78287  0.46776  Biso   1.000  C
  H145     1.0000 0.78344  0.80375  0.42486  Biso   1.000  H
  H146     1.0000 0.80679  0.75844  0.50787  Biso   1.000  H
  S12      1.0000 0.39731  0.92236  0.41088  Biso   1.000  S
  H147     1.0000 0.25878  0.00996  0.42677  Biso   1.000  H
  C141     1.0000 0.26547  0.05646  0.46776  Biso   1.000  C
  C142     1.0000 0.21719  0.02677  0.46776  Biso   1.000  C
  H148     1.0000 0.19623  0.97962  0.42486  Biso   1.000  H
  H149     1.0000 0.24147  0.04838  0.50787  Biso   1.000  H
  C143     1.0000 0.58742  0.59656  0.38238  Biso   1.000  C
  C144     1.0000 0.62115  0.60089  0.33511  Biso   1.000  C
  H150     1.0000 0.61474  0.89064  0.30167  Biso   1.000  H
  H151     1.0000 0.56164  0.79285  0.28967  Biso   1.000  H
  H152     1.0000 0.52123  0.85649  0.28727  Biso   1.000  H
  C145     1.0000 0.40340  0.99085  0.38238  Biso   1.000  C
  C146     1.0000 0.39912  0.02027  0.33511  Biso   1.000  C
  H153     1.0000 0.83975  0.72665  0.46416  Biso   1.000  H
  H154     1.0000 0.87184  0.81039  0.46687  Biso   1.000  H
  H155     1.0000 0.27325  0.11306  0.46416  Biso   1.000  H
  H156     1.0000 0.18966  0.06145  0.46687  Biso   1.000  H
  C147     1.0000 0.66213  0.59538  0.38786  Biso   1.000  C
  C148     1.0000 0.64430  0.55164  0.39067  Biso   1.000  C
  C149     1.0000 0.68943  0.58980  0.34026  Biso   1.000  C
  H157     1.0000 0.60776  0.60549  0.31637  Biso   1.000  H
  C150     1.0000 0.40462  0.06677  0.38786  Biso   1.000  C
  C151     1.0000 0.44827  0.09264  0.39067  Biso   1.000  C
  C152     1.0000 0.41021  0.09967  0.34026  Biso   1.000  C
  H158     1.0000 0.39450  0.00228  0.31637  Biso   1.000  H
  H159     1.0000 0.67662  0.59216  0.40656  Biso   1.000  H
  C153     1.0000 0.72313  0.59886  0.36556  Biso   1.000  C
  C154     1.0000 0.69342  0.55046  0.36556  Biso   1.000  C
  H160     1.0000 0.64635  0.52957  0.40846  Biso   1.000  H
  H161     1.0000 0.71502  0.57489  0.32547  Biso   1.000  H
  H162     1.0000 0.40780  0.08450  0.40656  Biso   1.000  H
  C155     1.0000 0.40108  0.12429  0.36556  Biso   1.000  C
  C156     1.0000 0.44954  0.14295  0.36556  Biso   1.000  C
  H163     1.0000 0.47045  0.11674  0.40846  Biso   1.000  H
  H164     1.0000 0.42507  0.14019  0.32547  Biso   1.000  H
  H165     1.0000 0.77976  0.60667  0.36916  Biso   1.000  H
  H166     1.0000 0.72811  0.52294  0.36647  Biso   1.000  H
  H167     1.0000 0.39335  0.17309  0.36916  Biso   1.000  H
  H168     1.0000 0.47699  0.20514  0.36647  Biso   1.000  H
  C157     1.0000 0.04982  0.22282  0.36779  Biso   1.000  C
  C158     1.0000 0.03844  0.18073  0.34179  Biso   1.000  C
  C159     1.0000 0.03838  0.18073  0.34179  Biso   1.000  C
  H169     1.0000 0.05738  0.28140  0.36500  Biso   1.000  H
  H170     1.0000 0.10208  0.22827  0.37700  Biso   1.000  H
  H171     1.0000 0.10211  0.22834  0.37700  Biso   1.000  H
  H172     1.0000 0.99811  0.18789  0.37940  Biso   1.000  H
  H173     1.0000 0.99809  0.18795  0.37940  Biso   1.000  H
  C160     1.0000 0.02159  0.08879  0.34417  Biso   1.000  C
  C161     1.0000 0.02162  0.08885  0.34417  Biso   1.000  C
  H174     1.0000 0.09170  0.21547  0.33050  Biso   1.000  H
  H175     1.0000 0.09167  0.21553  0.33050  Biso   1.000  H
  C162     1.0000 0.04976  0.22282  0.36779  Biso   1.000  C
  H176     1.0000 0.98850  0.17981  0.33201  Biso   1.000  H
  C163     1.0000 0.08686  0.06987  0.34320  Biso   1.000  C
  C164     1.0000 0.08690  0.06994  0.34320  Biso   1.000  C
  C165     1.0000 0.93008  0.01701  0.34320  Biso   1.000  C
  C166     1.0000 0.18141  0.14238  0.34320  Biso   1.000  C
  C167     1.0000 0.18138  0.14244  0.34320  Biso   1.000  C
  C168     1.0000 0.06717  0.97839  0.34417  Biso   1.000  C
  C169     1.0000 0.91119  0.93282  0.34417  Biso   1.000  C
  C170     1.0000 0.91113  0.93282  0.34417  Biso   1.000  C
  C171     1.0000 0.85759  0.03901  0.34320  Biso   1.000  C
  C172     1.0000 0.85764  0.03901  0.34320  Biso   1.000  C
  N13      1.0000 0.21479  0.16740  0.31617  Biso   1.000  N
  H177     1.0000 0.18629  0.19399  0.35311  Biso   1.000  H
  H178     1.0000 0.21730  0.12248  0.35329  Biso   1.000  H
  H179     1.0000 0.21727  0.12254  0.35329  Biso   1.000  H
  C173     1.0000 0.98306  0.91312  0.34320  Biso   1.000  C
  C174     1.0000 0.14237  0.96158  0.34179  Biso   1.000  C
  C175     1.0000 0.14234  0.96165  0.34179  Biso   1.000  C
  C176     1.0000 0.14231  0.96158  0.34179  Biso   1.000  C
  C177     1.0000 0.81936  0.85769  0.34179  Biso   1.000  C
  C178     1.0000 0.81925  0.85769  0.34179  Biso   1.000  C
  H180     1.0000 0.80609  0.99232  0.35311  Biso   1.000  H
  H181     1.0000 0.80597  0.99232  0.35311  Biso   1.000  H
  H182     1.0000 0.87753  0.09483  0.35329  Biso   1.000  H
  N14      1.0000 0.83261  0.04741  0.31617  Biso   1.000  N
  H183     1.0000 0.87748  0.09483  0.35329  Biso   1.000  H
  N15      1.0000 0.83256  0.04741  0.31617  Biso   1.000  N
  C179     1.0000 0.29498  0.23438  0.31083  Biso   1.000  C
  C180     1.0000 0.29501  0.23445  0.31083  Biso   1.000  C
  H184     1.0000 0.18119  0.13738  0.30220  Biso   1.000  H
  H185     1.0000 0.18122  0.13745  0.30220  Biso   1.000  H
  C181     1.0000 0.96101  0.81862  0.34320  Biso   1.000  C
  H186     1.0000 0.19132  0.01149  0.33201  Biso   1.000  H
  H187     1.0000 0.19127  0.01149  0.33201  Biso   1.000  H
  H188     1.0000 0.12381  0.90832  0.33050  Biso   1.000  H
  C182     1.0000 0.17309  0.95022  0.36779  Biso   1.000  C
  H189     1.0000 0.12376  0.90832  0.33050  Biso   1.000  H
  C183     1.0000 0.17297  0.95022  0.36779  Biso   1.000  C
  H190     1.0000 0.78455  0.87621  0.33050  Biso   1.000  H
  H191     1.0000 0.82018  0.80870  0.33201  Biso   1.000  H
  C184     1.0000 0.77719  0.82702  0.36779  Biso   1.000  C
  C185     1.0000 0.76562  0.06061  0.31083  Biso   1.000  C
  H192     1.0000 0.86260  0.04380  0.30220  Biso   1.000  H
  C186     1.0000 0.76556  0.06061  0.31083  Biso   1.000  C
  H193     1.0000 0.86266  0.04380  0.30220  Biso   1.000  H
  C187     1.0000 0.32416  0.25408  0.28429  Biso   1.000  C
  C188     1.0000 0.32420  0.25415  0.28429  Biso   1.000  C
  C189     1.0000 0.35358  0.28777  0.33155  Biso   1.000  C
  C190     1.0000 0.35361  0.28784  0.33155  Biso   1.000  C
  H194     1.0000 0.90522  0.78269  0.35329  Biso   1.000  H
  N16      1.0000 0.95265  0.78519  0.31617  Biso   1.000  N
  H195     1.0000 0.90517  0.78269  0.35329  Biso   1.000  H
  N17      1.0000 0.95254  0.78519  0.31617  Biso   1.000  N
  H196     1.0000 0.00774  0.81369  0.35311  Biso   1.000  H
  H197     1.0000 0.18983  0.00190  0.37940  Biso   1.000  H
  H198     1.0000 0.18977  0.00190  0.37940  Biso   1.000  H
  H199     1.0000 0.22405  0.94260  0.36500  Biso   1.000  H
  H200     1.0000 0.12627  0.89788  0.37700  Biso   1.000  H
  H201     1.0000 0.12619  0.89795  0.37700  Biso   1.000  H
  H202     1.0000 0.22393  0.94260  0.36500  Biso   1.000  H
  H203     1.0000 0.71863  0.77599  0.36500  Biso   1.000  H
  H204     1.0000 0.77167  0.87378  0.37700  Biso   1.000  H
  H205     1.0000 0.81212  0.81021  0.37940  Biso   1.000  H
  H206     1.0000 0.77171  0.87385  0.37700  Biso   1.000  H
  C191     1.0000 0.74589  0.07007  0.28429  Biso   1.000  C
  C192     1.0000 0.71219  0.06580  0.33155  Biso   1.000  C
  C193     1.0000 0.74587  0.07014  0.28429  Biso   1.000  C
  S13      1.0000 0.25566  0.19169  0.25579  Biso   1.000  S
  C194     1.0000 0.40009  0.32882  0.27881  Biso   1.000  C
  S14      1.0000 0.25572  0.19169  0.25579  Biso   1.000  S
  C195     1.0000 0.42600  0.31102  0.27600  Biso   1.000  C
  C196     1.0000 0.43300  0.35607  0.32640  Biso   1.000  C
  C197     1.0000 0.43297  0.35614  0.32640  Biso   1.000  C
  H207     1.0000 0.33556  0.27438  0.35029  Biso   1.000  H
  H208     1.0000 0.33559  0.27444  0.35029  Biso   1.000  H
  C198     1.0000 0.93940  0.70500  0.31083  Biso   1.000  C
  H209     1.0000 0.95627  0.81881  0.30220  Biso   1.000  H
  H210     1.0000 0.95621  0.81881  0.30220  Biso   1.000  H
  C199     1.0000 0.67122  0.07132  0.27881  Biso   1.000  C
  S15      1.0000 0.80833  0.06403  0.25579  Biso   1.000  S
  C200     1.0000 0.67116  0.07132  0.27881  Biso   1.000  C
  S16      1.0000 0.80828  0.06403  0.25579  Biso   1.000  S
  C201     1.0000 0.68901  0.11499  0.27600  Biso   1.000  C
  C202     1.0000 0.64392  0.07690  0.32640  Biso   1.000  C
  H211     1.0000 0.72559  0.06121  0.35029  Biso   1.000  H
  C203     1.0000 0.64386  0.07690  0.32640  Biso   1.000  C
  S17      1.0000 0.19173  0.25572  0.24422  Biso   1.000  S
  S18      1.0000 0.19167  0.25572  0.24422  Biso   1.000  S
  H212     1.0000 0.41781  0.34333  0.26011  Biso   1.000  H
  C204     1.0000 0.45761  0.38983  0.30111  Biso   1.000  C
  C205     1.0000 0.47629  0.36008  0.30111  Biso   1.000  C
  H213     1.0000 0.45007  0.31299  0.25821  Biso   1.000  H
  H214     1.0000 0.47350  0.38168  0.34119  Biso   1.000  H
  H215     1.0000 0.47348  0.38175  0.34119  Biso   1.000  H
  C206     1.0000 0.92997  0.67578  0.28429  Biso   1.000  C
  C207     1.0000 0.93423  0.64643  0.33155  Biso   1.000  C
  C208     1.0000 0.92989  0.67585  0.28429  Biso   1.000  C
  H216     1.0000 0.65670  0.07447  0.26011  Biso   1.000  H
  C209     1.0000 0.61018  0.06777  0.30111  Biso   1.000  C
  H217     1.0000 0.65667  0.07454  0.26011  Biso   1.000  H
  C210     1.0000 0.61021  0.06784  0.30111  Biso   1.000  C
  C211     1.0000 0.63990  0.11617  0.30111  Biso   1.000  C
  S19      1.0000 0.74430  0.93597  0.24422  Biso   1.000  S
  S20      1.0000 0.74434  0.93604  0.24422  Biso   1.000  S
  H218     1.0000 0.68700  0.13712  0.25821  Biso   1.000  H
  H219     1.0000 0.61833  0.09181  0.34119  Biso   1.000  H
  H220     1.0000 0.61828  0.09181  0.34119  Biso   1.000  H
  C212     1.0000 0.25413  0.32422  0.21570  Biso   1.000  C
  C213     1.0000 0.25407  0.32422  0.21570  Biso   1.000  C
  H221     1.0000 0.50641  0.44637  0.29751  Biso   1.000  H
  H222     1.0000 0.50639  0.44643  0.29751  Biso   1.000  H
  H223     1.0000 0.53853  0.39482  0.30020  Biso   1.000  H
  C214     1.0000 0.92873  0.59993  0.27881  Biso   1.000  C
  S21      1.0000 0.93601  0.74428  0.25579  Biso   1.000  S
  S22      1.0000 0.93604  0.74434  0.25579  Biso   1.000  S
  C215     1.0000 0.88504  0.57399  0.27600  Biso   1.000  C
  C216     1.0000 0.92314  0.56703  0.32640  Biso   1.000  C
  H224     1.0000 0.93885  0.66442  0.35029  Biso   1.000  H
  C217     1.0000 0.92308  0.56703  0.32640  Biso   1.000  C
  H225     1.0000 0.55359  0.06002  0.29751  Biso   1.000  H
  H226     1.0000 0.55364  0.06002  0.29751  Biso   1.000  H
  H227     1.0000 0.60520  0.14369  0.30020  Biso   1.000  H
  C218     1.0000 0.67588  0.92993  0.21570  Biso   1.000  C
  C219     1.0000 0.67576  0.92993  0.21570  Biso   1.000  C
  C220     1.0000 0.32880  0.40007  0.22120  Biso   1.000  C
  C221     1.0000 0.23440  0.29500  0.18916  Biso   1.000  C
  C222     1.0000 0.32877  0.40014  0.22120  Biso   1.000  C
  C223     1.0000 0.23434  0.29500  0.18916  Biso   1.000  C
  C224     1.0000 0.31100  0.42601  0.22399  Biso   1.000  C
  H228     1.0000 0.92555  0.58220  0.26011  Biso   1.000  H
  C225     1.0000 0.93227  0.54240  0.30111  Biso   1.000  C
  C226     1.0000 0.93215  0.54240  0.30111  Biso   1.000  C
  C227     1.0000 0.88381  0.52375  0.30111  Biso   1.000  C
  S23      1.0000 0.06408  0.80831  0.24422  Biso   1.000  S
  S24      1.0000 0.06402  0.80831  0.24422  Biso   1.000  S
  H229     1.0000 0.86290  0.54995  0.25821  Biso   1.000  H
  H230     1.0000 0.90828  0.52651  0.34119  Biso   1.000  H
  H231     1.0000 0.90822  0.52651  0.34119  Biso   1.000  H
  C228     1.0000 0.70501  0.93939  0.18916  Biso   1.000  C
  C229     1.0000 0.70504  0.93945  0.18916  Biso   1.000  C
  C230     1.0000 0.59995  0.92868  0.22120  Biso   1.000  C
  C231     1.0000 0.59987  0.92875  0.22120  Biso   1.000  C
  C232     1.0000 0.57402  0.88501  0.22399  Biso   1.000  C
  H232     1.0000 0.34329  0.41780  0.23990  Biso   1.000  H
  C233     1.0000 0.38981  0.45760  0.19890  Biso   1.000  C
  C234     1.0000 0.38975  0.45760  0.19890  Biso   1.000  C
  C235     1.0000 0.36009  0.47631  0.19890  Biso   1.000  C
  C236     1.0000 0.28780  0.35357  0.16844  Biso   1.000  C
  N18      1.0000 0.16741  0.21481  0.18382  Biso   1.000  N
  C237     1.0000 0.28778  0.35364  0.16844  Biso   1.000  C
  N19      1.0000 0.16735  0.21481  0.18382  Biso   1.000  N
  H233     1.0000 0.31298  0.45011  0.24180  Biso   1.000  H
  H234     1.0000 0.94000  0.49361  0.29751  Biso   1.000  H
  H235     1.0000 0.85632  0.46149  0.30020  Biso   1.000  H
  C238     1.0000 0.07008  0.74592  0.21570  Biso   1.000  C
  N20      1.0000 0.78520  0.95259  0.18382  Biso   1.000  N
  N21      1.0000 0.78517  0.95265  0.18382  Biso   1.000  N
  C239     1.0000 0.64645  0.93420  0.16844  Biso   1.000  C
  H236     1.0000 0.58223  0.92553  0.23990  Biso   1.000  H
  C240     1.0000 0.54247  0.93223  0.19890  Biso   1.000  C
  C241     1.0000 0.52367  0.88383  0.19890  Biso   1.000  C
  H237     1.0000 0.54997  0.86294  0.24180  Biso   1.000  H
  H238     1.0000 0.44639  0.50639  0.20250  Biso   1.000  H
  C242     1.0000 0.35611  0.43297  0.17361  Biso   1.000  C
  C243     1.0000 0.35609  0.43304  0.17361  Biso   1.000  C
  H239     1.0000 0.39483  0.53851  0.19979  Biso   1.000  H
  H240     1.0000 0.27437  0.33558  0.14969  Biso   1.000  H
  H241     1.0000 0.27440  0.33565  0.14969  Biso   1.000  H
  C244     1.0000 0.14239  0.18138  0.15679  Biso   1.000  C
  H242     1.0000 0.13740  0.18119  0.19781  Biso   1.000  H
  C245     1.0000 0.14242  0.18145  0.15679  Biso   1.000  C
  H243     1.0000 0.13738  0.18125  0.19781  Biso   1.000  H
  C246     1.0000 0.06065  0.76562  0.18916  Biso   1.000  C
  C247     1.0000 0.07127  0.67118  0.22120  Biso   1.000  C
  C248     1.0000 0.07131  0.67125  0.22120  Biso   1.000  C
  C249     1.0000 0.11501  0.68905  0.22399  Biso   1.000  C
  C250     1.0000 0.81863  0.96099  0.15679  Biso   1.000  C
  H244     1.0000 0.81885  0.95620  0.19781  Biso   1.000  H
  C251     1.0000 0.56708  0.92310  0.17361  Biso   1.000  C
  H245     1.0000 0.66444  0.93879  0.14969  Biso   1.000  H
  C252     1.0000 0.56696  0.92310  0.17361  Biso   1.000  C
  H246     1.0000 0.49356  0.93998  0.20250  Biso   1.000  H
  H247     1.0000 0.49359  0.94004  0.20250  Biso   1.000  H
  H248     1.0000 0.46145  0.85631  0.19979  Biso   1.000  H
  H249     1.0000 0.38172  0.47349  0.15880  Biso   1.000  H
  H250     1.0000 0.38166  0.47349  0.15880  Biso   1.000  H
  H251     1.0000 0.19399  0.18631  0.14690  Biso   1.000  H
  H252     1.0000 0.12253  0.21731  0.14670  Biso   1.000  H
  C253     1.0000 0.06989  0.08688  0.15679  Biso   1.000  C
  H253     1.0000 0.12247  0.21731  0.14670  Biso   1.000  H
  C254     1.0000 0.06992  0.08695  0.15679  Biso   1.000  C
  N22      1.0000 0.04739  0.83260  0.18382  Biso   1.000  N
  C255     1.0000 0.06586  0.71223  0.16844  Biso   1.000  C
  H254     1.0000 0.07454  0.65667  0.23990  Biso   1.000  H
  C256     1.0000 0.06784  0.61017  0.19890  Biso   1.000  C
  H255     1.0000 0.07457  0.65674  0.23990  Biso   1.000  H
  C257     1.0000 0.06787  0.61024  0.19890  Biso   1.000  C
  C258     1.0000 0.11616  0.63992  0.19890  Biso   1.000  C
  H256     1.0000 0.13708  0.68701  0.24180  Biso   1.000  H
  C259     1.0000 0.91307  0.98299  0.15679  Biso   1.000  C
  H257     1.0000 0.78276  0.90517  0.14670  Biso   1.000  H
  H258     1.0000 0.78274  0.90524  0.14670  Biso   1.000  H
  H259     1.0000 0.81371  0.00768  0.14690  Biso   1.000  H
  H260     1.0000 0.81375  0.00775  0.14690  Biso   1.000  H
  H261     1.0000 0.81369  0.00775  0.14690  Biso   1.000  H
  H262     1.0000 0.52652  0.90819  0.15880  Biso   1.000  H
  H263     1.0000 0.52647  0.90819  0.15880  Biso   1.000  H
  C260     1.0000 0.08878  0.02161  0.15584  Biso   1.000  C
  C261     1.0000 0.97837  0.06718  0.15584  Biso   1.000  C
  C262     1.0000 0.97846  0.06725  0.15584  Biso   1.000  C
  C263     1.0000 0.97840  0.06725  0.15584  Biso   1.000  C
  C264     1.0000 0.03903  0.85762  0.15679  Biso   1.000  C
  H264     1.0000 0.04380  0.86262  0.19781  Biso   1.000  H
  C265     1.0000 0.07698  0.64393  0.17361  Biso   1.000  C
  H265     1.0000 0.06124  0.72562  0.14969  Biso   1.000  H
  C266     1.0000 0.07687  0.64393  0.17361  Biso   1.000  C
  H266     1.0000 0.06010  0.55363  0.20250  Biso   1.000  H
  H267     1.0000 0.05999  0.55363  0.20250  Biso   1.000  H
  H268     1.0000 0.14369  0.60525  0.19979  Biso   1.000  H
  C267     1.0000 0.93280  0.91121  0.15584  Biso   1.000  C
  C268     1.0000 0.18073  0.03842  0.15820  Biso   1.000  C
  C269     1.0000 0.18067  0.03842  0.15820  Biso   1.000  C
  C270     1.0000 0.01699  0.93013  0.15679  Biso   1.000  C
  C271     1.0000 0.96162  0.14231  0.15820  Biso   1.000  C
  C272     1.0000 0.96156  0.14231  0.15820  Biso   1.000  C
  H269     1.0000 0.99235  0.80601  0.14690  Biso   1.000  H
  H270     1.0000 0.99224  0.80601  0.14690  Biso   1.000  H
  H271     1.0000 0.09482  0.87752  0.14670  Biso   1.000  H
  H272     1.0000 0.09188  0.61832  0.15880  Biso   1.000  H
  H273     1.0000 0.09182  0.61832  0.15880  Biso   1.000  H
  C273     1.0000 0.85777  0.81927  0.15820  Biso   1.000  C
  C274     1.0000 0.85774  0.81934  0.15820  Biso   1.000  C
  H274     1.0000 0.21549  0.09168  0.16949  Biso   1.000  H
  C275     1.0000 0.22281  0.04978  0.13220  Biso   1.000  C
  H275     1.0000 0.21547  0.09174  0.16949  Biso   1.000  H
  C276     1.0000 0.22278  0.04984  0.13220  Biso   1.000  C
  H276     1.0000 0.17989  0.98851  0.16800  Biso   1.000  H
  H277     1.0000 0.17983  0.98851  0.16800  Biso   1.000  H
  H278     1.0000 0.01148  0.19130  0.16800  Biso   1.000  H
  H279     1.0000 0.90828  0.12379  0.16949  Biso   1.000  H
  C277     1.0000 0.95016  0.17298  0.13220  Biso   1.000  C
  C278     1.0000 0.95025  0.17304  0.13220  Biso   1.000  C
  C279     1.0000 0.95020  0.17304  0.13220  Biso   1.000  C
  H280     1.0000 0.87628  0.78453  0.16949  Biso   1.000  H
  H281     1.0000 0.80875  0.82019  0.16800  Biso   1.000  H
  C280     1.0000 0.82699  0.77718  0.13220  Biso   1.000  C
  H282     1.0000 0.87623  0.78453  0.16949  Biso   1.000  H
  C281     1.0000 0.82703  0.77724  0.13220  Biso   1.000  C
  H283     1.0000 0.28139  0.05740  0.13501  Biso   1.000  H
  H284     1.0000 0.22833  0.10212  0.12299  Biso   1.000  H
  H285     1.0000 0.22828  0.10212  0.12299  Biso   1.000  H
  H286     1.0000 0.18792  0.99810  0.12059  Biso   1.000  H
  H287     1.0000 0.00191  0.18979  0.12059  Biso   1.000  H
  H288     1.0000 0.00185  0.18979  0.12059  Biso   1.000  H
  H289     1.0000 0.94258  0.22401  0.13501  Biso   1.000  H
  H290     1.0000 0.89789  0.12622  0.12299  Biso   1.000  H
  H291     1.0000 0.77604  0.71860  0.13501  Biso   1.000  H
  H292     1.0000 0.87386  0.77173  0.12299  Biso   1.000  H
  H293     1.0000 0.81023  0.81211  0.12059  Biso   1.000  H
  H294     1.0000 0.87381  0.77173  0.12299  Biso   1.000  H
  C282     1.0000 0.04982  0.22282  0.36779  Biso   1.000  C
  C283     1.0000 0.03844  0.18073  0.34179  Biso   1.000  C
  C284     1.0000 0.03838  0.18073  0.34179  Biso   1.000  C
  H295     1.0000 0.05738  0.28140  0.36500  Biso   1.000  H
  H296     1.0000 0.10208  0.22827  0.37700  Biso   1.000  H
  H297     1.0000 0.10211  0.22834  0.37700  Biso   1.000  H
  H298     1.0000 0.99811  0.18789  0.37940  Biso   1.000  H
  H299     1.0000 0.99809  0.18795  0.37940  Biso   1.000  H
  C285     1.0000 0.02159  0.08879  0.34417  Biso   1.000  C
  C286     1.0000 0.02162  0.08885  0.34417  Biso   1.000  C
  H300     1.0000 0.09170  0.21547  0.33050  Biso   1.000  H
  H301     1.0000 0.09167  0.21553  0.33050  Biso   1.000  H
  C287     1.0000 0.04976  0.22282  0.36779  Biso   1.000  C
  H302     1.0000 0.98850  0.17981  0.33201  Biso   1.000  H
  C288     1.0000 0.08686  0.06987  0.34320  Biso   1.000  C
  C289     1.0000 0.08690  0.06994  0.34320  Biso   1.000  C
  C290     1.0000 0.93008  0.01701  0.34320  Biso   1.000  C
  C291     1.0000 0.18141  0.14238  0.34320  Biso   1.000  C
  C292     1.0000 0.18138  0.14244  0.34320  Biso   1.000  C
  C293     1.0000 0.06717  0.97839  0.34417  Biso   1.000  C
  C294     1.0000 0.91119  0.93282  0.34417  Biso   1.000  C
  C295     1.0000 0.91113  0.93282  0.34417  Biso   1.000  C
  C296     1.0000 0.85759  0.03901  0.34320  Biso   1.000  C
  C297     1.0000 0.85764  0.03901  0.34320  Biso   1.000  C
  N23      1.0000 0.21479  0.16740  0.31617  Biso   1.000  N
  H303     1.0000 0.18629  0.19399  0.35311  Biso   1.000  H
  H304     1.0000 0.21730  0.12248  0.35329  Biso   1.000  H
  H305     1.0000 0.21727  0.12254  0.35329  Biso   1.000  H
  C298     1.0000 0.98306  0.91312  0.34320  Biso   1.000  C
  C299     1.0000 0.14237  0.96158  0.34179  Biso   1.000  C
  C300     1.0000 0.14234  0.96165  0.34179  Biso   1.000  C
  C301     1.0000 0.14231  0.96158  0.34179  Biso   1.000  C
  C302     1.0000 0.81936  0.85769  0.34179  Biso   1.000  C
  C303     1.0000 0.81925  0.85769  0.34179  Biso   1.000  C
  H306     1.0000 0.80609  0.99232  0.35311  Biso   1.000  H
  H307     1.0000 0.80597  0.99232  0.35311  Biso   1.000  H
  H308     1.0000 0.87753  0.09483  0.35329  Biso   1.000  H
  N24      1.0000 0.83261  0.04741  0.31617  Biso   1.000  N
  H309     1.0000 0.87748  0.09483  0.35329  Biso   1.000  H
  N25      1.0000 0.83256  0.04741  0.31617  Biso   1.000  N
  C304     1.0000 0.29498  0.23438  0.31083  Biso   1.000  C
  C305     1.0000 0.29501  0.23445  0.31083  Biso   1.000  C
  H310     1.0000 0.18119  0.13738  0.30220  Biso   1.000  H
  H311     1.0000 0.18122  0.13745  0.30220  Biso   1.000  H
  C306     1.0000 0.96101  0.81862  0.34320  Biso   1.000  C
  H312     1.0000 0.19132  0.01149  0.33201  Biso   1.000  H
  H313     1.0000 0.19127  0.01149  0.33201  Biso   1.000  H
  H314     1.0000 0.12381  0.90832  0.33050  Biso   1.000  H
  C307     1.0000 0.17309  0.95022  0.36779  Biso   1.000  C
  H315     1.0000 0.12376  0.90832  0.33050  Biso   1.000  H
  C308     1.0000 0.17297  0.95022  0.36779  Biso   1.000  C
  H316     1.0000 0.78455  0.87621  0.33050  Biso   1.000  H
  H317     1.0000 0.82018  0.80870  0.33201  Biso   1.000  H
  C309     1.0000 0.77719  0.82702  0.36779  Biso   1.000  C
  C310     1.0000 0.76562  0.06061  0.31083  Biso   1.000  C
  H318     1.0000 0.86260  0.04380  0.30220  Biso   1.000  H
  C311     1.0000 0.76556  0.06061  0.31083  Biso   1.000  C
  H319     1.0000 0.86266  0.04380  0.30220  Biso   1.000  H
  C312     1.0000 0.32416  0.25408  0.28429  Biso   1.000  C
  C313     1.0000 0.32420  0.25415  0.28429  Biso   1.000  C
  C314     1.0000 0.35358  0.28777  0.33155  Biso   1.000  C
  C315     1.0000 0.35361  0.28784  0.33155  Biso   1.000  C
  H320     1.0000 0.90522  0.78269  0.35329  Biso   1.000  H
  N26      1.0000 0.95265  0.78519  0.31617  Biso   1.000  N
  H321     1.0000 0.90517  0.78269  0.35329  Biso   1.000  H
  N27      1.0000 0.95254  0.78519  0.31617  Biso   1.000  N
  H322     1.0000 0.00774  0.81369  0.35311  Biso   1.000  H
  H323     1.0000 0.18983  0.00190  0.37940  Biso   1.000  H
  H324     1.0000 0.18977  0.00190  0.37940  Biso   1.000  H
  H325     1.0000 0.22405  0.94260  0.36500  Biso   1.000  H
  H326     1.0000 0.12627  0.89788  0.37700  Biso   1.000  H
  H327     1.0000 0.12619  0.89795  0.37700  Biso   1.000  H
  H328     1.0000 0.22393  0.94260  0.36500  Biso   1.000  H
  H329     1.0000 0.81212  0.81021  0.37940  Biso   1.000  H
  H330     1.0000 0.71863  0.77599  0.36500  Biso   1.000  H
  H331     1.0000 0.77167  0.87378  0.37700  Biso   1.000  H
  H332     1.0000 0.77171  0.87385  0.37700  Biso   1.000  H
  C316     1.0000 0.74589  0.07007  0.28429  Biso   1.000  C
  C317     1.0000 0.71219  0.06580  0.33155  Biso   1.000  C
  C318     1.0000 0.74587  0.07014  0.28429  Biso   1.000  C
  S25      1.0000 0.25566  0.19169  0.25579  Biso   1.000  S
  C319     1.0000 0.40009  0.32882  0.27881  Biso   1.000  C
  S26      1.0000 0.25572  0.19169  0.25579  Biso   1.000  S
  C320     1.0000 0.42600  0.31102  0.27600  Biso   1.000  C
  C321     1.0000 0.43300  0.35607  0.32640  Biso   1.000  C
  C322     1.0000 0.43297  0.35614  0.32640  Biso   1.000  C
  H333     1.0000 0.33556  0.27438  0.35029  Biso   1.000  H
  H334     1.0000 0.33559  0.27444  0.35029  Biso   1.000  H
  C323     1.0000 0.93940  0.70500  0.31083  Biso   1.000  C
  H335     1.0000 0.95627  0.81881  0.30220  Biso   1.000  H
  H336     1.0000 0.95621  0.81881  0.30220  Biso   1.000  H
  C324     1.0000 0.67122  0.07132  0.27881  Biso   1.000  C
  S27      1.0000 0.80833  0.06403  0.25579  Biso   1.000  S
  C325     1.0000 0.67116  0.07132  0.27881  Biso   1.000  C
  S28      1.0000 0.80828  0.06403  0.25579  Biso   1.000  S
  C326     1.0000 0.68901  0.11499  0.27600  Biso   1.000  C
  C327     1.0000 0.64392  0.07690  0.32640  Biso   1.000  C
  H337     1.0000 0.72559  0.06121  0.35029  Biso   1.000  H
  C328     1.0000 0.64386  0.07690  0.32640  Biso   1.000  C
  S29      1.0000 0.19173  0.25572  0.24422  Biso   1.000  S
  S30      1.0000 0.19167  0.25572  0.24422  Biso   1.000  S
  H338     1.0000 0.41781  0.34333  0.26011  Biso   1.000  H
  C329     1.0000 0.45761  0.38983  0.30111  Biso   1.000  C
  C330     1.0000 0.47629  0.36008  0.30111  Biso   1.000  C
  H339     1.0000 0.45007  0.31299  0.25821  Biso   1.000  H
  H340     1.0000 0.47350  0.38168  0.34119  Biso   1.000  H
  H341     1.0000 0.47348  0.38175  0.34119  Biso   1.000  H
  C331     1.0000 0.93423  0.64643  0.33155  Biso   1.000  C
  C332     1.0000 0.92997  0.67578  0.28429  Biso   1.000  C
  C333     1.0000 0.92989  0.67585  0.28429  Biso   1.000  C
  H342     1.0000 0.65670  0.07447  0.26011  Biso   1.000  H
  C334     1.0000 0.61018  0.06777  0.30111  Biso   1.000  C
  H343     1.0000 0.65667  0.07454  0.26011  Biso   1.000  H
  C335     1.0000 0.61021  0.06784  0.30111  Biso   1.000  C
  C336     1.0000 0.63990  0.11617  0.30111  Biso   1.000  C
  S31      1.0000 0.74430  0.93597  0.24422  Biso   1.000  S
  S32      1.0000 0.74434  0.93604  0.24422  Biso   1.000  S
  H344     1.0000 0.68700  0.13712  0.25821  Biso   1.000  H
  H345     1.0000 0.61833  0.09181  0.34119  Biso   1.000  H
  H346     1.0000 0.61828  0.09181  0.34119  Biso   1.000  H
  C337     1.0000 0.25413  0.32422  0.21570  Biso   1.000  C
  C338     1.0000 0.25407  0.32422  0.21570  Biso   1.000  C
  H347     1.0000 0.50641  0.44637  0.29751  Biso   1.000  H
  H348     1.0000 0.50639  0.44643  0.29751  Biso   1.000  H
  H349     1.0000 0.53853  0.39482  0.30020  Biso   1.000  H
  C339     1.0000 0.92314  0.56703  0.32640  Biso   1.000  C
  H350     1.0000 0.93885  0.66442  0.35029  Biso   1.000  H
  C340     1.0000 0.92308  0.56703  0.32640  Biso   1.000  C
  C341     1.0000 0.92873  0.59993  0.27881  Biso   1.000  C
  S33      1.0000 0.93601  0.74428  0.25579  Biso   1.000  S
  S34      1.0000 0.93604  0.74434  0.25579  Biso   1.000  S
  C342     1.0000 0.88504  0.57399  0.27600  Biso   1.000  C
  H351     1.0000 0.55359  0.06002  0.29751  Biso   1.000  H
  H352     1.0000 0.55364  0.06002  0.29751  Biso   1.000  H
  H353     1.0000 0.60520  0.14369  0.30020  Biso   1.000  H
  C343     1.0000 0.67588  0.92993  0.21570  Biso   1.000  C
  C344     1.0000 0.67576  0.92993  0.21570  Biso   1.000  C
  C345     1.0000 0.32880  0.40007  0.22120  Biso   1.000  C
  C346     1.0000 0.23440  0.29500  0.18916  Biso   1.000  C
  C347     1.0000 0.32877  0.40014  0.22120  Biso   1.000  C
  C348     1.0000 0.23434  0.29500  0.18916  Biso   1.000  C
  C349     1.0000 0.31100  0.42601  0.22399  Biso   1.000  C
  C350     1.0000 0.93227  0.54240  0.30111  Biso   1.000  C
  C351     1.0000 0.93215  0.54240  0.30111  Biso   1.000  C
  C352     1.0000 0.88381  0.52375  0.30111  Biso   1.000  C
  H354     1.0000 0.90828  0.52651  0.34119  Biso   1.000  H
  H355     1.0000 0.90822  0.52651  0.34119  Biso   1.000  H
  H356     1.0000 0.92555  0.58220  0.26011  Biso   1.000  H
  S35      1.0000 0.06408  0.80831  0.24422  Biso   1.000  S
  S36      1.0000 0.06402  0.80831  0.24422  Biso   1.000  S
  H357     1.0000 0.86290  0.54995  0.25821  Biso   1.000  H
  C353     1.0000 0.70501  0.93939  0.18916  Biso   1.000  C
  C354     1.0000 0.70504  0.93945  0.18916  Biso   1.000  C
  C355     1.0000 0.59995  0.92868  0.22120  Biso   1.000  C
  C356     1.0000 0.59987  0.92875  0.22120  Biso   1.000  C
  C357     1.0000 0.57402  0.88501  0.22399  Biso   1.000  C
  H358     1.0000 0.34329  0.41780  0.23990  Biso   1.000  H
  C358     1.0000 0.38981  0.45760  0.19890  Biso   1.000  C
  C359     1.0000 0.38975  0.45760  0.19890  Biso   1.000  C
  C360     1.0000 0.36009  0.47631  0.19890  Biso   1.000  C
  C361     1.0000 0.28780  0.35357  0.16844  Biso   1.000  C
  N28      1.0000 0.16741  0.21481  0.18382  Biso   1.000  N
  C362     1.0000 0.28778  0.35364  0.16844  Biso   1.000  C
  N29      1.0000 0.16735  0.21481  0.18382  Biso   1.000  N
  H359     1.0000 0.31298  0.45011  0.24180  Biso   1.000  H
  H360     1.0000 0.94000  0.49361  0.29751  Biso   1.000  H
  H361     1.0000 0.85632  0.46149  0.30020  Biso   1.000  H
  C363     1.0000 0.07008  0.74592  0.21570  Biso   1.000  C
  N30      1.0000 0.78520  0.95259  0.18382  Biso   1.000  N
  N31      1.0000 0.78517  0.95265  0.18382  Biso   1.000  N
  C364     1.0000 0.64645  0.93420  0.16844  Biso   1.000  C
  H362     1.0000 0.58223  0.92553  0.23990  Biso   1.000  H
  C365     1.0000 0.54247  0.93223  0.19890  Biso   1.000  C
  C366     1.0000 0.52367  0.88383  0.19890  Biso   1.000  C
  H363     1.0000 0.54997  0.86294  0.24180  Biso   1.000  H
  H364     1.0000 0.44639  0.50639  0.20250  Biso   1.000  H
  C367     1.0000 0.35611  0.43297  0.17361  Biso   1.000  C
  C368     1.0000 0.35609  0.43304  0.17361  Biso   1.000  C
  H365     1.0000 0.39483  0.53851  0.19979  Biso   1.000  H
  H366     1.0000 0.27437  0.33558  0.14969  Biso   1.000  H
  H367     1.0000 0.27440  0.33565  0.14969  Biso   1.000  H
  C369     1.0000 0.14239  0.18138  0.15679  Biso   1.000  C
  H368     1.0000 0.13740  0.18119  0.19781  Biso   1.000  H
  C370     1.0000 0.14242  0.18145  0.15679  Biso   1.000  C
  H369     1.0000 0.13738  0.18125  0.19781  Biso   1.000  H
  C371     1.0000 0.06065  0.76562  0.18916  Biso   1.000  C
  C372     1.0000 0.07127  0.67118  0.22120  Biso   1.000  C
  C373     1.0000 0.07131  0.67125  0.22120  Biso   1.000  C
  C374     1.0000 0.11501  0.68905  0.22399  Biso   1.000  C
  C375     1.0000 0.81863  0.96099  0.15679  Biso   1.000  C
  H370     1.0000 0.81885  0.95620  0.19781  Biso   1.000  H
  C376     1.0000 0.56708  0.92310  0.17361  Biso   1.000  C
  H371     1.0000 0.66444  0.93879  0.14969  Biso   1.000  H
  C377     1.0000 0.56696  0.92310  0.17361  Biso   1.000  C
  H372     1.0000 0.49356  0.93998  0.20250  Biso   1.000  H
  H373     1.0000 0.49359  0.94004  0.20250  Biso   1.000  H
  H374     1.0000 0.46145  0.85631  0.19979  Biso   1.000  H
  H375     1.0000 0.38172  0.47349  0.15880  Biso   1.000  H
  H376     1.0000 0.38166  0.47349  0.15880  Biso   1.000  H
  H377     1.0000 0.19399  0.18631  0.14690  Biso   1.000  H
  H378     1.0000 0.12253  0.21731  0.14670  Biso   1.000  H
  C378     1.0000 0.06989  0.08688  0.15679  Biso   1.000  C
  H379     1.0000 0.12247  0.21731  0.14670  Biso   1.000  H
  C379     1.0000 0.06992  0.08695  0.15679  Biso   1.000  C
  N32      1.0000 0.04739  0.83260  0.18382  Biso   1.000  N
  C380     1.0000 0.06586  0.71223  0.16844  Biso   1.000  C
  H380     1.0000 0.07454  0.65667  0.23990  Biso   1.000  H
  C381     1.0000 0.06784  0.61017  0.19890  Biso   1.000  C
  H381     1.0000 0.07457  0.65674  0.23990  Biso   1.000  H
  C382     1.0000 0.06787  0.61024  0.19890  Biso   1.000  C
  C383     1.0000 0.11616  0.63992  0.19890  Biso   1.000  C
  H382     1.0000 0.13708  0.68701  0.24180  Biso   1.000  H
  C384     1.0000 0.91307  0.98299  0.15679  Biso   1.000  C
  H383     1.0000 0.78276  0.90517  0.14670  Biso   1.000  H
  H384     1.0000 0.78274  0.90524  0.14670  Biso   1.000  H
  H385     1.0000 0.81371  0.00768  0.14690  Biso   1.000  H
  H386     1.0000 0.81375  0.00775  0.14690  Biso   1.000  H
  H387     1.0000 0.81369  0.00775  0.14690  Biso   1.000  H
  H388     1.0000 0.52652  0.90819  0.15880  Biso   1.000  H
  H389     1.0000 0.52647  0.90819  0.15880  Biso   1.000  H
  C385     1.0000 0.08878  0.02161  0.15584  Biso   1.000  C
  C386     1.0000 0.97837  0.06718  0.15584  Biso   1.000  C
  C387     1.0000 0.97846  0.06725  0.15584  Biso   1.000  C
  C388     1.0000 0.97840  0.06725  0.15584  Biso   1.000  C
  C389     1.0000 0.03903  0.85762  0.15679  Biso   1.000  C
  H390     1.0000 0.04380  0.86262  0.19781  Biso   1.000  H
  C390     1.0000 0.07698  0.64393  0.17361  Biso   1.000  C
  H391     1.0000 0.06124  0.72562  0.14969  Biso   1.000  H
  C391     1.0000 0.07687  0.64393  0.17361  Biso   1.000  C
  H392     1.0000 0.06010  0.55363  0.20250  Biso   1.000  H
  H393     1.0000 0.05999  0.55363  0.20250  Biso   1.000  H
  H394     1.0000 0.14369  0.60525  0.19979  Biso   1.000  H
  C392     1.0000 0.93280  0.91121  0.15584  Biso   1.000  C
  C393     1.0000 0.18073  0.03842  0.15820  Biso   1.000  C
  C394     1.0000 0.18067  0.03842  0.15820  Biso   1.000  C
  C395     1.0000 0.01699  0.93013  0.15679  Biso   1.000  C
  C396     1.0000 0.96162  0.14231  0.15820  Biso   1.000  C
  C397     1.0000 0.96156  0.14231  0.15820  Biso   1.000  C
  H395     1.0000 0.09482  0.87752  0.14670  Biso   1.000  H
  H396     1.0000 0.99235  0.80601  0.14690  Biso   1.000  H
  H397     1.0000 0.99224  0.80601  0.14690  Biso   1.000  H
  H398     1.0000 0.09188  0.61832  0.15880  Biso   1.000  H
  H399     1.0000 0.09182  0.61832  0.15880  Biso   1.000  H
  C398     1.0000 0.85777  0.81927  0.15820  Biso   1.000  C
  C399     1.0000 0.85774  0.81934  0.15820  Biso   1.000  C
  H400     1.0000 0.21549  0.09168  0.16949  Biso   1.000  H
  C400     1.0000 0.22281  0.04978  0.13220  Biso   1.000  C
  H401     1.0000 0.21547  0.09174  0.16949  Biso   1.000  H
  C401     1.0000 0.22278  0.04984  0.13220  Biso   1.000  C
  H402     1.0000 0.17989  0.98851  0.16800  Biso   1.000  H
  H403     1.0000 0.17983  0.98851  0.16800  Biso   1.000  H
  H404     1.0000 0.01148  0.19130  0.16800  Biso   1.000  H
  H405     1.0000 0.90828  0.12379  0.16949  Biso   1.000  H
  C402     1.0000 0.95016  0.17298  0.13220  Biso   1.000  C
  C403     1.0000 0.95025  0.17304  0.13220  Biso   1.000  C
  C404     1.0000 0.95020  0.17304  0.13220  Biso   1.000  C
  H406     1.0000 0.87628  0.78453  0.16949  Biso   1.000  H
  H407     1.0000 0.80875  0.82019  0.16800  Biso   1.000  H
  C405     1.0000 0.82699  0.77718  0.13220  Biso   1.000  C
  H408     1.0000 0.87623  0.78453  0.16949  Biso   1.000  H
  C406     1.0000 0.82703  0.77724  0.13220  Biso   1.000  C
  H409     1.0000 0.18792  0.99810  0.12059  Biso   1.000  H
  H410     1.0000 0.28139  0.05740  0.13501  Biso   1.000  H
  H411     1.0000 0.22833  0.10212  0.12299  Biso   1.000  H
  H412     1.0000 0.22828  0.10212  0.12299  Biso   1.000  H
  H413     1.0000 0.00191  0.18979  0.12059  Biso   1.000  H
  H414     1.0000 0.00185  0.18979  0.12059  Biso   1.000  H
  H415     1.0000 0.94258  0.22401  0.13501  Biso   1.000  H
  H416     1.0000 0.89789  0.12622  0.12299  Biso   1.000  H
  H417     1.0000 0.81023  0.81211  0.12059  Biso   1.000  H
  H418     1.0000 0.77604  0.71860  0.13501  Biso   1.000  H
  H419     1.0000 0.87386  0.77173  0.12299  Biso   1.000  H
  H420     1.0000 0.87381  0.77173  0.12299  Biso   1.000  H
  C407     1.0000 0.04982  0.22282  0.36779  Biso   1.000  C
  C408     1.0000 0.03844  0.18073  0.34179  Biso   1.000  C
  C409     1.0000 0.03838  0.18073  0.34179  Biso   1.000  C
  H421     1.0000 0.05738  0.28140  0.36500  Biso   1.000  H
  H422     1.0000 0.99811  0.18789  0.37940  Biso   1.000  H
  H423     1.0000 0.99809  0.18795  0.37940  Biso   1.000  H
  H424     1.0000 0.10208  0.22827  0.37700  Biso   1.000  H
  H425     1.0000 0.10211  0.22834  0.37700  Biso   1.000  H
  C410     1.0000 0.02159  0.08879  0.34417  Biso   1.000  C
  C411     1.0000 0.02162  0.08885  0.34417  Biso   1.000  C
  H426     1.0000 0.98850  0.17981  0.33201  Biso   1.000  H
  H427     1.0000 0.09170  0.21547  0.33050  Biso   1.000  H
  H428     1.0000 0.09167  0.21553  0.33050  Biso   1.000  H
  C412     1.0000 0.04976  0.22282  0.36779  Biso   1.000  C
  C413     1.0000 0.08686  0.06987  0.34320  Biso   1.000  C
  C414     1.0000 0.08690  0.06994  0.34320  Biso   1.000  C
  C415     1.0000 0.93008  0.01701  0.34320  Biso   1.000  C
  C416     1.0000 0.18141  0.14238  0.34320  Biso   1.000  C
  C417     1.0000 0.18138  0.14244  0.34320  Biso   1.000  C
  C418     1.0000 0.06717  0.97839  0.34417  Biso   1.000  C
  C419     1.0000 0.91119  0.93282  0.34417  Biso   1.000  C
  C420     1.0000 0.91113  0.93282  0.34417  Biso   1.000  C
  C421     1.0000 0.85759  0.03901  0.34320  Biso   1.000  C
  C422     1.0000 0.85764  0.03901  0.34320  Biso   1.000  C
  N33      1.0000 0.21479  0.16740  0.31617  Biso   1.000  N
  H429     1.0000 0.18629  0.19399  0.35311  Biso   1.000  H
  H430     1.0000 0.21730  0.12248  0.35329  Biso   1.000  H
  H431     1.0000 0.21727  0.12254  0.35329  Biso   1.000  H
  C423     1.0000 0.98306  0.91312  0.34320  Biso   1.000  C
  C424     1.0000 0.14237  0.96158  0.34179  Biso   1.000  C
  C425     1.0000 0.14234  0.96165  0.34179  Biso   1.000  C
  C426     1.0000 0.14231  0.96158  0.34179  Biso   1.000  C
  C427     1.0000 0.81936  0.85769  0.34179  Biso   1.000  C
  C428     1.0000 0.81925  0.85769  0.34179  Biso   1.000  C
  H432     1.0000 0.80609  0.99232  0.35311  Biso   1.000  H
  H433     1.0000 0.80597  0.99232  0.35311  Biso   1.000  H
  H434     1.0000 0.87753  0.09483  0.35329  Biso   1.000  H
  N34      1.0000 0.83261  0.04741  0.31617  Biso   1.000  N
  H435     1.0000 0.87748  0.09483  0.35329  Biso   1.000  H
  N35      1.0000 0.83256  0.04741  0.31617  Biso   1.000  N
  C429     1.0000 0.29498  0.23438  0.31083  Biso   1.000  C
  C430     1.0000 0.29501  0.23445  0.31083  Biso   1.000  C
  H436     1.0000 0.18119  0.13738  0.30220  Biso   1.000  H
  H437     1.0000 0.18122  0.13745  0.30220  Biso   1.000  H
  C431     1.0000 0.96101  0.81862  0.34320  Biso   1.000  C
  H438     1.0000 0.12381  0.90832  0.33050  Biso   1.000  H
  C432     1.0000 0.17309  0.95022  0.36779  Biso   1.000  C
  H439     1.0000 0.12376  0.90832  0.33050  Biso   1.000  H
  C433     1.0000 0.17297  0.95022  0.36779  Biso   1.000  C
  H440     1.0000 0.19132  0.01149  0.33201  Biso   1.000  H
  H441     1.0000 0.19127  0.01149  0.33201  Biso   1.000  H
  H442     1.0000 0.78455  0.87621  0.33050  Biso   1.000  H
  H443     1.0000 0.82018  0.80870  0.33201  Biso   1.000  H
  C434     1.0000 0.77719  0.82702  0.36779  Biso   1.000  C
  C435     1.0000 0.76562  0.06061  0.31083  Biso   1.000  C
  H444     1.0000 0.86260  0.04380  0.30220  Biso   1.000  H
  C436     1.0000 0.76556  0.06061  0.31083  Biso   1.000  C
  H445     1.0000 0.86266  0.04380  0.30220  Biso   1.000  H
  C437     1.0000 0.32416  0.25408  0.28429  Biso   1.000  C
  C438     1.0000 0.32420  0.25415  0.28429  Biso   1.000  C
  C439     1.0000 0.35358  0.28777  0.33155  Biso   1.000  C
  C440     1.0000 0.35361  0.28784  0.33155  Biso   1.000  C
  H446     1.0000 0.90522  0.78269  0.35329  Biso   1.000  H
  N36      1.0000 0.95265  0.78519  0.31617  Biso   1.000  N
  H447     1.0000 0.90517  0.78269  0.35329  Biso   1.000  H
  N37      1.0000 0.95254  0.78519  0.31617  Biso   1.000  N
  H448     1.0000 0.00774  0.81369  0.35311  Biso   1.000  H
  H449     1.0000 0.22405  0.94260  0.36500  Biso   1.000  H
  H450     1.0000 0.12627  0.89788  0.37700  Biso   1.000  H
  H451     1.0000 0.12619  0.89795  0.37700  Biso   1.000  H
  H452     1.0000 0.22393  0.94260  0.36500  Biso   1.000  H
  H453     1.0000 0.18983  0.00190  0.37940  Biso   1.000  H
  H454     1.0000 0.18977  0.00190  0.37940  Biso   1.000  H
  H455     1.0000 0.81212  0.81021  0.37940  Biso   1.000  H
  H456     1.0000 0.71863  0.77599  0.36500  Biso   1.000  H
  H457     1.0000 0.77167  0.87378  0.37700  Biso   1.000  H
  H458     1.0000 0.77171  0.87385  0.37700  Biso   1.000  H
  C441     1.0000 0.74589  0.07007  0.28429  Biso   1.000  C
  C442     1.0000 0.74587  0.07014  0.28429  Biso   1.000  C
  C443     1.0000 0.71219  0.06580  0.33155  Biso   1.000  C
  S37      1.0000 0.25572  0.19169  0.25579  Biso   1.000  S
  S38      1.0000 0.25566  0.19169  0.25579  Biso   1.000  S
  C444     1.0000 0.40009  0.32882  0.27881  Biso   1.000  C
  C445     1.0000 0.42600  0.31102  0.27600  Biso   1.000  C
  C446     1.0000 0.43300  0.35607  0.32640  Biso   1.000  C
  C447     1.0000 0.43297  0.35614  0.32640  Biso   1.000  C
  H459     1.0000 0.33556  0.27438  0.35029  Biso   1.000  H
  H460     1.0000 0.33559  0.27444  0.35029  Biso   1.000  H
  C448     1.0000 0.93940  0.70500  0.31083  Biso   1.000  C
  H461     1.0000 0.95627  0.81881  0.30220  Biso   1.000  H
  H462     1.0000 0.95621  0.81881  0.30220  Biso   1.000  H
  S39      1.0000 0.80833  0.06403  0.25579  Biso   1.000  S
  S40      1.0000 0.80828  0.06403  0.25579  Biso   1.000  S
  C449     1.0000 0.67122  0.07132  0.27881  Biso   1.000  C
  C450     1.0000 0.67116  0.07132  0.27881  Biso   1.000  C
  C451     1.0000 0.68901  0.11499  0.27600  Biso   1.000  C
  C452     1.0000 0.64392  0.07690  0.32640  Biso   1.000  C
  H463     1.0000 0.72559  0.06121  0.35029  Biso   1.000  H
  C453     1.0000 0.64386  0.07690  0.32640  Biso   1.000  C
  S41      1.0000 0.19173  0.25572  0.24422  Biso   1.000  S
  S42      1.0000 0.19167  0.25572  0.24422  Biso   1.000  S
  H464     1.0000 0.41781  0.34333  0.26011  Biso   1.000  H
  C454     1.0000 0.45761  0.38983  0.30111  Biso   1.000  C
  C455     1.0000 0.47629  0.36008  0.30111  Biso   1.000  C
  H465     1.0000 0.45007  0.31299  0.25821  Biso   1.000  H
  H466     1.0000 0.47350  0.38168  0.34119  Biso   1.000  H
  H467     1.0000 0.47348  0.38175  0.34119  Biso   1.000  H
  C456     1.0000 0.93423  0.64643  0.33155  Biso   1.000  C
  C457     1.0000 0.92997  0.67578  0.28429  Biso   1.000  C
  C458     1.0000 0.92989  0.67585  0.28429  Biso   1.000  C
  S43      1.0000 0.74430  0.93597  0.24422  Biso   1.000  S
  S44      1.0000 0.74434  0.93604  0.24422  Biso   1.000  S
  H468     1.0000 0.65670  0.07447  0.26011  Biso   1.000  H
  C459     1.0000 0.61018  0.06777  0.30111  Biso   1.000  C
  H469     1.0000 0.65667  0.07454  0.26011  Biso   1.000  H
  C460     1.0000 0.61021  0.06784  0.30111  Biso   1.000  C
  C461     1.0000 0.63990  0.11617  0.30111  Biso   1.000  C
  H470     1.0000 0.68700  0.13712  0.25821  Biso   1.000  H
  H471     1.0000 0.61833  0.09181  0.34119  Biso   1.000  H
  H472     1.0000 0.61828  0.09181  0.34119  Biso   1.000  H
  C462     1.0000 0.25413  0.32422  0.21570  Biso   1.000  C
  C463     1.0000 0.25407  0.32422  0.21570  Biso   1.000  C
  H473     1.0000 0.50641  0.44637  0.29751  Biso   1.000  H
  H474     1.0000 0.50639  0.44643  0.29751  Biso   1.000  H
  H475     1.0000 0.53853  0.39482  0.30020  Biso   1.000  H
  C464     1.0000 0.92314  0.56703  0.32640  Biso   1.000  C
  H476     1.0000 0.93885  0.66442  0.35029  Biso   1.000  H
  C465     1.0000 0.92308  0.56703  0.32640  Biso   1.000  C
  C466     1.0000 0.92873  0.59993  0.27881  Biso   1.000  C
  S45      1.0000 0.93601  0.74428  0.25579  Biso   1.000  S
  S46      1.0000 0.93604  0.74434  0.25579  Biso   1.000  S
  C467     1.0000 0.88504  0.57399  0.27600  Biso   1.000  C
  C468     1.0000 0.67588  0.92993  0.21570  Biso   1.000  C
  C469     1.0000 0.67576  0.92993  0.21570  Biso   1.000  C
  H477     1.0000 0.55359  0.06002  0.29751  Biso   1.000  H
  H478     1.0000 0.55364  0.06002  0.29751  Biso   1.000  H
  H479     1.0000 0.60520  0.14369  0.30020  Biso   1.000  H
  C470     1.0000 0.32880  0.40007  0.22120  Biso   1.000  C
  C471     1.0000 0.23440  0.29500  0.18916  Biso   1.000  C
  C472     1.0000 0.32877  0.40014  0.22120  Biso   1.000  C
  C473     1.0000 0.23434  0.29500  0.18916  Biso   1.000  C
  C474     1.0000 0.31100  0.42601  0.22399  Biso   1.000  C
  C475     1.0000 0.93227  0.54240  0.30111  Biso   1.000  C
  C476     1.0000 0.93215  0.54240  0.30111  Biso   1.000  C
  C477     1.0000 0.88381  0.52375  0.30111  Biso   1.000  C
  H480     1.0000 0.90828  0.52651  0.34119  Biso   1.000  H
  H481     1.0000 0.90822  0.52651  0.34119  Biso   1.000  H
  H482     1.0000 0.92555  0.58220  0.26011  Biso   1.000  H
  S47      1.0000 0.06408  0.80831  0.24422  Biso   1.000  S
  S48      1.0000 0.06402  0.80831  0.24422  Biso   1.000  S
  H483     1.0000 0.86290  0.54995  0.25821  Biso   1.000  H
  C478     1.0000 0.70501  0.93939  0.18916  Biso   1.000  C
  C479     1.0000 0.70504  0.93945  0.18916  Biso   1.000  C
  C480     1.0000 0.59995  0.92868  0.22120  Biso   1.000  C
  C481     1.0000 0.59987  0.92875  0.22120  Biso   1.000  C
  C482     1.0000 0.57402  0.88501  0.22399  Biso   1.000  C
  H484     1.0000 0.34329  0.41780  0.23990  Biso   1.000  H
  C483     1.0000 0.38981  0.45760  0.19890  Biso   1.000  C
  C484     1.0000 0.38975  0.45760  0.19890  Biso   1.000  C
  C485     1.0000 0.36009  0.47631  0.19890  Biso   1.000  C
  C486     1.0000 0.28780  0.35357  0.16844  Biso   1.000  C
  N38      1.0000 0.16741  0.21481  0.18382  Biso   1.000  N
  C487     1.0000 0.28778  0.35364  0.16844  Biso   1.000  C
  N39      1.0000 0.16735  0.21481  0.18382  Biso   1.000  N
  H485     1.0000 0.31298  0.45011  0.24180  Biso   1.000  H
  H486     1.0000 0.94000  0.49361  0.29751  Biso   1.000  H
  H487     1.0000 0.85632  0.46149  0.30020  Biso   1.000  H
  C488     1.0000 0.07008  0.74592  0.21570  Biso   1.000  C
  N40      1.0000 0.78520  0.95259  0.18382  Biso   1.000  N
  N41      1.0000 0.78517  0.95265  0.18382  Biso   1.000  N
  C489     1.0000 0.64645  0.93420  0.16844  Biso   1.000  C
  H488     1.0000 0.58223  0.92553  0.23990  Biso   1.000  H
  C490     1.0000 0.54247  0.93223  0.19890  Biso   1.000  C
  C491     1.0000 0.52367  0.88383  0.19890  Biso   1.000  C
  H489     1.0000 0.54997  0.86294  0.24180  Biso   1.000  H
  H490     1.0000 0.44639  0.50639  0.20250  Biso   1.000  H
  C492     1.0000 0.35611  0.43297  0.17361  Biso   1.000  C
  C493     1.0000 0.35609  0.43304  0.17361  Biso   1.000  C
  H491     1.0000 0.39483  0.53851  0.19979  Biso   1.000  H
  H492     1.0000 0.27437  0.33558  0.14969  Biso   1.000  H
  H493     1.0000 0.27440  0.33565  0.14969  Biso   1.000  H
  C494     1.0000 0.14239  0.18138  0.15679  Biso   1.000  C
  H494     1.0000 0.13740  0.18119  0.19781  Biso   1.000  H
  C495     1.0000 0.14242  0.18145  0.15679  Biso   1.000  C
  H495     1.0000 0.13738  0.18125  0.19781  Biso   1.000  H
  C496     1.0000 0.06065  0.76562  0.18916  Biso   1.000  C
  C497     1.0000 0.07127  0.67118  0.22120  Biso   1.000  C
  C498     1.0000 0.07131  0.67125  0.22120  Biso   1.000  C
  C499     1.0000 0.11501  0.68905  0.22399  Biso   1.000  C
  C500     1.0000 0.81863  0.96099  0.15679  Biso   1.000  C
  H496     1.0000 0.81885  0.95620  0.19781  Biso   1.000  H
  C501     1.0000 0.56708  0.92310  0.17361  Biso   1.000  C
  H497     1.0000 0.66444  0.93879  0.14969  Biso   1.000  H
  C502     1.0000 0.56696  0.92310  0.17361  Biso   1.000  C
  H498     1.0000 0.49356  0.93998  0.20250  Biso   1.000  H
  H499     1.0000 0.49359  0.94004  0.20250  Biso   1.000  H
  H500     1.0000 0.46145  0.85631  0.19979  Biso   1.000  H
  H501     1.0000 0.38172  0.47349  0.15880  Biso   1.000  H
  H502     1.0000 0.38166  0.47349  0.15880  Biso   1.000  H
  H503     1.0000 0.19399  0.18631  0.14690  Biso   1.000  H
  H504     1.0000 0.12253  0.21731  0.14670  Biso   1.000  H
  C503     1.0000 0.06989  0.08688  0.15679  Biso   1.000  C
  H505     1.0000 0.12247  0.21731  0.14670  Biso   1.000  H
  C504     1.0000 0.06992  0.08695  0.15679  Biso   1.000  C
  N42      1.0000 0.04739  0.83260  0.18382  Biso   1.000  N
  C505     1.0000 0.06586  0.71223  0.16844  Biso   1.000  C
  H506     1.0000 0.07454  0.65667  0.23990  Biso   1.000  H
  C506     1.0000 0.06784  0.61017  0.19890  Biso   1.000  C
  H507     1.0000 0.07457  0.65674  0.23990  Biso   1.000  H
  C507     1.0000 0.06787  0.61024  0.19890  Biso   1.000  C
  C508     1.0000 0.11616  0.63992  0.19890  Biso   1.000  C
  H508     1.0000 0.13708  0.68701  0.24180  Biso   1.000  H
  C509     1.0000 0.91307  0.98299  0.15679  Biso   1.000  C
  H509     1.0000 0.78276  0.90517  0.14670  Biso   1.000  H
  H510     1.0000 0.78274  0.90524  0.14670  Biso   1.000  H
  H511     1.0000 0.81371  0.00768  0.14690  Biso   1.000  H
  H512     1.0000 0.81375  0.00775  0.14690  Biso   1.000  H
  H513     1.0000 0.81369  0.00775  0.14690  Biso   1.000  H
  H514     1.0000 0.52652  0.90819  0.15880  Biso   1.000  H
  H515     1.0000 0.52647  0.90819  0.15880  Biso   1.000  H
  C510     1.0000 0.08878  0.02161  0.15584  Biso   1.000  C
  C511     1.0000 0.97837  0.06718  0.15584  Biso   1.000  C
  C512     1.0000 0.97846  0.06725  0.15584  Biso   1.000  C
  C513     1.0000 0.97840  0.06725  0.15584  Biso   1.000  C
  C514     1.0000 0.03903  0.85762  0.15679  Biso   1.000  C
  H516     1.0000 0.04380  0.86262  0.19781  Biso   1.000  H
  C515     1.0000 0.07698  0.64393  0.17361  Biso   1.000  C
  H517     1.0000 0.06124  0.72562  0.14969  Biso   1.000  H
  C516     1.0000 0.07687  0.64393  0.17361  Biso   1.000  C
  H518     1.0000 0.06010  0.55363  0.20250  Biso   1.000  H
  H519     1.0000 0.05999  0.55363  0.20250  Biso   1.000  H
  H520     1.0000 0.14369  0.60525  0.19979  Biso   1.000  H
  C517     1.0000 0.93280  0.91121  0.15584  Biso   1.000  C
  C518     1.0000 0.01699  0.93013  0.15679  Biso   1.000  C
  C519     1.0000 0.18073  0.03842  0.15820  Biso   1.000  C
  C520     1.0000 0.18067  0.03842  0.15820  Biso   1.000  C
  C521     1.0000 0.96162  0.14231  0.15820  Biso   1.000  C
  C522     1.0000 0.96156  0.14231  0.15820  Biso   1.000  C
  H521     1.0000 0.09482  0.87752  0.14670  Biso   1.000  H
  H522     1.0000 0.99235  0.80601  0.14690  Biso   1.000  H
  H523     1.0000 0.99224  0.80601  0.14690  Biso   1.000  H
  H524     1.0000 0.09188  0.61832  0.15880  Biso   1.000  H
  H525     1.0000 0.09182  0.61832  0.15880  Biso   1.000  H
  C523     1.0000 0.85777  0.81927  0.15820  Biso   1.000  C
  C524     1.0000 0.85774  0.81934  0.15820  Biso   1.000  C
  H526     1.0000 0.17989  0.98851  0.16800  Biso   1.000  H
  H527     1.0000 0.17983  0.98851  0.16800  Biso   1.000  H
  H528     1.0000 0.21549  0.09168  0.16949  Biso   1.000  H
  C525     1.0000 0.22281  0.04978  0.13220  Biso   1.000  C
  H529     1.0000 0.21547  0.09174  0.16949  Biso   1.000  H
  C526     1.0000 0.22278  0.04984  0.13220  Biso   1.000  C
  H530     1.0000 0.01148  0.19130  0.16800  Biso   1.000  H
  H531     1.0000 0.90828  0.12379  0.16949  Biso   1.000  H
  C527     1.0000 0.95016  0.17298  0.13220  Biso   1.000  C
  C528     1.0000 0.95025  0.17304  0.13220  Biso   1.000  C
  C529     1.0000 0.95020  0.17304  0.13220  Biso   1.000  C
  H532     1.0000 0.87628  0.78453  0.16949  Biso   1.000  H
  H533     1.0000 0.80875  0.82019  0.16800  Biso   1.000  H
  C530     1.0000 0.82699  0.77718  0.13220  Biso   1.000  C
  H534     1.0000 0.87623  0.78453  0.16949  Biso   1.000  H
  C531     1.0000 0.82703  0.77724  0.13220  Biso   1.000  C
  H535     1.0000 0.18792  0.99810  0.12059  Biso   1.000  H
  H536     1.0000 0.28139  0.05740  0.13501  Biso   1.000  H
  H537     1.0000 0.22833  0.10212  0.12299  Biso   1.000  H
  H538     1.0000 0.22828  0.10212  0.12299  Biso   1.000  H
  H539     1.0000 0.94258  0.22401  0.13501  Biso   1.000  H
  H540     1.0000 0.89789  0.12622  0.12299  Biso   1.000  H
  H541     1.0000 0.00191  0.18979  0.12059  Biso   1.000  H
  H542     1.0000 0.00185  0.18979  0.12059  Biso   1.000  H
  H543     1.0000 0.81023  0.81211  0.12059  Biso   1.000  H
  H544     1.0000 0.77604  0.71860  0.13501  Biso   1.000  H
  H545     1.0000 0.87386  0.77173  0.12299  Biso   1.000  H
  H546     1.0000 0.87381  0.77173  0.12299  Biso   1.000  H
  C532     1.0000 0.04982  0.22282  0.36779  Biso   1.000  C
  C533     1.0000 0.03844  0.18073  0.34179  Biso   1.000  C
  C534     1.0000 0.03838  0.18073  0.34179  Biso   1.000  C
  H547     1.0000 0.05738  0.28140  0.36500  Biso   1.000  H
  H548     1.0000 0.99811  0.18789  0.37940  Biso   1.000  H
  H549     1.0000 0.99809  0.18795  0.37940  Biso   1.000  H
  H550     1.0000 0.10208  0.22827  0.37700  Biso   1.000  H
  H551     1.0000 0.10211  0.22834  0.37700  Biso   1.000  H
  C535     1.0000 0.02159  0.08879  0.34417  Biso   1.000  C
  C536     1.0000 0.02162  0.08885  0.34417  Biso   1.000  C
  H552     1.0000 0.98850  0.17981  0.33201  Biso   1.000  H
  H553     1.0000 0.09170  0.21547  0.33050  Biso   1.000  H
  H554     1.0000 0.09167  0.21553  0.33050  Biso   1.000  H
  C537     1.0000 0.04976  0.22282  0.36779  Biso   1.000  C
  C538     1.0000 0.08686  0.06987  0.34320  Biso   1.000  C
  C539     1.0000 0.08690  0.06994  0.34320  Biso   1.000  C
  C540     1.0000 0.93008  0.01701  0.34320  Biso   1.000  C
  C541     1.0000 0.18141  0.14238  0.34320  Biso   1.000  C
  C542     1.0000 0.18138  0.14244  0.34320  Biso   1.000  C
  C543     1.0000 0.06717  0.97839  0.34417  Biso   1.000  C
  C544     1.0000 0.91119  0.93282  0.34417  Biso   1.000  C
  C545     1.0000 0.91113  0.93282  0.34417  Biso   1.000  C
  C546     1.0000 0.85759  0.03901  0.34320  Biso   1.000  C
  C547     1.0000 0.85764  0.03901  0.34320  Biso   1.000  C
  N43      1.0000 0.21479  0.16740  0.31617  Biso   1.000  N
  H555     1.0000 0.18629  0.19399  0.35311  Biso   1.000  H
  H556     1.0000 0.21730  0.12248  0.35329  Biso   1.000  H
  H557     1.0000 0.21727  0.12254  0.35329  Biso   1.000  H
  C548     1.0000 0.98306  0.91312  0.34320  Biso   1.000  C
  C549     1.0000 0.14237  0.96158  0.34179  Biso   1.000  C
  C550     1.0000 0.14234  0.96165  0.34179  Biso   1.000  C
  C551     1.0000 0.14231  0.96158  0.34179  Biso   1.000  C
  C552     1.0000 0.81936  0.85769  0.34179  Biso   1.000  C
  C553     1.0000 0.81925  0.85769  0.34179  Biso   1.000  C
  H558     1.0000 0.80609  0.99232  0.35311  Biso   1.000  H
  H559     1.0000 0.80597  0.99232  0.35311  Biso   1.000  H
  H560     1.0000 0.87753  0.09483  0.35329  Biso   1.000  H
  N44      1.0000 0.83261  0.04741  0.31617  Biso   1.000  N
  H561     1.0000 0.87748  0.09483  0.35329  Biso   1.000  H
  N45      1.0000 0.83256  0.04741  0.31617  Biso   1.000  N
  C554     1.0000 0.29498  0.23438  0.31083  Biso   1.000  C
  C555     1.0000 0.29501  0.23445  0.31083  Biso   1.000  C
  H562     1.0000 0.18119  0.13738  0.30220  Biso   1.000  H
  H563     1.0000 0.18122  0.13745  0.30220  Biso   1.000  H
  C556     1.0000 0.96101  0.81862  0.34320  Biso   1.000  C
  H564     1.0000 0.12381  0.90832  0.33050  Biso   1.000  H
  C557     1.0000 0.17309  0.95022  0.36779  Biso   1.000  C
  H565     1.0000 0.12376  0.90832  0.33050  Biso   1.000  H
  C558     1.0000 0.17297  0.95022  0.36779  Biso   1.000  C
  H566     1.0000 0.19132  0.01149  0.33201  Biso   1.000  H
  H567     1.0000 0.19127  0.01149  0.33201  Biso   1.000  H
  H568     1.0000 0.78455  0.87621  0.33050  Biso   1.000  H
  H569     1.0000 0.82018  0.80870  0.33201  Biso   1.000  H
  C559     1.0000 0.77719  0.82702  0.36779  Biso   1.000  C
  C560     1.0000 0.76562  0.06061  0.31083  Biso   1.000  C
  H570     1.0000 0.86260  0.04380  0.30220  Biso   1.000  H
  C561     1.0000 0.76556  0.06061  0.31083  Biso   1.000  C
  H571     1.0000 0.86266  0.04380  0.30220  Biso   1.000  H
  C562     1.0000 0.32416  0.25408  0.28429  Biso   1.000  C
  C563     1.0000 0.32420  0.25415  0.28429  Biso   1.000  C
  C564     1.0000 0.35358  0.28777  0.33155  Biso   1.000  C
  C565     1.0000 0.35361  0.28784  0.33155  Biso   1.000  C
  H572     1.0000 0.90522  0.78269  0.35329  Biso   1.000  H
  N46      1.0000 0.95265  0.78519  0.31617  Biso   1.000  N
  H573     1.0000 0.90517  0.78269  0.35329  Biso   1.000  H
  N47      1.0000 0.95254  0.78519  0.31617  Biso   1.000  N
  H574     1.0000 0.00774  0.81369  0.35311  Biso   1.000  H
  H575     1.0000 0.22405  0.94260  0.36500  Biso   1.000  H
  H576     1.0000 0.12627  0.89788  0.37700  Biso   1.000  H
  H577     1.0000 0.12619  0.89795  0.37700  Biso   1.000  H
  H578     1.0000 0.22393  0.94260  0.36500  Biso   1.000  H
  H579     1.0000 0.18983  0.00190  0.37940  Biso   1.000  H
  H580     1.0000 0.18977  0.00190  0.37940  Biso   1.000  H
  H581     1.0000 0.81212  0.81021  0.37940  Biso   1.000  H
  H582     1.0000 0.71863  0.77599  0.36500  Biso   1.000  H
  H583     1.0000 0.77167  0.87378  0.37700  Biso   1.000  H
  H584     1.0000 0.77171  0.87385  0.37700  Biso   1.000  H
  C566     1.0000 0.74589  0.07007  0.28429  Biso   1.000  C
  C567     1.0000 0.71219  0.06580  0.33155  Biso   1.000  C
  C568     1.0000 0.74587  0.07014  0.28429  Biso   1.000  C
  C569     1.0000 0.40009  0.32882  0.27881  Biso   1.000  C
  C570     1.0000 0.42600  0.31102  0.27600  Biso   1.000  C
  S49      1.0000 0.25572  0.19169  0.25579  Biso   1.000  S
  S50      1.0000 0.25566  0.19169  0.25579  Biso   1.000  S
  C571     1.0000 0.43300  0.35607  0.32640  Biso   1.000  C
  C572     1.0000 0.43297  0.35614  0.32640  Biso   1.000  C
  H585     1.0000 0.33556  0.27438  0.35029  Biso   1.000  H
  H586     1.0000 0.33559  0.27444  0.35029  Biso   1.000  H
  C573     1.0000 0.93940  0.70500  0.31083  Biso   1.000  C
  H587     1.0000 0.95627  0.81881  0.30220  Biso   1.000  H
  H588     1.0000 0.95621  0.81881  0.30220  Biso   1.000  H
  C574     1.0000 0.67122  0.07132  0.27881  Biso   1.000  C
  S51      1.0000 0.80833  0.06403  0.25579  Biso   1.000  S
  C575     1.0000 0.67116  0.07132  0.27881  Biso   1.000  C
  S52      1.0000 0.80828  0.06403  0.25579  Biso   1.000  S
  C576     1.0000 0.68901  0.11499  0.27600  Biso   1.000  C
  C577     1.0000 0.64392  0.07690  0.32640  Biso   1.000  C
  H589     1.0000 0.72559  0.06121  0.35029  Biso   1.000  H
  C578     1.0000 0.64386  0.07690  0.32640  Biso   1.000  C
  H590     1.0000 0.41781  0.34333  0.26011  Biso   1.000  H
  C579     1.0000 0.45761  0.38983  0.30111  Biso   1.000  C
  C580     1.0000 0.47629  0.36008  0.30111  Biso   1.000  C
  H591     1.0000 0.45007  0.31299  0.25821  Biso   1.000  H
  S53      1.0000 0.19173  0.25572  0.24422  Biso   1.000  S
  S54      1.0000 0.19167  0.25572  0.24422  Biso   1.000  S
  H592     1.0000 0.47350  0.38168  0.34119  Biso   1.000  H
  H593     1.0000 0.47348  0.38175  0.34119  Biso   1.000  H
  C581     1.0000 0.93423  0.64643  0.33155  Biso   1.000  C
  C582     1.0000 0.92997  0.67578  0.28429  Biso   1.000  C
  C583     1.0000 0.92989  0.67585  0.28429  Biso   1.000  C
  H594     1.0000 0.65670  0.07447  0.26011  Biso   1.000  H
  C584     1.0000 0.61018  0.06777  0.30111  Biso   1.000  C
  H595     1.0000 0.65667  0.07454  0.26011  Biso   1.000  H
  C585     1.0000 0.61021  0.06784  0.30111  Biso   1.000  C
  C586     1.0000 0.63990  0.11617  0.30111  Biso   1.000  C
  S55      1.0000 0.74430  0.93597  0.24422  Biso   1.000  S
  S56      1.0000 0.74434  0.93604  0.24422  Biso   1.000  S
  H596     1.0000 0.68700  0.13712  0.25821  Biso   1.000  H
  H597     1.0000 0.61833  0.09181  0.34119  Biso   1.000  H
  H598     1.0000 0.61828  0.09181  0.34119  Biso   1.000  H
  H599     1.0000 0.50641  0.44637  0.29751  Biso   1.000  H
  H600     1.0000 0.50639  0.44643  0.29751  Biso   1.000  H
  H601     1.0000 0.53853  0.39482  0.30020  Biso   1.000  H
  C587     1.0000 0.25413  0.32422  0.21570  Biso   1.000  C
  C588     1.0000 0.25407  0.32422  0.21570  Biso   1.000  C
  C589     1.0000 0.92314  0.56703  0.32640  Biso   1.000  C
  H602     1.0000 0.93885  0.66442  0.35029  Biso   1.000  H
  C590     1.0000 0.92308  0.56703  0.32640  Biso   1.000  C
  C591     1.0000 0.92873  0.59993  0.27881  Biso   1.000  C
  S57      1.0000 0.93601  0.74428  0.25579  Biso   1.000  S
  S58      1.0000 0.93604  0.74434  0.25579  Biso   1.000  S
  C592     1.0000 0.88504  0.57399  0.27600  Biso   1.000  C
  H603     1.0000 0.55359  0.06002  0.29751  Biso   1.000  H
  H604     1.0000 0.55364  0.06002  0.29751  Biso   1.000  H
  H605     1.0000 0.60520  0.14369  0.30020  Biso   1.000  H
  C593     1.0000 0.67588  0.92993  0.21570  Biso   1.000  C
  C594     1.0000 0.67576  0.92993  0.21570  Biso   1.000  C
  C595     1.0000 0.32880  0.40007  0.22120  Biso   1.000  C
  C596     1.0000 0.23440  0.29500  0.18916  Biso   1.000  C
  C597     1.0000 0.32877  0.40014  0.22120  Biso   1.000  C
  C598     1.0000 0.23434  0.29500  0.18916  Biso   1.000  C
  C599     1.0000 0.31100  0.42601  0.22399  Biso   1.000  C
  C600     1.0000 0.93227  0.54240  0.30111  Biso   1.000  C
  C601     1.0000 0.93215  0.54240  0.30111  Biso   1.000  C
  C602     1.0000 0.88381  0.52375  0.30111  Biso   1.000  C
  H606     1.0000 0.90828  0.52651  0.34119  Biso   1.000  H
  H607     1.0000 0.90822  0.52651  0.34119  Biso   1.000  H
  H608     1.0000 0.92555  0.58220  0.26011  Biso   1.000  H
  S59      1.0000 0.06408  0.80831  0.24422  Biso   1.000  S
  S60      1.0000 0.06402  0.80831  0.24422  Biso   1.000  S
  H609     1.0000 0.86290  0.54995  0.25821  Biso   1.000  H
  C603     1.0000 0.70501  0.93939  0.18916  Biso   1.000  C
  C604     1.0000 0.70504  0.93945  0.18916  Biso   1.000  C
  C605     1.0000 0.59995  0.92868  0.22120  Biso   1.000  C
  C606     1.0000 0.59987  0.92875  0.22120  Biso   1.000  C
  C607     1.0000 0.57402  0.88501  0.22399  Biso   1.000  C
  H610     1.0000 0.34329  0.41780  0.23990  Biso   1.000  H
  C608     1.0000 0.38981  0.45760  0.19890  Biso   1.000  C
  C609     1.0000 0.38975  0.45760  0.19890  Biso   1.000  C
  C610     1.0000 0.36009  0.47631  0.19890  Biso   1.000  C
  C611     1.0000 0.28780  0.35357  0.16844  Biso   1.000  C
  N48      1.0000 0.16741  0.21481  0.18382  Biso   1.000  N
  C612     1.0000 0.28778  0.35364  0.16844  Biso   1.000  C
  N49      1.0000 0.16735  0.21481  0.18382  Biso   1.000  N
  H611     1.0000 0.31298  0.45011  0.24180  Biso   1.000  H
  H612     1.0000 0.94000  0.49361  0.29751  Biso   1.000  H
  H613     1.0000 0.85632  0.46149  0.30020  Biso   1.000  H
  C613     1.0000 0.07008  0.74592  0.21570  Biso   1.000  C
  N50      1.0000 0.78520  0.95259  0.18382  Biso   1.000  N
  N51      1.0000 0.78517  0.95265  0.18382  Biso   1.000  N
  C614     1.0000 0.64645  0.93420  0.16844  Biso   1.000  C
  H614     1.0000 0.58223  0.92553  0.23990  Biso   1.000  H
  C615     1.0000 0.54247  0.93223  0.19890  Biso   1.000  C
  C616     1.0000 0.52367  0.88383  0.19890  Biso   1.000  C
  H615     1.0000 0.54997  0.86294  0.24180  Biso   1.000  H
  H616     1.0000 0.44639  0.50639  0.20250  Biso   1.000  H
  C617     1.0000 0.35611  0.43297  0.17361  Biso   1.000  C
  C618     1.0000 0.35609  0.43304  0.17361  Biso   1.000  C
  H617     1.0000 0.39483  0.53851  0.19979  Biso   1.000  H
  H618     1.0000 0.27437  0.33558  0.14969  Biso   1.000  H
  H619     1.0000 0.27440  0.33565  0.14969  Biso   1.000  H
  C619     1.0000 0.14239  0.18138  0.15679  Biso   1.000  C
  H620     1.0000 0.13740  0.18119  0.19781  Biso   1.000  H
  C620     1.0000 0.14242  0.18145  0.15679  Biso   1.000  C
  H621     1.0000 0.13738  0.18125  0.19781  Biso   1.000  H
  C621     1.0000 0.06065  0.76562  0.18916  Biso   1.000  C
  C622     1.0000 0.07127  0.67118  0.22120  Biso   1.000  C
  C623     1.0000 0.07131  0.67125  0.22120  Biso   1.000  C
  C624     1.0000 0.11501  0.68905  0.22399  Biso   1.000  C
  C625     1.0000 0.81863  0.96099  0.15679  Biso   1.000  C
  H622     1.0000 0.81885  0.95620  0.19781  Biso   1.000  H
  C626     1.0000 0.56708  0.92310  0.17361  Biso   1.000  C
  H623     1.0000 0.66444  0.93879  0.14969  Biso   1.000  H
  C627     1.0000 0.56696  0.92310  0.17361  Biso   1.000  C
  H624     1.0000 0.49356  0.93998  0.20250  Biso   1.000  H
  H625     1.0000 0.49359  0.94004  0.20250  Biso   1.000  H
  H626     1.0000 0.46145  0.85631  0.19979  Biso   1.000  H
  H627     1.0000 0.38172  0.47349  0.15880  Biso   1.000  H
  H628     1.0000 0.38166  0.47349  0.15880  Biso   1.000  H
  H629     1.0000 0.19399  0.18631  0.14690  Biso   1.000  H
  H630     1.0000 0.12253  0.21731  0.14670  Biso   1.000  H
  C628     1.0000 0.06989  0.08688  0.15679  Biso   1.000  C
  H631     1.0000 0.12247  0.21731  0.14670  Biso   1.000  H
  C629     1.0000 0.06992  0.08695  0.15679  Biso   1.000  C
  N52      1.0000 0.04739  0.83260  0.18382  Biso   1.000  N
  C630     1.0000 0.06586  0.71223  0.16844  Biso   1.000  C
  H632     1.0000 0.07454  0.65667  0.23990  Biso   1.000  H
  C631     1.0000 0.06784  0.61017  0.19890  Biso   1.000  C
  H633     1.0000 0.07457  0.65674  0.23990  Biso   1.000  H
  C632     1.0000 0.06787  0.61024  0.19890  Biso   1.000  C
  C633     1.0000 0.11616  0.63992  0.19890  Biso   1.000  C
  H634     1.0000 0.13708  0.68701  0.24180  Biso   1.000  H
  C634     1.0000 0.91307  0.98299  0.15679  Biso   1.000  C
  H635     1.0000 0.78276  0.90517  0.14670  Biso   1.000  H
  H636     1.0000 0.78274  0.90524  0.14670  Biso   1.000  H
  H637     1.0000 0.81371  0.00768  0.14690  Biso   1.000  H
  H638     1.0000 0.81375  0.00775  0.14690  Biso   1.000  H
  H639     1.0000 0.81369  0.00775  0.14690  Biso   1.000  H
  H640     1.0000 0.52652  0.90819  0.15880  Biso   1.000  H
  H641     1.0000 0.52647  0.90819  0.15880  Biso   1.000  H
  C635     1.0000 0.08878  0.02161  0.15584  Biso   1.000  C
  C636     1.0000 0.97837  0.06718  0.15584  Biso   1.000  C
  C637     1.0000 0.97846  0.06725  0.15584  Biso   1.000  C
  C638     1.0000 0.97840  0.06725  0.15584  Biso   1.000  C
  C639     1.0000 0.03903  0.85762  0.15679  Biso   1.000  C
  H642     1.0000 0.04380  0.86262  0.19781  Biso   1.000  H
  C640     1.0000 0.07698  0.64393  0.17361  Biso   1.000  C
  H643     1.0000 0.06124  0.72562  0.14969  Biso   1.000  H
  C641     1.0000 0.07687  0.64393  0.17361  Biso   1.000  C
  H644     1.0000 0.06010  0.55363  0.20250  Biso   1.000  H
  H645     1.0000 0.05999  0.55363  0.20250  Biso   1.000  H
  H646     1.0000 0.14369  0.60525  0.19979  Biso   1.000  H
  C642     1.0000 0.93280  0.91121  0.15584  Biso   1.000  C
  C643     1.0000 0.01699  0.93013  0.15679  Biso   1.000  C
  C644     1.0000 0.18073  0.03842  0.15820  Biso   1.000  C
  C645     1.0000 0.18067  0.03842  0.15820  Biso   1.000  C
  C646     1.0000 0.96162  0.14231  0.15820  Biso   1.000  C
  C647     1.0000 0.96156  0.14231  0.15820  Biso   1.000  C
  H647     1.0000 0.09482  0.87752  0.14670  Biso   1.000  H
  H648     1.0000 0.99235  0.80601  0.14690  Biso   1.000  H
  H649     1.0000 0.99224  0.80601  0.14690  Biso   1.000  H
  H650     1.0000 0.09188  0.61832  0.15880  Biso   1.000  H
  H651     1.0000 0.09182  0.61832  0.15880  Biso   1.000  H
  C648     1.0000 0.85777  0.81927  0.15820  Biso   1.000  C
  C649     1.0000 0.85774  0.81934  0.15820  Biso   1.000  C
  H652     1.0000 0.17989  0.98851  0.16800  Biso   1.000  H
  H653     1.0000 0.17983  0.98851  0.16800  Biso   1.000  H
  H654     1.0000 0.21549  0.09168  0.16949  Biso   1.000  H
  C650     1.0000 0.22281  0.04978  0.13220  Biso   1.000  C
  H655     1.0000 0.21547  0.09174  0.16949  Biso   1.000  H
  C651     1.0000 0.22278  0.04984  0.13220  Biso   1.000  C
  H656     1.0000 0.01148  0.19130  0.16800  Biso   1.000  H
  H657     1.0000 0.90828  0.12379  0.16949  Biso   1.000  H
  C652     1.0000 0.95016  0.17298  0.13220  Biso   1.000  C
  C653     1.0000 0.95025  0.17304  0.13220  Biso   1.000  C
  C654     1.0000 0.95020  0.17304  0.13220  Biso   1.000  C
  H658     1.0000 0.87628  0.78453  0.16949  Biso   1.000  H
  H659     1.0000 0.80875  0.82019  0.16800  Biso   1.000  H
  C655     1.0000 0.82699  0.77718  0.13220  Biso   1.000  C
  H660     1.0000 0.87623  0.78453  0.16949  Biso   1.000  H
  C656     1.0000 0.82703  0.77724  0.13220  Biso   1.000  C
  H661     1.0000 0.18792  0.99810  0.12059  Biso   1.000  H
  H662     1.0000 0.28139  0.05740  0.13501  Biso   1.000  H
  H663     1.0000 0.22833  0.10212  0.12299  Biso   1.000  H
  H664     1.0000 0.22828  0.10212  0.12299  Biso   1.000  H
  H665     1.0000 0.94258  0.22401  0.13501  Biso   1.000  H
  H666     1.0000 0.89789  0.12622  0.12299  Biso   1.000  H
  H667     1.0000 0.00191  0.18979  0.12059  Biso   1.000  H
  H668     1.0000 0.00185  0.18979  0.12059  Biso   1.000  H
  H669     1.0000 0.81023  0.81211  0.12059  Biso   1.000  H
  H670     1.0000 0.77604  0.71860  0.13501  Biso   1.000  H
  H671     1.0000 0.87386  0.77173  0.12299  Biso   1.000  H
  H672     1.0000 0.87381  0.77173  0.12299  Biso   1.000  H
  C657     1.0000 0.22279  0.17304  0.63221  Biso   1.000  C
  C658     1.0000 0.18069  0.14231  0.65821  Biso   1.000  C
  H673     1.0000 0.28143  0.22401  0.63500  Biso   1.000  H
  H674     1.0000 0.22833  0.12622  0.62300  Biso   1.000  H
  H675     1.0000 0.18788  0.18979  0.62060  Biso   1.000  H
  H676     1.0000 0.28137  0.22401  0.63500  Biso   1.000  H
  H677     1.0000 0.22827  0.12622  0.62300  Biso   1.000  H
  C659     1.0000 0.08881  0.06718  0.65583  Biso   1.000  C
  H678     1.0000 0.21551  0.12379  0.66950  Biso   1.000  H
  H679     1.0000 0.17982  0.19130  0.66799  Biso   1.000  H
  C660     1.0000 0.22281  0.17298  0.63221  Biso   1.000  C
  C661     1.0000 0.08879  0.06725  0.65583  Biso   1.000  C
  H680     1.0000 0.21545  0.12379  0.66950  Biso   1.000  H
  H681     1.0000 0.17977  0.19130  0.66799  Biso   1.000  H
  C662     1.0000 0.01700  0.08688  0.65680  Biso   1.000  C
  C663     1.0000 0.01697  0.08695  0.65680  Biso   1.000  C
  C664     1.0000 0.06992  0.98299  0.65680  Biso   1.000  C
  C665     1.0000 0.03899  0.18138  0.65680  Biso   1.000  C
  C666     1.0000 0.03897  0.18145  0.65680  Biso   1.000  C
  C667     1.0000 0.93283  0.02161  0.65583  Biso   1.000  C
  C668     1.0000 0.93277  0.02161  0.65583  Biso   1.000  C
  C669     1.0000 0.97847  0.91121  0.65583  Biso   1.000  C
  C670     1.0000 0.97841  0.91121  0.65583  Biso   1.000  C
  C671     1.0000 0.14247  0.96099  0.65680  Biso   1.000  C
  C672     1.0000 0.14236  0.96099  0.65680  Biso   1.000  C
  H682     1.0000 0.09478  0.21731  0.64671  Biso   1.000  H
  N53      1.0000 0.04740  0.21481  0.68383  Biso   1.000  N
  H683     1.0000 0.99232  0.18631  0.64689  Biso   1.000  H
  H684     1.0000 0.99226  0.18631  0.64689  Biso   1.000  H
  C673     1.0000 0.91319  0.93013  0.65680  Biso   1.000  C
  C674     1.0000 0.91314  0.93013  0.65680  Biso   1.000  C
  C675     1.0000 0.85769  0.03842  0.65821  Biso   1.000  C
  C676     1.0000 0.96156  0.81927  0.65821  Biso   1.000  C
  C677     1.0000 0.96159  0.81934  0.65821  Biso   1.000  C
  H685     1.0000 0.19397  0.00768  0.64689  Biso   1.000  H
  H686     1.0000 0.19400  0.00775  0.64689  Biso   1.000  H
  H687     1.0000 0.12247  0.90517  0.64671  Biso   1.000  H
  N54      1.0000 0.16744  0.95259  0.68383  Biso   1.000  N
  H688     1.0000 0.12250  0.90524  0.64671  Biso   1.000  H
  N55      1.0000 0.16748  0.95265  0.68383  Biso   1.000  N
  C678     1.0000 0.06060  0.29500  0.68917  Biso   1.000  C
  H689     1.0000 0.04379  0.18119  0.69780  Biso   1.000  H
  H690     1.0000 0.04382  0.18125  0.69780  Biso   1.000  H
  C679     1.0000 0.81859  0.85762  0.65680  Biso   1.000  C
  H691     1.0000 0.80868  0.98851  0.66799  Biso   1.000  H
  H692     1.0000 0.87619  0.09168  0.66950  Biso   1.000  H
  C680     1.0000 0.82697  0.04978  0.63221  Biso   1.000  C
  H693     1.0000 0.87628  0.09174  0.66950  Biso   1.000  H
  C681     1.0000 0.82700  0.04984  0.63221  Biso   1.000  C
  H694     1.0000 0.87622  0.09174  0.66950  Biso   1.000  H
  H695     1.0000 0.90830  0.78453  0.66950  Biso   1.000  H
  C682     1.0000 0.95018  0.77718  0.63221  Biso   1.000  C
  C683     1.0000 0.95021  0.77724  0.63221  Biso   1.000  C
  H696     1.0000 0.01156  0.82019  0.66799  Biso   1.000  H
  H697     1.0000 0.01144  0.82019  0.66799  Biso   1.000  H
  C684     1.0000 0.23438  0.93939  0.68917  Biso   1.000  C
  H698     1.0000 0.13740  0.95620  0.69780  Biso   1.000  H
  C685     1.0000 0.23441  0.93945  0.68917  Biso   1.000  C
  H699     1.0000 0.13734  0.95620  0.69780  Biso   1.000  H
  C686     1.0000 0.07009  0.32422  0.71571  Biso   1.000  C
  C687     1.0000 0.06577  0.35357  0.66845  Biso   1.000  C
  C688     1.0000 0.06580  0.35364  0.66845  Biso   1.000  C
  H700     1.0000 0.81377  0.80601  0.64689  Biso   1.000  H
  H701     1.0000 0.78270  0.87752  0.64671  Biso   1.000  H
  N56      1.0000 0.78527  0.83260  0.68383  Biso   1.000  N
  H702     1.0000 0.81366  0.80601  0.64689  Biso   1.000  H
  N57      1.0000 0.78521  0.83260  0.68383  Biso   1.000  N
  H703     1.0000 0.81017  0.99810  0.62060  Biso   1.000  H
  H704     1.0000 0.77601  0.05740  0.63500  Biso   1.000  H
  H705     1.0000 0.87379  0.10212  0.62300  Biso   1.000  H
  H706     1.0000 0.77595  0.05740  0.63500  Biso   1.000  H
  H707     1.0000 0.94267  0.71860  0.63500  Biso   1.000  H
  H708     1.0000 0.89792  0.77173  0.62300  Biso   1.000  H
  H709     1.0000 0.94256  0.71860  0.63500  Biso   1.000  H
  H710     1.0000 0.89786  0.77173  0.62300  Biso   1.000  H
  H711     1.0000 0.00189  0.81211  0.62060  Biso   1.000  H
  C689     1.0000 0.25416  0.92993  0.71571  Biso   1.000  C
  C690     1.0000 0.28781  0.93420  0.66845  Biso   1.000  C
  C691     1.0000 0.28775  0.93420  0.66845  Biso   1.000  C
  C692     1.0000 0.07127  0.40007  0.72119  Biso   1.000  C
  S61      1.0000 0.06399  0.25572  0.74421  Biso   1.000  S
  C693     1.0000 0.07131  0.40014  0.72119  Biso   1.000  C
  C694     1.0000 0.11501  0.42601  0.72400  Biso   1.000  C
  C695     1.0000 0.07686  0.43297  0.67360  Biso   1.000  C
  H712     1.0000 0.06121  0.33558  0.64971  Biso   1.000  H
  C696     1.0000 0.07690  0.43304  0.67360  Biso   1.000  C
  H713     1.0000 0.06119  0.33565  0.64971  Biso   1.000  H
  C697     1.0000 0.70502  0.76562  0.68917  Biso   1.000  C
  H714     1.0000 0.81881  0.86262  0.69780  Biso   1.000  H
  C698     1.0000 0.70497  0.76562  0.68917  Biso   1.000  C
  C699     1.0000 0.32884  0.92868  0.72119  Biso   1.000  C
  S62      1.0000 0.19167  0.93597  0.74421  Biso   1.000  S
  C700     1.0000 0.32887  0.92875  0.72119  Biso   1.000  C
  S63      1.0000 0.19170  0.93604  0.74421  Biso   1.000  S
  C701     1.0000 0.31099  0.88501  0.72400  Biso   1.000  C
  C702     1.0000 0.35614  0.92310  0.67360  Biso   1.000  C
  H715     1.0000 0.27446  0.93879  0.64971  Biso   1.000  H
  H716     1.0000 0.27435  0.93879  0.64971  Biso   1.000  H
  H717     1.0000 0.07451  0.41780  0.73989  Biso   1.000  H
  C703     1.0000 0.06779  0.45760  0.69889  Biso   1.000  C
  H718     1.0000 0.07445  0.41780  0.73989  Biso   1.000  H
  C704     1.0000 0.11622  0.47631  0.69889  Biso   1.000  C
  S64      1.0000 0.93598  0.19169  0.75578  Biso   1.000  S
  H719     1.0000 0.13713  0.45011  0.74179  Biso   1.000  H
  H720     1.0000 0.09178  0.47349  0.65881  Biso   1.000  H
  C705     1.0000 0.67584  0.74592  0.71571  Biso   1.000  C
  C706     1.0000 0.64642  0.71223  0.66845  Biso   1.000  C
  C707     1.0000 0.64637  0.71223  0.66845  Biso   1.000  C
  H721     1.0000 0.34330  0.92553  0.73989  Biso   1.000  H
  C708     1.0000 0.38982  0.93223  0.69889  Biso   1.000  C
  C709     1.0000 0.38976  0.93223  0.69889  Biso   1.000  C
  C710     1.0000 0.36016  0.88383  0.69889  Biso   1.000  C
  S65      1.0000 0.25570  0.06403  0.75578  Biso   1.000  S
  H722     1.0000 0.31298  0.86294  0.74179  Biso   1.000  H
  H723     1.0000 0.38172  0.90819  0.65881  Biso   1.000  H
  H724     1.0000 0.38167  0.90819  0.65881  Biso   1.000  H
  H725     1.0000 0.06000  0.50639  0.70249  Biso   1.000  H
  H726     1.0000 0.05994  0.50639  0.70249  Biso   1.000  H
  H727     1.0000 0.14368  0.53851  0.69980  Biso   1.000  H
  C711     1.0000 0.92992  0.25408  0.78430  Biso   1.000  C
  C712     1.0000 0.92995  0.25415  0.78430  Biso   1.000  C
  C713     1.0000 0.92990  0.25415  0.78430  Biso   1.000  C
  C714     1.0000 0.59991  0.67118  0.72119  Biso   1.000  C
  S66      1.0000 0.74428  0.80831  0.74421  Biso   1.000  S
  C715     1.0000 0.59994  0.67125  0.72119  Biso   1.000  C
  C716     1.0000 0.57403  0.68905  0.72400  Biso   1.000  C
  C717     1.0000 0.56706  0.64393  0.67360  Biso   1.000  C
  H728     1.0000 0.66450  0.72562  0.64971  Biso   1.000  H
  H729     1.0000 0.66438  0.72562  0.64971  Biso   1.000  H
  H730     1.0000 0.44641  0.93998  0.70249  Biso   1.000  H
  H731     1.0000 0.44645  0.94004  0.70249  Biso   1.000  H
  H732     1.0000 0.39486  0.85631  0.69980  Biso   1.000  H
  C718     1.0000 0.32418  0.07007  0.78430  Biso   1.000  C
  C719     1.0000 0.32421  0.07014  0.78430  Biso   1.000  C
  C720     1.0000 0.92873  0.32882  0.77880  Biso   1.000  C
  C721     1.0000 0.93941  0.23438  0.81084  Biso   1.000  C
  C722     1.0000 0.92867  0.32882  0.77880  Biso   1.000  C
  C723     1.0000 0.93944  0.23445  0.81084  Biso   1.000  C
  C724     1.0000 0.93938  0.23445  0.81084  Biso   1.000  C
  C725     1.0000 0.88502  0.31102  0.77601  Biso   1.000  C
  H733     1.0000 0.58224  0.65667  0.73989  Biso   1.000  H
  C726     1.0000 0.54239  0.61017  0.69889  Biso   1.000  C
  H734     1.0000 0.58216  0.65674  0.73989  Biso   1.000  H
  C727     1.0000 0.54237  0.61024  0.69889  Biso   1.000  C
  C728     1.0000 0.52377  0.63992  0.69889  Biso   1.000  C
  S67      1.0000 0.80827  0.74428  0.75578  Biso   1.000  S
  S68      1.0000 0.80830  0.74434  0.75578  Biso   1.000  S
  H735     1.0000 0.54993  0.68701  0.74179  Biso   1.000  H
  H736     1.0000 0.52650  0.61832  0.65881  Biso   1.000  H
  C729     1.0000 0.40010  0.07132  0.77880  Biso   1.000  C
  C730     1.0000 0.29499  0.06061  0.81084  Biso   1.000  C
  C731     1.0000 0.42598  0.11499  0.77601  Biso   1.000  C
  H737     1.0000 0.92552  0.34333  0.76010  Biso   1.000  H
  C732     1.0000 0.93222  0.38983  0.80110  Biso   1.000  C
  H738     1.0000 0.92546  0.34333  0.76010  Biso   1.000  H
  C733     1.0000 0.93216  0.38983  0.80110  Biso   1.000  C
  C734     1.0000 0.88379  0.36008  0.80110  Biso   1.000  C
  C735     1.0000 0.93419  0.28777  0.83156  Biso   1.000  C
  N58      1.0000 0.95261  0.16740  0.81618  Biso   1.000  N
  C736     1.0000 0.93417  0.28784  0.83156  Biso   1.000  C
  N59      1.0000 0.95255  0.16740  0.81618  Biso   1.000  N
  H739     1.0000 0.86292  0.31299  0.75820  Biso   1.000  H
  H740     1.0000 0.49364  0.55363  0.70249  Biso   1.000  H
  H741     1.0000 0.46156  0.60525  0.69980  Biso   1.000  H
  C737     1.0000 0.74593  0.67578  0.78430  Biso   1.000  C
  C738     1.0000 0.74596  0.67585  0.78430  Biso   1.000  C
  H742     1.0000 0.41777  0.07447  0.76010  Biso   1.000  H
  C739     1.0000 0.45759  0.06777  0.80110  Biso   1.000  C
  H743     1.0000 0.41781  0.07454  0.76010  Biso   1.000  H
  C740     1.0000 0.45757  0.06784  0.80110  Biso   1.000  C
  C741     1.0000 0.47627  0.11617  0.80110  Biso   1.000  C
  C742     1.0000 0.35361  0.06580  0.83156  Biso   1.000  C
  N60      1.0000 0.21480  0.04741  0.81618  Biso   1.000  N
  C743     1.0000 0.35355  0.06580  0.83156  Biso   1.000  C
  H744     1.0000 0.45012  0.13712  0.75820  Biso   1.000  H
  H745     1.0000 0.93996  0.44637  0.79750  Biso   1.000  H
  C744     1.0000 0.92307  0.35607  0.82639  Biso   1.000  C
  H746     1.0000 0.93999  0.44643  0.79750  Biso   1.000  H
  C745     1.0000 0.92316  0.35614  0.82639  Biso   1.000  C
  C746     1.0000 0.92311  0.35614  0.82639  Biso   1.000  C
  H747     1.0000 0.85628  0.39482  0.80021  Biso   1.000  H
  H748     1.0000 0.93881  0.27438  0.85031  Biso   1.000  H
  H749     1.0000 0.93885  0.27444  0.85031  Biso   1.000  H
  H750     1.0000 0.93879  0.27444  0.85031  Biso   1.000  H
  C747     1.0000 0.96097  0.14238  0.84321  Biso   1.000  C
  H751     1.0000 0.95620  0.13738  0.80219  Biso   1.000  H
  C748     1.0000 0.96100  0.14244  0.84321  Biso   1.000  C
  H752     1.0000 0.95617  0.13745  0.80219  Biso   1.000  H
  C749     1.0000 0.67120  0.59993  0.77880  Biso   1.000  C
  C750     1.0000 0.76560  0.70500  0.81084  Biso   1.000  C
  C751     1.0000 0.68895  0.57399  0.77601  Biso   1.000  C
  H753     1.0000 0.50644  0.06002  0.79750  Biso   1.000  H
  C752     1.0000 0.43298  0.07690  0.82639  Biso   1.000  C
  H754     1.0000 0.50638  0.06002  0.79750  Biso   1.000  H
  H755     1.0000 0.53849  0.14369  0.80021  Biso   1.000  H
  H756     1.0000 0.33561  0.06121  0.85031  Biso   1.000  H
  H757     1.0000 0.33556  0.06121  0.85031  Biso   1.000  H
  C753     1.0000 0.18142  0.03901  0.84321  Biso   1.000  C
  H758     1.0000 0.18120  0.04380  0.80219  Biso   1.000  H
  C754     1.0000 0.18137  0.03901  0.84321  Biso   1.000  C
  H759     1.0000 0.18115  0.04380  0.80219  Biso   1.000  H
  H760     1.0000 0.90818  0.38168  0.84120  Biso   1.000  H
  H761     1.0000 0.90821  0.38175  0.84120  Biso   1.000  H
  H762     1.0000 0.00771  0.19399  0.85310  Biso   1.000  H
  H763     1.0000 0.00765  0.19399  0.85310  Biso   1.000  H
  H764     1.0000 0.90518  0.12248  0.85330  Biso   1.000  H
  C755     1.0000 0.98301  0.06987  0.84321  Biso   1.000  C
  H765     1.0000 0.90527  0.12254  0.85330  Biso   1.000  H
  C756     1.0000 0.98299  0.06994  0.84321  Biso   1.000  C
  H766     1.0000 0.90521  0.12254  0.85330  Biso   1.000  H
  H767     1.0000 0.65676  0.58220  0.76010  Biso   1.000  H
  C757     1.0000 0.61025  0.54240  0.80110  Biso   1.000  C
  H768     1.0000 0.65665  0.58220  0.76010  Biso   1.000  H
  C758     1.0000 0.63994  0.52375  0.80110  Biso   1.000  C
  C759     1.0000 0.71220  0.64643  0.83156  Biso   1.000  C
  N61      1.0000 0.83265  0.78519  0.81618  Biso   1.000  N
  H769     1.0000 0.68705  0.54995  0.75820  Biso   1.000  H
  H770     1.0000 0.47348  0.09181  0.84120  Biso   1.000  H
  H771     1.0000 0.21729  0.09483  0.85330  Biso   1.000  H
  C760     1.0000 0.08693  0.01701  0.84321  Biso   1.000  C
  C761     1.0000 0.08688  0.01701  0.84321  Biso   1.000  C
  H772     1.0000 0.18634  0.99232  0.85310  Biso   1.000  H
  H773     1.0000 0.18623  0.99232  0.85310  Biso   1.000  H
  C762     1.0000 0.06720  0.08879  0.84416  Biso   1.000  C
  C763     1.0000 0.06718  0.08885  0.84416  Biso   1.000  C
  C764     1.0000 0.91122  0.97839  0.84416  Biso   1.000  C
  H774     1.0000 0.55361  0.49361  0.79750  Biso   1.000  H
  C765     1.0000 0.64395  0.56703  0.82639  Biso   1.000  C
  H775     1.0000 0.60517  0.46149  0.80021  Biso   1.000  H
  H776     1.0000 0.72569  0.66442  0.85031  Biso   1.000  H
  H777     1.0000 0.72557  0.66442  0.85031  Biso   1.000  H
  C766     1.0000 0.85767  0.81862  0.84321  Biso   1.000  C
  H778     1.0000 0.86260  0.81881  0.80219  Biso   1.000  H
  C767     1.0000 0.85761  0.81862  0.84321  Biso   1.000  C
  C768     1.0000 0.02169  0.93282  0.84416  Biso   1.000  C
  C769     1.0000 0.02163  0.93282  0.84416  Biso   1.000  C
  C770     1.0000 0.14229  0.18073  0.84180  Biso   1.000  C
  C771     1.0000 0.93011  0.91312  0.84321  Biso   1.000  C
  C772     1.0000 0.81927  0.96158  0.84180  Biso   1.000  C
  C773     1.0000 0.93006  0.91312  0.84321  Biso   1.000  C
  C774     1.0000 0.81930  0.96165  0.84180  Biso   1.000  C
  H779     1.0000 0.61828  0.52651  0.84120  Biso   1.000  H
  H780     1.0000 0.80607  0.81369  0.85310  Biso   1.000  H
  H781     1.0000 0.87753  0.78269  0.85330  Biso   1.000  H
  H782     1.0000 0.80595  0.81369  0.85310  Biso   1.000  H
  C775     1.0000 0.03844  0.85769  0.84180  Biso   1.000  C
  H783     1.0000 0.12377  0.21547  0.83051  Biso   1.000  H
  H784     1.0000 0.19131  0.17981  0.83200  Biso   1.000  H
  C776     1.0000 0.17301  0.22282  0.86780  Biso   1.000  C
  H785     1.0000 0.12381  0.21553  0.83051  Biso   1.000  H
  H786     1.0000 0.19125  0.17981  0.83200  Biso   1.000  H
  H787     1.0000 0.78457  0.90832  0.83051  Biso   1.000  H
  C777     1.0000 0.77725  0.95022  0.86780  Biso   1.000  C
  H788     1.0000 0.82017  0.01149  0.83200  Biso   1.000  H
  H789     1.0000 0.82023  0.01149  0.83200  Biso   1.000  H
  H790     1.0000 0.98852  0.80870  0.83200  Biso   1.000  H
  H791     1.0000 0.09172  0.87621  0.83051  Biso   1.000  H
  C778     1.0000 0.04984  0.82702  0.86780  Biso   1.000  C
  H792     1.0000 0.09166  0.87621  0.83051  Biso   1.000  H
  H793     1.0000 0.22402  0.28140  0.86499  Biso   1.000  H
  H794     1.0000 0.12619  0.22827  0.87701  Biso   1.000  H
  H795     1.0000 0.18977  0.18789  0.87941  Biso   1.000  H
  H796     1.0000 0.22396  0.28140  0.86499  Biso   1.000  H
  H797     1.0000 0.12617  0.22834  0.87701  Biso   1.000  H
  H798     1.0000 0.18981  0.18795  0.87941  Biso   1.000  H
  H799     1.0000 0.71867  0.94260  0.86499  Biso   1.000  H
  H800     1.0000 0.77172  0.89788  0.87701  Biso   1.000  H
  H801     1.0000 0.71856  0.94260  0.86499  Biso   1.000  H
  H802     1.0000 0.77176  0.89795  0.87701  Biso   1.000  H
  H803     1.0000 0.81208  0.00190  0.87941  Biso   1.000  H
  H804     1.0000 0.81213  0.00190  0.87941  Biso   1.000  H
  H805     1.0000 0.99809  0.81021  0.87941  Biso   1.000  H
  H806     1.0000 0.05742  0.77599  0.86499  Biso   1.000  H
  H807     1.0000 0.10211  0.87378  0.87701  Biso   1.000  H
  H808     1.0000 0.05737  0.77599  0.86499  Biso   1.000  H
  H809     1.0000 0.10214  0.87385  0.87701  Biso   1.000  H
  C779     1.0000 0.22279  0.17304  0.63221  Biso   1.000  C
  C780     1.0000 0.18069  0.14231  0.65821  Biso   1.000  C
  H810     1.0000 0.18788  0.18979  0.62060  Biso   1.000  H
  H811     1.0000 0.28143  0.22401  0.63500  Biso   1.000  H
  H812     1.0000 0.22833  0.12622  0.62300  Biso   1.000  H
  H813     1.0000 0.28137  0.22401  0.63500  Biso   1.000  H
  H814     1.0000 0.22827  0.12622  0.62300  Biso   1.000  H
  C781     1.0000 0.08881  0.06718  0.65583  Biso   1.000  C
  H815     1.0000 0.21551  0.12379  0.66950  Biso   1.000  H
  H816     1.0000 0.17982  0.19130  0.66799  Biso   1.000  H
  C782     1.0000 0.22281  0.17298  0.63221  Biso   1.000  C
  C783     1.0000 0.08879  0.06725  0.65583  Biso   1.000  C
  H817     1.0000 0.21545  0.12379  0.66950  Biso   1.000  H
  H818     1.0000 0.17977  0.19130  0.66799  Biso   1.000  H
  C784     1.0000 0.06992  0.98299  0.65680  Biso   1.000  C
  C785     1.0000 0.01700  0.08688  0.65680  Biso   1.000  C
  C786     1.0000 0.01697  0.08695  0.65680  Biso   1.000  C
  C787     1.0000 0.97847  0.91121  0.65583  Biso   1.000  C
  C788     1.0000 0.97841  0.91121  0.65583  Biso   1.000  C
  C789     1.0000 0.14247  0.96099  0.65680  Biso   1.000  C
  C790     1.0000 0.14236  0.96099  0.65680  Biso   1.000  C
  C791     1.0000 0.03899  0.18138  0.65680  Biso   1.000  C
  C792     1.0000 0.03897  0.18145  0.65680  Biso   1.000  C
  C793     1.0000 0.93283  0.02161  0.65583  Biso   1.000  C
  C794     1.0000 0.93277  0.02161  0.65583  Biso   1.000  C
  C795     1.0000 0.91319  0.93013  0.65680  Biso   1.000  C
  C796     1.0000 0.91314  0.93013  0.65680  Biso   1.000  C
  C797     1.0000 0.96156  0.81927  0.65821  Biso   1.000  C
  C798     1.0000 0.96159  0.81934  0.65821  Biso   1.000  C
  H819     1.0000 0.19397  0.00768  0.64689  Biso   1.000  H
  H820     1.0000 0.19400  0.00775  0.64689  Biso   1.000  H
  H821     1.0000 0.12247  0.90517  0.64671  Biso   1.000  H
  N62      1.0000 0.16744  0.95259  0.68383  Biso   1.000  N
  H822     1.0000 0.12250  0.90524  0.64671  Biso   1.000  H
  N63      1.0000 0.16748  0.95265  0.68383  Biso   1.000  N
  H823     1.0000 0.09478  0.21731  0.64671  Biso   1.000  H
  N64      1.0000 0.04740  0.21481  0.68383  Biso   1.000  N
  H824     1.0000 0.99232  0.18631  0.64689  Biso   1.000  H
  H825     1.0000 0.99226  0.18631  0.64689  Biso   1.000  H
  C799     1.0000 0.85769  0.03842  0.65821  Biso   1.000  C
  C800     1.0000 0.81859  0.85762  0.65680  Biso   1.000  C
  H826     1.0000 0.90830  0.78453  0.66950  Biso   1.000  H
  C801     1.0000 0.95018  0.77718  0.63221  Biso   1.000  C
  C802     1.0000 0.95021  0.77724  0.63221  Biso   1.000  C
  H827     1.0000 0.01156  0.82019  0.66799  Biso   1.000  H
  H828     1.0000 0.01144  0.82019  0.66799  Biso   1.000  H
  C803     1.0000 0.23438  0.93939  0.68917  Biso   1.000  C
  H829     1.0000 0.13740  0.95620  0.69780  Biso   1.000  H
  C804     1.0000 0.23441  0.93945  0.68917  Biso   1.000  C
  H830     1.0000 0.13734  0.95620  0.69780  Biso   1.000  H
  C805     1.0000 0.06060  0.29500  0.68917  Biso   1.000  C
  H831     1.0000 0.04379  0.18119  0.69780  Biso   1.000  H
  H832     1.0000 0.04382  0.18125  0.69780  Biso   1.000  H
  H833     1.0000 0.80868  0.98851  0.66799  Biso   1.000  H
  H834     1.0000 0.87619  0.09168  0.66950  Biso   1.000  H
  C806     1.0000 0.82697  0.04978  0.63221  Biso   1.000  C
  H835     1.0000 0.87628  0.09174  0.66950  Biso   1.000  H
  C807     1.0000 0.82700  0.04984  0.63221  Biso   1.000  C
  H836     1.0000 0.87622  0.09174  0.66950  Biso   1.000  H
  H837     1.0000 0.81377  0.80601  0.64689  Biso   1.000  H
  H838     1.0000 0.78270  0.87752  0.64671  Biso   1.000  H
  N65      1.0000 0.78527  0.83260  0.68383  Biso   1.000  N
  H839     1.0000 0.81366  0.80601  0.64689  Biso   1.000  H
  N66      1.0000 0.78521  0.83260  0.68383  Biso   1.000  N
  H840     1.0000 0.94267  0.71860  0.63500  Biso   1.000  H
  H841     1.0000 0.89792  0.77173  0.62300  Biso   1.000  H
  H842     1.0000 0.94256  0.71860  0.63500  Biso   1.000  H
  H843     1.0000 0.89786  0.77173  0.62300  Biso   1.000  H
  H844     1.0000 0.00189  0.81211  0.62060  Biso   1.000  H
  C808     1.0000 0.25416  0.92993  0.71571  Biso   1.000  C
  C809     1.0000 0.28781  0.93420  0.66845  Biso   1.000  C
  C810     1.0000 0.28775  0.93420  0.66845  Biso   1.000  C
  C811     1.0000 0.07009  0.32422  0.71571  Biso   1.000  C
  C812     1.0000 0.06577  0.35357  0.66845  Biso   1.000  C
  C813     1.0000 0.06580  0.35364  0.66845  Biso   1.000  C
  H845     1.0000 0.81017  0.99810  0.62060  Biso   1.000  H
  H846     1.0000 0.77601  0.05740  0.63500  Biso   1.000  H
  H847     1.0000 0.87379  0.10212  0.62300  Biso   1.000  H
  H848     1.0000 0.77595  0.05740  0.63500  Biso   1.000  H
  H849     1.0000 0.81881  0.86262  0.69780  Biso   1.000  H
  C814     1.0000 0.70502  0.76562  0.68917  Biso   1.000  C
  C815     1.0000 0.70497  0.76562  0.68917  Biso   1.000  C
  S69      1.0000 0.19167  0.93597  0.74421  Biso   1.000  S
  C816     1.0000 0.32884  0.92868  0.72119  Biso   1.000  C
  C817     1.0000 0.32887  0.92875  0.72119  Biso   1.000  C
  S70      1.0000 0.19170  0.93604  0.74421  Biso   1.000  S
  C818     1.0000 0.31099  0.88501  0.72400  Biso   1.000  C
  C819     1.0000 0.35614  0.92310  0.67360  Biso   1.000  C
  H850     1.0000 0.27446  0.93879  0.64971  Biso   1.000  H
  H851     1.0000 0.27435  0.93879  0.64971  Biso   1.000  H
  S71      1.0000 0.06399  0.25572  0.74421  Biso   1.000  S
  C820     1.0000 0.07127  0.40007  0.72119  Biso   1.000  C
  C821     1.0000 0.07131  0.40014  0.72119  Biso   1.000  C
  C822     1.0000 0.11501  0.42601  0.72400  Biso   1.000  C
  C823     1.0000 0.07686  0.43297  0.67360  Biso   1.000  C
  H852     1.0000 0.06121  0.33558  0.64971  Biso   1.000  H
  C824     1.0000 0.07690  0.43304  0.67360  Biso   1.000  C
  H853     1.0000 0.06119  0.33565  0.64971  Biso   1.000  H
  C825     1.0000 0.67584  0.74592  0.71571  Biso   1.000  C
  C826     1.0000 0.64642  0.71223  0.66845  Biso   1.000  C
  C827     1.0000 0.64637  0.71223  0.66845  Biso   1.000  C
  S72      1.0000 0.25570  0.06403  0.75578  Biso   1.000  S
  H854     1.0000 0.34330  0.92553  0.73989  Biso   1.000  H
  C828     1.0000 0.38982  0.93223  0.69889  Biso   1.000  C
  C829     1.0000 0.38976  0.93223  0.69889  Biso   1.000  C
  C830     1.0000 0.36016  0.88383  0.69889  Biso   1.000  C
  H855     1.0000 0.31298  0.86294  0.74179  Biso   1.000  H
  H856     1.0000 0.38172  0.90819  0.65881  Biso   1.000  H
  H857     1.0000 0.38167  0.90819  0.65881  Biso   1.000  H
  S73      1.0000 0.93598  0.19169  0.75578  Biso   1.000  S
  C831     1.0000 0.06779  0.45760  0.69889  Biso   1.000  C
  H858     1.0000 0.07451  0.41780  0.73989  Biso   1.000  H
  H859     1.0000 0.07445  0.41780  0.73989  Biso   1.000  H
  C832     1.0000 0.11622  0.47631  0.69889  Biso   1.000  C
  H860     1.0000 0.13713  0.45011  0.74179  Biso   1.000  H
  H861     1.0000 0.09178  0.47349  0.65881  Biso   1.000  H
  C833     1.0000 0.59991  0.67118  0.72119  Biso   1.000  C
  S74      1.0000 0.74428  0.80831  0.74421  Biso   1.000  S
  C834     1.0000 0.59994  0.67125  0.72119  Biso   1.000  C
  C835     1.0000 0.57403  0.68905  0.72400  Biso   1.000  C
  C836     1.0000 0.56706  0.64393  0.67360  Biso   1.000  C
  H862     1.0000 0.66450  0.72562  0.64971  Biso   1.000  H
  H863     1.0000 0.66438  0.72562  0.64971  Biso   1.000  H
  C837     1.0000 0.32418  0.07007  0.78430  Biso   1.000  C
  C838     1.0000 0.32421  0.07014  0.78430  Biso   1.000  C
  H864     1.0000 0.44641  0.93998  0.70249  Biso   1.000  H
  H865     1.0000 0.44645  0.94004  0.70249  Biso   1.000  H
  H866     1.0000 0.39486  0.85631  0.69980  Biso   1.000  H
  C839     1.0000 0.92992  0.25408  0.78430  Biso   1.000  C
  C840     1.0000 0.92995  0.25415  0.78430  Biso   1.000  C
  C841     1.0000 0.92990  0.25415  0.78430  Biso   1.000  C
  H867     1.0000 0.06000  0.50639  0.70249  Biso   1.000  H
  H868     1.0000 0.05994  0.50639  0.70249  Biso   1.000  H
  H869     1.0000 0.14368  0.53851  0.69980  Biso   1.000  H
  H870     1.0000 0.58224  0.65667  0.73989  Biso   1.000  H
  C842     1.0000 0.54239  0.61017  0.69889  Biso   1.000  C
  H871     1.0000 0.58216  0.65674  0.73989  Biso   1.000  H
  C843     1.0000 0.54237  0.61024  0.69889  Biso   1.000  C
  C844     1.0000 0.52377  0.63992  0.69889  Biso   1.000  C
  S75      1.0000 0.80827  0.74428  0.75578  Biso   1.000  S
  S76      1.0000 0.80830  0.74434  0.75578  Biso   1.000  S
  H872     1.0000 0.54993  0.68701  0.74179  Biso   1.000  H
  H873     1.0000 0.52650  0.61832  0.65881  Biso   1.000  H
  C845     1.0000 0.40010  0.07132  0.77880  Biso   1.000  C
  C846     1.0000 0.29499  0.06061  0.81084  Biso   1.000  C
  C847     1.0000 0.42598  0.11499  0.77601  Biso   1.000  C
  C848     1.0000 0.92873  0.32882  0.77880  Biso   1.000  C
  C849     1.0000 0.93941  0.23438  0.81084  Biso   1.000  C
  C850     1.0000 0.92867  0.32882  0.77880  Biso   1.000  C
  C851     1.0000 0.93944  0.23445  0.81084  Biso   1.000  C
  C852     1.0000 0.93938  0.23445  0.81084  Biso   1.000  C
  C853     1.0000 0.88502  0.31102  0.77601  Biso   1.000  C
  H874     1.0000 0.49364  0.55363  0.70249  Biso   1.000  H
  H875     1.0000 0.46156  0.60525  0.69980  Biso   1.000  H
  C854     1.0000 0.74593  0.67578  0.78430  Biso   1.000  C
  C855     1.0000 0.74596  0.67585  0.78430  Biso   1.000  C
  H876     1.0000 0.41777  0.07447  0.76010  Biso   1.000  H
  C856     1.0000 0.45759  0.06777  0.80110  Biso   1.000  C
  H877     1.0000 0.41781  0.07454  0.76010  Biso   1.000  H
  C857     1.0000 0.45757  0.06784  0.80110  Biso   1.000  C
  C858     1.0000 0.47627  0.11617  0.80110  Biso   1.000  C
  N67      1.0000 0.21480  0.04741  0.81618  Biso   1.000  N
  C859     1.0000 0.35361  0.06580  0.83156  Biso   1.000  C
  C860     1.0000 0.35355  0.06580  0.83156  Biso   1.000  C
  H878     1.0000 0.45012  0.13712  0.75820  Biso   1.000  H
  H879     1.0000 0.92552  0.34333  0.76010  Biso   1.000  H
  C861     1.0000 0.93222  0.38983  0.80110  Biso   1.000  C
  H880     1.0000 0.92546  0.34333  0.76010  Biso   1.000  H
  C862     1.0000 0.93216  0.38983  0.80110  Biso   1.000  C
  C863     1.0000 0.88379  0.36008  0.80110  Biso   1.000  C
  C864     1.0000 0.93419  0.28777  0.83156  Biso   1.000  C
  N68      1.0000 0.95261  0.16740  0.81618  Biso   1.000  N
  C865     1.0000 0.93417  0.28784  0.83156  Biso   1.000  C
  N69      1.0000 0.95255  0.16740  0.81618  Biso   1.000  N
  H881     1.0000 0.86292  0.31299  0.75820  Biso   1.000  H
  C866     1.0000 0.67120  0.59993  0.77880  Biso   1.000  C
  C867     1.0000 0.76560  0.70500  0.81084  Biso   1.000  C
  C868     1.0000 0.68895  0.57399  0.77601  Biso   1.000  C
  C869     1.0000 0.43298  0.07690  0.82639  Biso   1.000  C
  H882     1.0000 0.50644  0.06002  0.79750  Biso   1.000  H
  H883     1.0000 0.50638  0.06002  0.79750  Biso   1.000  H
  H884     1.0000 0.53849  0.14369  0.80021  Biso   1.000  H
  C870     1.0000 0.18142  0.03901  0.84321  Biso   1.000  C
  H885     1.0000 0.18120  0.04380  0.80219  Biso   1.000  H
  C871     1.0000 0.18137  0.03901  0.84321  Biso   1.000  C
  H886     1.0000 0.18115  0.04380  0.80219  Biso   1.000  H
  H887     1.0000 0.33561  0.06121  0.85031  Biso   1.000  H
  H888     1.0000 0.33556  0.06121  0.85031  Biso   1.000  H
  H889     1.0000 0.93996  0.44637  0.79750  Biso   1.000  H
  C872     1.0000 0.92307  0.35607  0.82639  Biso   1.000  C
  H890     1.0000 0.93999  0.44643  0.79750  Biso   1.000  H
  C873     1.0000 0.92316  0.35614  0.82639  Biso   1.000  C
  C874     1.0000 0.92311  0.35614  0.82639  Biso   1.000  C
  H891     1.0000 0.85628  0.39482  0.80021  Biso   1.000  H
  H892     1.0000 0.93881  0.27438  0.85031  Biso   1.000  H
  H893     1.0000 0.93885  0.27444  0.85031  Biso   1.000  H
  H894     1.0000 0.93879  0.27444  0.85031  Biso   1.000  H
  C875     1.0000 0.96097  0.14238  0.84321  Biso   1.000  C
  H895     1.0000 0.95620  0.13738  0.80219  Biso   1.000  H
  C876     1.0000 0.96100  0.14244  0.84321  Biso   1.000  C
  H896     1.0000 0.95617  0.13745  0.80219  Biso   1.000  H
  H897     1.0000 0.65676  0.58220  0.76010  Biso   1.000  H
  C877     1.0000 0.61025  0.54240  0.80110  Biso   1.000  C
  H898     1.0000 0.65665  0.58220  0.76010  Biso   1.000  H
  C878     1.0000 0.63994  0.52375  0.80110  Biso   1.000  C
  C879     1.0000 0.71220  0.64643  0.83156  Biso   1.000  C
  N70      1.0000 0.83265  0.78519  0.81618  Biso   1.000  N
  H899     1.0000 0.68705  0.54995  0.75820  Biso   1.000  H
  H900     1.0000 0.47348  0.09181  0.84120  Biso   1.000  H
  H901     1.0000 0.21729  0.09483  0.85330  Biso   1.000  H
  C880     1.0000 0.08693  0.01701  0.84321  Biso   1.000  C
  C881     1.0000 0.08688  0.01701  0.84321  Biso   1.000  C
  H902     1.0000 0.18634  0.99232  0.85310  Biso   1.000  H
  H903     1.0000 0.18623  0.99232  0.85310  Biso   1.000  H
  H904     1.0000 0.90818  0.38168  0.84120  Biso   1.000  H
  H905     1.0000 0.90821  0.38175  0.84120  Biso   1.000  H
  H906     1.0000 0.00771  0.19399  0.85310  Biso   1.000  H
  H907     1.0000 0.00765  0.19399  0.85310  Biso   1.000  H
  H908     1.0000 0.90518  0.12248  0.85330  Biso   1.000  H
  C882     1.0000 0.98301  0.06987  0.84321  Biso   1.000  C
  H909     1.0000 0.90527  0.12254  0.85330  Biso   1.000  H
  C883     1.0000 0.98299  0.06994  0.84321  Biso   1.000  C
  H910     1.0000 0.90521  0.12254  0.85330  Biso   1.000  H
  H911     1.0000 0.55361  0.49361  0.79750  Biso   1.000  H
  C884     1.0000 0.64395  0.56703  0.82639  Biso   1.000  C
  H912     1.0000 0.60517  0.46149  0.80021  Biso   1.000  H
  H913     1.0000 0.72569  0.66442  0.85031  Biso   1.000  H
  H914     1.0000 0.72557  0.66442  0.85031  Biso   1.000  H
  C885     1.0000 0.85767  0.81862  0.84321  Biso   1.000  C
  H915     1.0000 0.86260  0.81881  0.80219  Biso   1.000  H
  C886     1.0000 0.85761  0.81862  0.84321  Biso   1.000  C
  C887     1.0000 0.06720  0.08879  0.84416  Biso   1.000  C
  C888     1.0000 0.06718  0.08885  0.84416  Biso   1.000  C
  C889     1.0000 0.02169  0.93282  0.84416  Biso   1.000  C
  C890     1.0000 0.02163  0.93282  0.84416  Biso   1.000  C
  C891     1.0000 0.91122  0.97839  0.84416  Biso   1.000  C
  H916     1.0000 0.61828  0.52651  0.84120  Biso   1.000  H
  C892     1.0000 0.93011  0.91312  0.84321  Biso   1.000  C
  C893     1.0000 0.93006  0.91312  0.84321  Biso   1.000  C
  H917     1.0000 0.80607  0.81369  0.85310  Biso   1.000  H
  H918     1.0000 0.87753  0.78269  0.85330  Biso   1.000  H
  H919     1.0000 0.80595  0.81369  0.85310  Biso   1.000  H
  C894     1.0000 0.14229  0.18073  0.84180  Biso   1.000  C
  C895     1.0000 0.03844  0.85769  0.84180  Biso   1.000  C
  C896     1.0000 0.81927  0.96158  0.84180  Biso   1.000  C
  C897     1.0000 0.81930  0.96165  0.84180  Biso   1.000  C
  C898     1.0000 0.17301  0.22282  0.86780  Biso   1.000  C
  H920     1.0000 0.12377  0.21547  0.83051  Biso   1.000  H
  H921     1.0000 0.19131  0.17981  0.83200  Biso   1.000  H
  H922     1.0000 0.12381  0.21553  0.83051  Biso   1.000  H
  H923     1.0000 0.19125  0.17981  0.83200  Biso   1.000  H
  H924     1.0000 0.98852  0.80870  0.83200  Biso   1.000  H
  C899     1.0000 0.04984  0.82702  0.86780  Biso   1.000  C
  H925     1.0000 0.09172  0.87621  0.83051  Biso   1.000  H
  H926     1.0000 0.09166  0.87621  0.83051  Biso   1.000  H
  H927     1.0000 0.78457  0.90832  0.83051  Biso   1.000  H
  C900     1.0000 0.77725  0.95022  0.86780  Biso   1.000  C
  H928     1.0000 0.82017  0.01149  0.83200  Biso   1.000  H
  H929     1.0000 0.82023  0.01149  0.83200  Biso   1.000  H
  H930     1.0000 0.22402  0.28140  0.86499  Biso   1.000  H
  H931     1.0000 0.12619  0.22827  0.87701  Biso   1.000  H
  H932     1.0000 0.18977  0.18789  0.87941  Biso   1.000  H
  H933     1.0000 0.22396  0.28140  0.86499  Biso   1.000  H
  H934     1.0000 0.12617  0.22834  0.87701  Biso   1.000  H
  H935     1.0000 0.18981  0.18795  0.87941  Biso   1.000  H
  H936     1.0000 0.99809  0.81021  0.87941  Biso   1.000  H
  H937     1.0000 0.05742  0.77599  0.86499  Biso   1.000  H
  H938     1.0000 0.10211  0.87378  0.87701  Biso   1.000  H
  H939     1.0000 0.05737  0.77599  0.86499  Biso   1.000  H
  H940     1.0000 0.10214  0.87385  0.87701  Biso   1.000  H
  H941     1.0000 0.71867  0.94260  0.86499  Biso   1.000  H
  H942     1.0000 0.77172  0.89788  0.87701  Biso   1.000  H
  H943     1.0000 0.71856  0.94260  0.86499  Biso   1.000  H
  H944     1.0000 0.77176  0.89795  0.87701  Biso   1.000  H
  H945     1.0000 0.81208  0.00190  0.87941  Biso   1.000  H
  H946     1.0000 0.81213  0.00190  0.87941  Biso   1.000  H
  C901     1.0000 0.22279  0.17304  0.63221  Biso   1.000  C
  C902     1.0000 0.18069  0.14231  0.65821  Biso   1.000  C
  H947     1.0000 0.18788  0.18979  0.62060  Biso   1.000  H
  H948     1.0000 0.28143  0.22401  0.63500  Biso   1.000  H
  H949     1.0000 0.22833  0.12622  0.62300  Biso   1.000  H
  H950     1.0000 0.28137  0.22401  0.63500  Biso   1.000  H
  H951     1.0000 0.22827  0.12622  0.62300  Biso   1.000  H
  C903     1.0000 0.08881  0.06718  0.65583  Biso   1.000  C
  H952     1.0000 0.21551  0.12379  0.66950  Biso   1.000  H
  H953     1.0000 0.17982  0.19130  0.66799  Biso   1.000  H
  C904     1.0000 0.22281  0.17298  0.63221  Biso   1.000  C
  C905     1.0000 0.08879  0.06725  0.65583  Biso   1.000  C
  H954     1.0000 0.21545  0.12379  0.66950  Biso   1.000  H
  H955     1.0000 0.17977  0.19130  0.66799  Biso   1.000  H
  C906     1.0000 0.06992  0.98299  0.65680  Biso   1.000  C
  C907     1.0000 0.01700  0.08688  0.65680  Biso   1.000  C
  C908     1.0000 0.01697  0.08695  0.65680  Biso   1.000  C
  C909     1.0000 0.97847  0.91121  0.65583  Biso   1.000  C
  C910     1.0000 0.97841  0.91121  0.65583  Biso   1.000  C
  C911     1.0000 0.14247  0.96099  0.65680  Biso   1.000  C
  C912     1.0000 0.14236  0.96099  0.65680  Biso   1.000  C
  C913     1.0000 0.93283  0.02161  0.65583  Biso   1.000  C
  C914     1.0000 0.93277  0.02161  0.65583  Biso   1.000  C
  C915     1.0000 0.03899  0.18138  0.65680  Biso   1.000  C
  C916     1.0000 0.03897  0.18145  0.65680  Biso   1.000  C
  C917     1.0000 0.91319  0.93013  0.65680  Biso   1.000  C
  C918     1.0000 0.96156  0.81927  0.65821  Biso   1.000  C
  C919     1.0000 0.91314  0.93013  0.65680  Biso   1.000  C
  C920     1.0000 0.96159  0.81934  0.65821  Biso   1.000  C
  H956     1.0000 0.12247  0.90517  0.64671  Biso   1.000  H
  N71      1.0000 0.16744  0.95259  0.68383  Biso   1.000  N
  H957     1.0000 0.12250  0.90524  0.64671  Biso   1.000  H
  N72      1.0000 0.16748  0.95265  0.68383  Biso   1.000  N
  H958     1.0000 0.19397  0.00768  0.64689  Biso   1.000  H
  H959     1.0000 0.19400  0.00775  0.64689  Biso   1.000  H
  C921     1.0000 0.85769  0.03842  0.65821  Biso   1.000  C
  H960     1.0000 0.09478  0.21731  0.64671  Biso   1.000  H
  N73      1.0000 0.04740  0.21481  0.68383  Biso   1.000  N
  H961     1.0000 0.99232  0.18631  0.64689  Biso   1.000  H
  H962     1.0000 0.99226  0.18631  0.64689  Biso   1.000  H
  C922     1.0000 0.81859  0.85762  0.65680  Biso   1.000  C
  H963     1.0000 0.90830  0.78453  0.66950  Biso   1.000  H
  C923     1.0000 0.95018  0.77718  0.63221  Biso   1.000  C
  C924     1.0000 0.95021  0.77724  0.63221  Biso   1.000  C
  H964     1.0000 0.01156  0.82019  0.66799  Biso   1.000  H
  H965     1.0000 0.01144  0.82019  0.66799  Biso   1.000  H
  C925     1.0000 0.23438  0.93939  0.68917  Biso   1.000  C
  H966     1.0000 0.13740  0.95620  0.69780  Biso   1.000  H
  C926     1.0000 0.23441  0.93945  0.68917  Biso   1.000  C
  H967     1.0000 0.13734  0.95620  0.69780  Biso   1.000  H
  H968     1.0000 0.80868  0.98851  0.66799  Biso   1.000  H
  H969     1.0000 0.87619  0.09168  0.66950  Biso   1.000  H
  C927     1.0000 0.82697  0.04978  0.63221  Biso   1.000  C
  H970     1.0000 0.87628  0.09174  0.66950  Biso   1.000  H
  C928     1.0000 0.82700  0.04984  0.63221  Biso   1.000  C
  H971     1.0000 0.87622  0.09174  0.66950  Biso   1.000  H
  C929     1.0000 0.06060  0.29500  0.68917  Biso   1.000  C
  H972     1.0000 0.04379  0.18119  0.69780  Biso   1.000  H
  H973     1.0000 0.04382  0.18125  0.69780  Biso   1.000  H
  H974     1.0000 0.81377  0.80601  0.64689  Biso   1.000  H
  H975     1.0000 0.78270  0.87752  0.64671  Biso   1.000  H
  N74      1.0000 0.78527  0.83260  0.68383  Biso   1.000  N
  H976     1.0000 0.81366  0.80601  0.64689  Biso   1.000  H
  N75      1.0000 0.78521  0.83260  0.68383  Biso   1.000  N
  H977     1.0000 0.94267  0.71860  0.63500  Biso   1.000  H
  H978     1.0000 0.89792  0.77173  0.62300  Biso   1.000  H
  H979     1.0000 0.94256  0.71860  0.63500  Biso   1.000  H
  H980     1.0000 0.89786  0.77173  0.62300  Biso   1.000  H
  H981     1.0000 0.00189  0.81211  0.62060  Biso   1.000  H
  C930     1.0000 0.25416  0.92993  0.71571  Biso   1.000  C
  C931     1.0000 0.28781  0.93420  0.66845  Biso   1.000  C
  C932     1.0000 0.28775  0.93420  0.66845  Biso   1.000  C
  H982     1.0000 0.81017  0.99810  0.62060  Biso   1.000  H
  H983     1.0000 0.77601  0.05740  0.63500  Biso   1.000  H
  H984     1.0000 0.87379  0.10212  0.62300  Biso   1.000  H
  H985     1.0000 0.77595  0.05740  0.63500  Biso   1.000  H
  C933     1.0000 0.07009  0.32422  0.71571  Biso   1.000  C
  C934     1.0000 0.06577  0.35357  0.66845  Biso   1.000  C
  C935     1.0000 0.06580  0.35364  0.66845  Biso   1.000  C
  H986     1.0000 0.81881  0.86262  0.69780  Biso   1.000  H
  C936     1.0000 0.70502  0.76562  0.68917  Biso   1.000  C
  C937     1.0000 0.70497  0.76562  0.68917  Biso   1.000  C
  S77      1.0000 0.19167  0.93597  0.74421  Biso   1.000  S
  C938     1.0000 0.32884  0.92868  0.72119  Biso   1.000  C
  C939     1.0000 0.32887  0.92875  0.72119  Biso   1.000  C
  S78      1.0000 0.19170  0.93604  0.74421  Biso   1.000  S
  C940     1.0000 0.31099  0.88501  0.72400  Biso   1.000  C
  C941     1.0000 0.35614  0.92310  0.67360  Biso   1.000  C
  H987     1.0000 0.27446  0.93879  0.64971  Biso   1.000  H
  H988     1.0000 0.27435  0.93879  0.64971  Biso   1.000  H
  S79      1.0000 0.06399  0.25572  0.74421  Biso   1.000  S
  C942     1.0000 0.07127  0.40007  0.72119  Biso   1.000  C
  C943     1.0000 0.07131  0.40014  0.72119  Biso   1.000  C
  C944     1.0000 0.11501  0.42601  0.72400  Biso   1.000  C
  C945     1.0000 0.07686  0.43297  0.67360  Biso   1.000  C
  H989     1.0000 0.06121  0.33558  0.64971  Biso   1.000  H
  C946     1.0000 0.07690  0.43304  0.67360  Biso   1.000  C
  H990     1.0000 0.06119  0.33565  0.64971  Biso   1.000  H
  C947     1.0000 0.67584  0.74592  0.71571  Biso   1.000  C
  C948     1.0000 0.64642  0.71223  0.66845  Biso   1.000  C
  C949     1.0000 0.64637  0.71223  0.66845  Biso   1.000  C
  S80      1.0000 0.25570  0.06403  0.75578  Biso   1.000  S
  H991     1.0000 0.34330  0.92553  0.73989  Biso   1.000  H
  C950     1.0000 0.38982  0.93223  0.69889  Biso   1.000  C
  C951     1.0000 0.38976  0.93223  0.69889  Biso   1.000  C
  C952     1.0000 0.36016  0.88383  0.69889  Biso   1.000  C
  H992     1.0000 0.31298  0.86294  0.74179  Biso   1.000  H
  H993     1.0000 0.38172  0.90819  0.65881  Biso   1.000  H
  H994     1.0000 0.38167  0.90819  0.65881  Biso   1.000  H
  S81      1.0000 0.93598  0.19169  0.75578  Biso   1.000  S
  C953     1.0000 0.06779  0.45760  0.69889  Biso   1.000  C
  H995     1.0000 0.07451  0.41780  0.73989  Biso   1.000  H
  H996     1.0000 0.07445  0.41780  0.73989  Biso   1.000  H
  C954     1.0000 0.11622  0.47631  0.69889  Biso   1.000  C
  H997     1.0000 0.13713  0.45011  0.74179  Biso   1.000  H
  H998     1.0000 0.09178  0.47349  0.65881  Biso   1.000  H
  C955     1.0000 0.59991  0.67118  0.72119  Biso   1.000  C
  S82      1.0000 0.74428  0.80831  0.74421  Biso   1.000  S
  C956     1.0000 0.59994  0.67125  0.72119  Biso   1.000  C
  C957     1.0000 0.57403  0.68905  0.72400  Biso   1.000  C
  C958     1.0000 0.56706  0.64393  0.67360  Biso   1.000  C
  H999     1.0000 0.66450  0.72562  0.64971  Biso   1.000  H
  H1000    1.0000 0.66438  0.72562  0.64971  Biso   1.000  H
  C959     1.0000 0.32418  0.07007  0.78430  Biso   1.000  C
  C960     1.0000 0.32421  0.07014  0.78430  Biso   1.000  C
  H1001    1.0000 0.44641  0.93998  0.70249  Biso   1.000  H
  H1002    1.0000 0.44645  0.94004  0.70249  Biso   1.000  H
  H1003    1.0000 0.39486  0.85631  0.69980  Biso   1.000  H
  C961     1.0000 0.92992  0.25408  0.78430  Biso   1.000  C
  C962     1.0000 0.92995  0.25415  0.78430  Biso   1.000  C
  C963     1.0000 0.92990  0.25415  0.78430  Biso   1.000  C
  H1004    1.0000 0.06000  0.50639  0.70249  Biso   1.000  H
  H1005    1.0000 0.05994  0.50639  0.70249  Biso   1.000  H
  H1006    1.0000 0.14368  0.53851  0.69980  Biso   1.000  H
  H1007    1.0000 0.58224  0.65667  0.73989  Biso   1.000  H
  C964     1.0000 0.54239  0.61017  0.69889  Biso   1.000  C
  H1008    1.0000 0.58216  0.65674  0.73989  Biso   1.000  H
  C965     1.0000 0.54237  0.61024  0.69889  Biso   1.000  C
  C966     1.0000 0.52377  0.63992  0.69889  Biso   1.000  C
  S83      1.0000 0.80827  0.74428  0.75578  Biso   1.000  S
  S84      1.0000 0.80830  0.74434  0.75578  Biso   1.000  S
  H1009    1.0000 0.54993  0.68701  0.74179  Biso   1.000  H
  H1010    1.0000 0.52650  0.61832  0.65881  Biso   1.000  H
  C967     1.0000 0.40010  0.07132  0.77880  Biso   1.000  C
  C968     1.0000 0.29499  0.06061  0.81084  Biso   1.000  C
  C969     1.0000 0.42598  0.11499  0.77601  Biso   1.000  C
  C970     1.0000 0.92873  0.32882  0.77880  Biso   1.000  C
  C971     1.0000 0.93941  0.23438  0.81084  Biso   1.000  C
  C972     1.0000 0.92867  0.32882  0.77880  Biso   1.000  C
  C973     1.0000 0.93944  0.23445  0.81084  Biso   1.000  C
  C974     1.0000 0.93938  0.23445  0.81084  Biso   1.000  C
  C975     1.0000 0.88502  0.31102  0.77601  Biso   1.000  C
  H1011    1.0000 0.49364  0.55363  0.70249  Biso   1.000  H
  H1012    1.0000 0.46156  0.60525  0.69980  Biso   1.000  H
  C976     1.0000 0.74593  0.67578  0.78430  Biso   1.000  C
  C977     1.0000 0.74596  0.67585  0.78430  Biso   1.000  C
  H1013    1.0000 0.41777  0.07447  0.76010  Biso   1.000  H
  C978     1.0000 0.45759  0.06777  0.80110  Biso   1.000  C
  H1014    1.0000 0.41781  0.07454  0.76010  Biso   1.000  H
  C979     1.0000 0.45757  0.06784  0.80110  Biso   1.000  C
  C980     1.0000 0.47627  0.11617  0.80110  Biso   1.000  C
  N76      1.0000 0.21480  0.04741  0.81618  Biso   1.000  N
  C981     1.0000 0.35361  0.06580  0.83156  Biso   1.000  C
  C982     1.0000 0.35355  0.06580  0.83156  Biso   1.000  C
  H1015    1.0000 0.45012  0.13712  0.75820  Biso   1.000  H
  H1016    1.0000 0.92552  0.34333  0.76010  Biso   1.000  H
  C983     1.0000 0.93222  0.38983  0.80110  Biso   1.000  C
  H1017    1.0000 0.92546  0.34333  0.76010  Biso   1.000  H
  C984     1.0000 0.93216  0.38983  0.80110  Biso   1.000  C
  C985     1.0000 0.88379  0.36008  0.80110  Biso   1.000  C
  C986     1.0000 0.93419  0.28777  0.83156  Biso   1.000  C
  N77      1.0000 0.95261  0.16740  0.81618  Biso   1.000  N
  C987     1.0000 0.93417  0.28784  0.83156  Biso   1.000  C
  N78      1.0000 0.95255  0.16740  0.81618  Biso   1.000  N
  H1018    1.0000 0.86292  0.31299  0.75820  Biso   1.000  H
  C988     1.0000 0.67120  0.59993  0.77880  Biso   1.000  C
  C989     1.0000 0.76560  0.70500  0.81084  Biso   1.000  C
  C990     1.0000 0.68895  0.57399  0.77601  Biso   1.000  C
  C991     1.0000 0.43298  0.07690  0.82639  Biso   1.000  C
  H1019    1.0000 0.50644  0.06002  0.79750  Biso   1.000  H
  H1020    1.0000 0.50638  0.06002  0.79750  Biso   1.000  H
  H1021    1.0000 0.53849  0.14369  0.80021  Biso   1.000  H
  C992     1.0000 0.18142  0.03901  0.84321  Biso   1.000  C
  H1022    1.0000 0.18120  0.04380  0.80219  Biso   1.000  H
  C993     1.0000 0.18137  0.03901  0.84321  Biso   1.000  C
  H1023    1.0000 0.18115  0.04380  0.80219  Biso   1.000  H
  H1024    1.0000 0.33561  0.06121  0.85031  Biso   1.000  H
  H1025    1.0000 0.33556  0.06121  0.85031  Biso   1.000  H
  H1026    1.0000 0.93996  0.44637  0.79750  Biso   1.000  H
  C994     1.0000 0.92307  0.35607  0.82639  Biso   1.000  C
  H1027    1.0000 0.93999  0.44643  0.79750  Biso   1.000  H
  C995     1.0000 0.92316  0.35614  0.82639  Biso   1.000  C
  C996     1.0000 0.92311  0.35614  0.82639  Biso   1.000  C
  H1028    1.0000 0.85628  0.39482  0.80021  Biso   1.000  H
  H1029    1.0000 0.93881  0.27438  0.85031  Biso   1.000  H
  H1030    1.0000 0.93885  0.27444  0.85031  Biso   1.000  H
  H1031    1.0000 0.93879  0.27444  0.85031  Biso   1.000  H
  C997     1.0000 0.96097  0.14238  0.84321  Biso   1.000  C
  H1032    1.0000 0.95620  0.13738  0.80219  Biso   1.000  H
  C998     1.0000 0.96100  0.14244  0.84321  Biso   1.000  C
  H1033    1.0000 0.95617  0.13745  0.80219  Biso   1.000  H
  H1034    1.0000 0.65676  0.58220  0.76010  Biso   1.000  H
  C999     1.0000 0.61025  0.54240  0.80110  Biso   1.000  C
  H1035    1.0000 0.65665  0.58220  0.76010  Biso   1.000  H
  C1000    1.0000 0.63994  0.52375  0.80110  Biso   1.000  C
  C1001    1.0000 0.71220  0.64643  0.83156  Biso   1.000  C
  N79      1.0000 0.83265  0.78519  0.81618  Biso   1.000  N
  H1036    1.0000 0.68705  0.54995  0.75820  Biso   1.000  H
  H1037    1.0000 0.47348  0.09181  0.84120  Biso   1.000  H
  H1038    1.0000 0.21729  0.09483  0.85330  Biso   1.000  H
  H1039    1.0000 0.18634  0.99232  0.85310  Biso   1.000  H
  H1040    1.0000 0.18623  0.99232  0.85310  Biso   1.000  H
  C1002    1.0000 0.08693  0.01701  0.84321  Biso   1.000  C
  C1003    1.0000 0.08688  0.01701  0.84321  Biso   1.000  C
  H1041    1.0000 0.90818  0.38168  0.84120  Biso   1.000  H
  H1042    1.0000 0.90821  0.38175  0.84120  Biso   1.000  H
  H1043    1.0000 0.90518  0.12248  0.85330  Biso   1.000  H
  C1004    1.0000 0.98301  0.06987  0.84321  Biso   1.000  C
  H1044    1.0000 0.90527  0.12254  0.85330  Biso   1.000  H
  C1005    1.0000 0.98299  0.06994  0.84321  Biso   1.000  C
  H1045    1.0000 0.90521  0.12254  0.85330  Biso   1.000  H
  H1046    1.0000 0.00771  0.19399  0.85310  Biso   1.000  H
  H1047    1.0000 0.00765  0.19399  0.85310  Biso   1.000  H
  H1048    1.0000 0.55361  0.49361  0.79750  Biso   1.000  H
  C1006    1.0000 0.64395  0.56703  0.82639  Biso   1.000  C
  H1049    1.0000 0.60517  0.46149  0.80021  Biso   1.000  H
  H1050    1.0000 0.72569  0.66442  0.85031  Biso   1.000  H
  H1051    1.0000 0.72557  0.66442  0.85031  Biso   1.000  H
  C1007    1.0000 0.85767  0.81862  0.84321  Biso   1.000  C
  H1052    1.0000 0.86260  0.81881  0.80219  Biso   1.000  H
  C1008    1.0000 0.85761  0.81862  0.84321  Biso   1.000  C
  C1009    1.0000 0.02169  0.93282  0.84416  Biso   1.000  C
  C1010    1.0000 0.02163  0.93282  0.84416  Biso   1.000  C
  C1011    1.0000 0.06720  0.08879  0.84416  Biso   1.000  C
  C1012    1.0000 0.06718  0.08885  0.84416  Biso   1.000  C
  C1013    1.0000 0.91122  0.97839  0.84416  Biso   1.000  C
  H1053    1.0000 0.61828  0.52651  0.84120  Biso   1.000  H
  H1054    1.0000 0.80607  0.81369  0.85310  Biso   1.000  H
  H1055    1.0000 0.87753  0.78269  0.85330  Biso   1.000  H
  C1014    1.0000 0.93011  0.91312  0.84321  Biso   1.000  C
  H1056    1.0000 0.80595  0.81369  0.85310  Biso   1.000  H
  C1015    1.0000 0.93006  0.91312  0.84321  Biso   1.000  C
  C1016    1.0000 0.03844  0.85769  0.84180  Biso   1.000  C
  C1017    1.0000 0.14229  0.18073  0.84180  Biso   1.000  C
  C1018    1.0000 0.81927  0.96158  0.84180  Biso   1.000  C
  C1019    1.0000 0.81930  0.96165  0.84180  Biso   1.000  C
  H1057    1.0000 0.98852  0.80870  0.83200  Biso   1.000  H
  C1020    1.0000 0.04984  0.82702  0.86780  Biso   1.000  C
  H1058    1.0000 0.09172  0.87621  0.83051  Biso   1.000  H
  H1059    1.0000 0.09166  0.87621  0.83051  Biso   1.000  H
  C1021    1.0000 0.17301  0.22282  0.86780  Biso   1.000  C
  H1060    1.0000 0.12377  0.21547  0.83051  Biso   1.000  H
  H1061    1.0000 0.19131  0.17981  0.83200  Biso   1.000  H
  H1062    1.0000 0.12381  0.21553  0.83051  Biso   1.000  H
  H1063    1.0000 0.19125  0.17981  0.83200  Biso   1.000  H
  H1064    1.0000 0.78457  0.90832  0.83051  Biso   1.000  H
  C1022    1.0000 0.77725  0.95022  0.86780  Biso   1.000  C
  H1065    1.0000 0.82017  0.01149  0.83200  Biso   1.000  H
  H1066    1.0000 0.82023  0.01149  0.83200  Biso   1.000  H
  H1067    1.0000 0.99809  0.81021  0.87941  Biso   1.000  H
  H1068    1.0000 0.05742  0.77599  0.86499  Biso   1.000  H
  H1069    1.0000 0.10211  0.87378  0.87701  Biso   1.000  H
  H1070    1.0000 0.05737  0.77599  0.86499  Biso   1.000  H
  H1071    1.0000 0.10214  0.87385  0.87701  Biso   1.000  H
  H1072    1.0000 0.22402  0.28140  0.86499  Biso   1.000  H
  H1073    1.0000 0.12619  0.22827  0.87701  Biso   1.000  H
  H1074    1.0000 0.18977  0.18789  0.87941  Biso   1.000  H
  H1075    1.0000 0.22396  0.28140  0.86499  Biso   1.000  H
  H1076    1.0000 0.12617  0.22834  0.87701  Biso   1.000  H
  H1077    1.0000 0.18981  0.18795  0.87941  Biso   1.000  H
  H1078    1.0000 0.71867  0.94260  0.86499  Biso   1.000  H
  H1079    1.0000 0.77172  0.89788  0.87701  Biso   1.000  H
  H1080    1.0000 0.71856  0.94260  0.86499  Biso   1.000  H
  H1081    1.0000 0.77176  0.89795  0.87701  Biso   1.000  H
  H1082    1.0000 0.81208  0.00190  0.87941  Biso   1.000  H
  H1083    1.0000 0.81213  0.00190  0.87941  Biso   1.000  H
  C1023    1.0000 0.22279  0.17304  0.63221  Biso   1.000  C
  C1024    1.0000 0.18069  0.14231  0.65821  Biso   1.000  C
  H1084    1.0000 0.18788  0.18979  0.62060  Biso   1.000  H
  H1085    1.0000 0.28143  0.22401  0.63500  Biso   1.000  H
  H1086    1.0000 0.22833  0.12622  0.62300  Biso   1.000  H
  H1087    1.0000 0.28137  0.22401  0.63500  Biso   1.000  H
  H1088    1.0000 0.22827  0.12622  0.62300  Biso   1.000  H
  C1025    1.0000 0.08881  0.06718  0.65583  Biso   1.000  C
  H1089    1.0000 0.21551  0.12379  0.66950  Biso   1.000  H
  H1090    1.0000 0.17982  0.19130  0.66799  Biso   1.000  H
  C1026    1.0000 0.22281  0.17298  0.63221  Biso   1.000  C
  C1027    1.0000 0.08879  0.06725  0.65583  Biso   1.000  C
  H1091    1.0000 0.21545  0.12379  0.66950  Biso   1.000  H
  H1092    1.0000 0.17977  0.19130  0.66799  Biso   1.000  H
  C1028    1.0000 0.06992  0.98299  0.65680  Biso   1.000  C
  C1029    1.0000 0.01700  0.08688  0.65680  Biso   1.000  C
  C1030    1.0000 0.01697  0.08695  0.65680  Biso   1.000  C
  C1031    1.0000 0.97847  0.91121  0.65583  Biso   1.000  C
  C1032    1.0000 0.97841  0.91121  0.65583  Biso   1.000  C
  C1033    1.0000 0.14247  0.96099  0.65680  Biso   1.000  C
  C1034    1.0000 0.14236  0.96099  0.65680  Biso   1.000  C
  C1035    1.0000 0.93283  0.02161  0.65583  Biso   1.000  C
  C1036    1.0000 0.93277  0.02161  0.65583  Biso   1.000  C
  C1037    1.0000 0.03899  0.18138  0.65680  Biso   1.000  C
  C1038    1.0000 0.03897  0.18145  0.65680  Biso   1.000  C
  C1039    1.0000 0.91319  0.93013  0.65680  Biso   1.000  C
  C1040    1.0000 0.96156  0.81927  0.65821  Biso   1.000  C
  C1041    1.0000 0.91314  0.93013  0.65680  Biso   1.000  C
  C1042    1.0000 0.96159  0.81934  0.65821  Biso   1.000  C
  H1093    1.0000 0.12247  0.90517  0.64671  Biso   1.000  H
  N80      1.0000 0.16744  0.95259  0.68383  Biso   1.000  N
  H1094    1.0000 0.12250  0.90524  0.64671  Biso   1.000  H
  N81      1.0000 0.16748  0.95265  0.68383  Biso   1.000  N
  H1095    1.0000 0.19397  0.00768  0.64689  Biso   1.000  H
  H1096    1.0000 0.19400  0.00775  0.64689  Biso   1.000  H
  C1043    1.0000 0.85769  0.03842  0.65821  Biso   1.000  C
  H1097    1.0000 0.09478  0.21731  0.64671  Biso   1.000  H
  N82      1.0000 0.04740  0.21481  0.68383  Biso   1.000  N
  H1098    1.0000 0.99232  0.18631  0.64689  Biso   1.000  H
  H1099    1.0000 0.99226  0.18631  0.64689  Biso   1.000  H
  C1044    1.0000 0.81859  0.85762  0.65680  Biso   1.000  C
  H1100    1.0000 0.90830  0.78453  0.66950  Biso   1.000  H
  C1045    1.0000 0.95018  0.77718  0.63221  Biso   1.000  C
  C1046    1.0000 0.95021  0.77724  0.63221  Biso   1.000  C
  H1101    1.0000 0.01156  0.82019  0.66799  Biso   1.000  H
  H1102    1.0000 0.01144  0.82019  0.66799  Biso   1.000  H
  C1047    1.0000 0.23438  0.93939  0.68917  Biso   1.000  C
  H1103    1.0000 0.13740  0.95620  0.69780  Biso   1.000  H
  C1048    1.0000 0.23441  0.93945  0.68917  Biso   1.000  C
  H1104    1.0000 0.13734  0.95620  0.69780  Biso   1.000  H
  H1105    1.0000 0.80868  0.98851  0.66799  Biso   1.000  H
  H1106    1.0000 0.87619  0.09168  0.66950  Biso   1.000  H
  C1049    1.0000 0.82697  0.04978  0.63221  Biso   1.000  C
  H1107    1.0000 0.87628  0.09174  0.66950  Biso   1.000  H
  C1050    1.0000 0.82700  0.04984  0.63221  Biso   1.000  C
  H1108    1.0000 0.87622  0.09174  0.66950  Biso   1.000  H
  C1051    1.0000 0.06060  0.29500  0.68917  Biso   1.000  C
  H1109    1.0000 0.04379  0.18119  0.69780  Biso   1.000  H
  H1110    1.0000 0.04382  0.18125  0.69780  Biso   1.000  H
  H1111    1.0000 0.81377  0.80601  0.64689  Biso   1.000  H
  H1112    1.0000 0.78270  0.87752  0.64671  Biso   1.000  H
  N83      1.0000 0.78527  0.83260  0.68383  Biso   1.000  N
  H1113    1.0000 0.81366  0.80601  0.64689  Biso   1.000  H
  N84      1.0000 0.78521  0.83260  0.68383  Biso   1.000  N
  H1114    1.0000 0.94267  0.71860  0.63500  Biso   1.000  H
  H1115    1.0000 0.89792  0.77173  0.62300  Biso   1.000  H
  H1116    1.0000 0.94256  0.71860  0.63500  Biso   1.000  H
  H1117    1.0000 0.89786  0.77173  0.62300  Biso   1.000  H
  H1118    1.0000 0.00189  0.81211  0.62060  Biso   1.000  H
  C1052    1.0000 0.25416  0.92993  0.71571  Biso   1.000  C
  C1053    1.0000 0.28781  0.93420  0.66845  Biso   1.000  C
  C1054    1.0000 0.28775  0.93420  0.66845  Biso   1.000  C
  H1119    1.0000 0.81017  0.99810  0.62060  Biso   1.000  H
  H1120    1.0000 0.77601  0.05740  0.63500  Biso   1.000  H
  H1121    1.0000 0.87379  0.10212  0.62300  Biso   1.000  H
  H1122    1.0000 0.77595  0.05740  0.63500  Biso   1.000  H
  C1055    1.0000 0.07009  0.32422  0.71571  Biso   1.000  C
  C1056    1.0000 0.06577  0.35357  0.66845  Biso   1.000  C
  C1057    1.0000 0.06580  0.35364  0.66845  Biso   1.000  C
  H1123    1.0000 0.81881  0.86262  0.69780  Biso   1.000  H
  C1058    1.0000 0.70502  0.76562  0.68917  Biso   1.000  C
  C1059    1.0000 0.70497  0.76562  0.68917  Biso   1.000  C
  S85      1.0000 0.19167  0.93597  0.74421  Biso   1.000  S
  C1060    1.0000 0.32884  0.92868  0.72119  Biso   1.000  C
  C1061    1.0000 0.32887  0.92875  0.72119  Biso   1.000  C
  S86      1.0000 0.19170  0.93604  0.74421  Biso   1.000  S
  C1062    1.0000 0.31099  0.88501  0.72400  Biso   1.000  C
  C1063    1.0000 0.35614  0.92310  0.67360  Biso   1.000  C
  H1124    1.0000 0.27446  0.93879  0.64971  Biso   1.000  H
  H1125    1.0000 0.27435  0.93879  0.64971  Biso   1.000  H
  S87      1.0000 0.06399  0.25572  0.74421  Biso   1.000  S
  C1064    1.0000 0.07127  0.40007  0.72119  Biso   1.000  C
  C1065    1.0000 0.07131  0.40014  0.72119  Biso   1.000  C
  C1066    1.0000 0.11501  0.42601  0.72400  Biso   1.000  C
  C1067    1.0000 0.07686  0.43297  0.67360  Biso   1.000  C
  H1126    1.0000 0.06121  0.33558  0.64971  Biso   1.000  H
  C1068    1.0000 0.07690  0.43304  0.67360  Biso   1.000  C
  H1127    1.0000 0.06119  0.33565  0.64971  Biso   1.000  H
  C1069    1.0000 0.67584  0.74592  0.71571  Biso   1.000  C
  C1070    1.0000 0.64642  0.71223  0.66845  Biso   1.000  C
  C1071    1.0000 0.64637  0.71223  0.66845  Biso   1.000  C
  S88      1.0000 0.25570  0.06403  0.75578  Biso   1.000  S
  H1128    1.0000 0.34330  0.92553  0.73989  Biso   1.000  H
  C1072    1.0000 0.38982  0.93223  0.69889  Biso   1.000  C
  C1073    1.0000 0.38976  0.93223  0.69889  Biso   1.000  C
  C1074    1.0000 0.36016  0.88383  0.69889  Biso   1.000  C
  H1129    1.0000 0.31298  0.86294  0.74179  Biso   1.000  H
  H1130    1.0000 0.38172  0.90819  0.65881  Biso   1.000  H
  H1131    1.0000 0.38167  0.90819  0.65881  Biso   1.000  H
  S89      1.0000 0.93598  0.19169  0.75578  Biso   1.000  S
  C1075    1.0000 0.06779  0.45760  0.69889  Biso   1.000  C
  H1132    1.0000 0.07451  0.41780  0.73989  Biso   1.000  H
  H1133    1.0000 0.07445  0.41780  0.73989  Biso   1.000  H
  C1076    1.0000 0.11622  0.47631  0.69889  Biso   1.000  C
  H1134    1.0000 0.13713  0.45011  0.74179  Biso   1.000  H
  H1135    1.0000 0.09178  0.47349  0.65881  Biso   1.000  H
  C1077    1.0000 0.59991  0.67118  0.72119  Biso   1.000  C
  S90      1.0000 0.74428  0.80831  0.74421  Biso   1.000  S
  C1078    1.0000 0.59994  0.67125  0.72119  Biso   1.000  C
  C1079    1.0000 0.57403  0.68905  0.72400  Biso   1.000  C
  C1080    1.0000 0.56706  0.64393  0.67360  Biso   1.000  C
  H1136    1.0000 0.66450  0.72562  0.64971  Biso   1.000  H
  H1137    1.0000 0.66438  0.72562  0.64971  Biso   1.000  H
  C1081    1.0000 0.32418  0.07007  0.78430  Biso   1.000  C
  C1082    1.0000 0.32421  0.07014  0.78430  Biso   1.000  C
  H1138    1.0000 0.44641  0.93998  0.70249  Biso   1.000  H
  H1139    1.0000 0.44645  0.94004  0.70249  Biso   1.000  H
  H1140    1.0000 0.39486  0.85631  0.69980  Biso   1.000  H
  C1083    1.0000 0.92992  0.25408  0.78430  Biso   1.000  C
  C1084    1.0000 0.92995  0.25415  0.78430  Biso   1.000  C
  C1085    1.0000 0.92990  0.25415  0.78430  Biso   1.000  C
  H1141    1.0000 0.06000  0.50639  0.70249  Biso   1.000  H
  H1142    1.0000 0.05994  0.50639  0.70249  Biso   1.000  H
  H1143    1.0000 0.14368  0.53851  0.69980  Biso   1.000  H
  H1144    1.0000 0.58224  0.65667  0.73989  Biso   1.000  H
  C1086    1.0000 0.54239  0.61017  0.69889  Biso   1.000  C
  H1145    1.0000 0.58216  0.65674  0.73989  Biso   1.000  H
  C1087    1.0000 0.54237  0.61024  0.69889  Biso   1.000  C
  C1088    1.0000 0.52377  0.63992  0.69889  Biso   1.000  C
  S91      1.0000 0.80827  0.74428  0.75578  Biso   1.000  S
  S92      1.0000 0.80830  0.74434  0.75578  Biso   1.000  S
  H1146    1.0000 0.54993  0.68701  0.74179  Biso   1.000  H
  H1147    1.0000 0.52650  0.61832  0.65881  Biso   1.000  H
  C1089    1.0000 0.40010  0.07132  0.77880  Biso   1.000  C
  C1090    1.0000 0.29499  0.06061  0.81084  Biso   1.000  C
  C1091    1.0000 0.42598  0.11499  0.77601  Biso   1.000  C
  C1092    1.0000 0.92873  0.32882  0.77880  Biso   1.000  C
  C1093    1.0000 0.93941  0.23438  0.81084  Biso   1.000  C
  C1094    1.0000 0.92867  0.32882  0.77880  Biso   1.000  C
  C1095    1.0000 0.93944  0.23445  0.81084  Biso   1.000  C
  C1096    1.0000 0.93938  0.23445  0.81084  Biso   1.000  C
  C1097    1.0000 0.88502  0.31102  0.77601  Biso   1.000  C
  H1148    1.0000 0.49364  0.55363  0.70249  Biso   1.000  H
  H1149    1.0000 0.46156  0.60525  0.69980  Biso   1.000  H
  C1098    1.0000 0.74593  0.67578  0.78430  Biso   1.000  C
  C1099    1.0000 0.74596  0.67585  0.78430  Biso   1.000  C
  H1150    1.0000 0.41777  0.07447  0.76010  Biso   1.000  H
  C1100    1.0000 0.45759  0.06777  0.80110  Biso   1.000  C
  H1151    1.0000 0.41781  0.07454  0.76010  Biso   1.000  H
  C1101    1.0000 0.45757  0.06784  0.80110  Biso   1.000  C
  C1102    1.0000 0.47627  0.11617  0.80110  Biso   1.000  C
  N85      1.0000 0.21480  0.04741  0.81618  Biso   1.000  N
  C1103    1.0000 0.35361  0.06580  0.83156  Biso   1.000  C
  C1104    1.0000 0.35355  0.06580  0.83156  Biso   1.000  C
  H1152    1.0000 0.45012  0.13712  0.75820  Biso   1.000  H
  H1153    1.0000 0.92552  0.34333  0.76010  Biso   1.000  H
  C1105    1.0000 0.93222  0.38983  0.80110  Biso   1.000  C
  H1154    1.0000 0.92546  0.34333  0.76010  Biso   1.000  H
  C1106    1.0000 0.93216  0.38983  0.80110  Biso   1.000  C
  C1107    1.0000 0.88379  0.36008  0.80110  Biso   1.000  C
  C1108    1.0000 0.93419  0.28777  0.83156  Biso   1.000  C
  N86      1.0000 0.95261  0.16740  0.81618  Biso   1.000  N
  C1109    1.0000 0.93417  0.28784  0.83156  Biso   1.000  C
  N87      1.0000 0.95255  0.16740  0.81618  Biso   1.000  N
  H1155    1.0000 0.86292  0.31299  0.75820  Biso   1.000  H
  C1110    1.0000 0.67120  0.59993  0.77880  Biso   1.000  C
  C1111    1.0000 0.76560  0.70500  0.81084  Biso   1.000  C
  C1112    1.0000 0.68895  0.57399  0.77601  Biso   1.000  C
  C1113    1.0000 0.43298  0.07690  0.82639  Biso   1.000  C
  H1156    1.0000 0.50644  0.06002  0.79750  Biso   1.000  H
  H1157    1.0000 0.50638  0.06002  0.79750  Biso   1.000  H
  H1158    1.0000 0.53849  0.14369  0.80021  Biso   1.000  H
  C1114    1.0000 0.18142  0.03901  0.84321  Biso   1.000  C
  H1159    1.0000 0.18120  0.04380  0.80219  Biso   1.000  H
  C1115    1.0000 0.18137  0.03901  0.84321  Biso   1.000  C
  H1160    1.0000 0.18115  0.04380  0.80219  Biso   1.000  H
  H1161    1.0000 0.33561  0.06121  0.85031  Biso   1.000  H
  H1162    1.0000 0.33556  0.06121  0.85031  Biso   1.000  H
  H1163    1.0000 0.93996  0.44637  0.79750  Biso   1.000  H
  C1116    1.0000 0.92307  0.35607  0.82639  Biso   1.000  C
  H1164    1.0000 0.93999  0.44643  0.79750  Biso   1.000  H
  C1117    1.0000 0.92316  0.35614  0.82639  Biso   1.000  C
  C1118    1.0000 0.92311  0.35614  0.82639  Biso   1.000  C
  H1165    1.0000 0.85628  0.39482  0.80021  Biso   1.000  H
  H1166    1.0000 0.93881  0.27438  0.85031  Biso   1.000  H
  H1167    1.0000 0.93885  0.27444  0.85031  Biso   1.000  H
  H1168    1.0000 0.93879  0.27444  0.85031  Biso   1.000  H
  C1119    1.0000 0.96097  0.14238  0.84321  Biso   1.000  C
  H1169    1.0000 0.95620  0.13738  0.80219  Biso   1.000  H
  C1120    1.0000 0.96100  0.14244  0.84321  Biso   1.000  C
  H1170    1.0000 0.95617  0.13745  0.80219  Biso   1.000  H
  H1171    1.0000 0.65676  0.58220  0.76010  Biso   1.000  H
  C1121    1.0000 0.61025  0.54240  0.80110  Biso   1.000  C
  H1172    1.0000 0.65665  0.58220  0.76010  Biso   1.000  H
  C1122    1.0000 0.63994  0.52375  0.80110  Biso   1.000  C
  C1123    1.0000 0.71220  0.64643  0.83156  Biso   1.000  C
  N88      1.0000 0.83265  0.78519  0.81618  Biso   1.000  N
  H1173    1.0000 0.68705  0.54995  0.75820  Biso   1.000  H
  H1174    1.0000 0.47348  0.09181  0.84120  Biso   1.000  H
  H1175    1.0000 0.21729  0.09483  0.85330  Biso   1.000  H
  H1176    1.0000 0.18634  0.99232  0.85310  Biso   1.000  H
  H1177    1.0000 0.18623  0.99232  0.85310  Biso   1.000  H
  C1124    1.0000 0.08693  0.01701  0.84321  Biso   1.000  C
  C1125    1.0000 0.08688  0.01701  0.84321  Biso   1.000  C
  H1178    1.0000 0.90818  0.38168  0.84120  Biso   1.000  H
  H1179    1.0000 0.90821  0.38175  0.84120  Biso   1.000  H
  H1180    1.0000 0.90518  0.12248  0.85330  Biso   1.000  H
  C1126    1.0000 0.98301  0.06987  0.84321  Biso   1.000  C
  H1181    1.0000 0.90527  0.12254  0.85330  Biso   1.000  H
  C1127    1.0000 0.98299  0.06994  0.84321  Biso   1.000  C
  H1182    1.0000 0.90521  0.12254  0.85330  Biso   1.000  H
  H1183    1.0000 0.00771  0.19399  0.85310  Biso   1.000  H
  H1184    1.0000 0.00765  0.19399  0.85310  Biso   1.000  H
  H1185    1.0000 0.55361  0.49361  0.79750  Biso   1.000  H
  C1128    1.0000 0.64395  0.56703  0.82639  Biso   1.000  C
  H1186    1.0000 0.60517  0.46149  0.80021  Biso   1.000  H
  H1187    1.0000 0.72569  0.66442  0.85031  Biso   1.000  H
  H1188    1.0000 0.72557  0.66442  0.85031  Biso   1.000  H
  C1129    1.0000 0.85767  0.81862  0.84321  Biso   1.000  C
  H1189    1.0000 0.86260  0.81881  0.80219  Biso   1.000  H
  C1130    1.0000 0.85761  0.81862  0.84321  Biso   1.000  C
  C1131    1.0000 0.02169  0.93282  0.84416  Biso   1.000  C
  C1132    1.0000 0.02163  0.93282  0.84416  Biso   1.000  C
  C1133    1.0000 0.06720  0.08879  0.84416  Biso   1.000  C
  C1134    1.0000 0.06718  0.08885  0.84416  Biso   1.000  C
  C1135    1.0000 0.91122  0.97839  0.84416  Biso   1.000  C
  H1190    1.0000 0.61828  0.52651  0.84120  Biso   1.000  H
  H1191    1.0000 0.80607  0.81369  0.85310  Biso   1.000  H
  H1192    1.0000 0.87753  0.78269  0.85330  Biso   1.000  H
  C1136    1.0000 0.93011  0.91312  0.84321  Biso   1.000  C
  H1193    1.0000 0.80595  0.81369  0.85310  Biso   1.000  H
  C1137    1.0000 0.93006  0.91312  0.84321  Biso   1.000  C
  C1138    1.0000 0.03844  0.85769  0.84180  Biso   1.000  C
  C1139    1.0000 0.14229  0.18073  0.84180  Biso   1.000  C
  C1140    1.0000 0.81927  0.96158  0.84180  Biso   1.000  C
  C1141    1.0000 0.81930  0.96165  0.84180  Biso   1.000  C
  H1194    1.0000 0.98852  0.80870  0.83200  Biso   1.000  H
  C1142    1.0000 0.04984  0.82702  0.86780  Biso   1.000  C
  H1195    1.0000 0.09172  0.87621  0.83051  Biso   1.000  H
  H1196    1.0000 0.09166  0.87621  0.83051  Biso   1.000  H
  C1143    1.0000 0.17301  0.22282  0.86780  Biso   1.000  C
  H1197    1.0000 0.12377  0.21547  0.83051  Biso   1.000  H
  H1198    1.0000 0.19131  0.17981  0.83200  Biso   1.000  H
  H1199    1.0000 0.12381  0.21553  0.83051  Biso   1.000  H
  H1200    1.0000 0.19125  0.17981  0.83200  Biso   1.000  H
  H1201    1.0000 0.78457  0.90832  0.83051  Biso   1.000  H
  C1144    1.0000 0.77725  0.95022  0.86780  Biso   1.000  C
  H1202    1.0000 0.82017  0.01149  0.83200  Biso   1.000  H
  H1203    1.0000 0.82023  0.01149  0.83200  Biso   1.000  H
  H1204    1.0000 0.99809  0.81021  0.87941  Biso   1.000  H
  H1205    1.0000 0.05742  0.77599  0.86499  Biso   1.000  H
  H1206    1.0000 0.10211  0.87378  0.87701  Biso   1.000  H
  H1207    1.0000 0.05737  0.77599  0.86499  Biso   1.000  H
  H1208    1.0000 0.10214  0.87385  0.87701  Biso   1.000  H
  H1209    1.0000 0.22402  0.28140  0.86499  Biso   1.000  H
  H1210    1.0000 0.12619  0.22827  0.87701  Biso   1.000  H
  H1211    1.0000 0.18977  0.18789  0.87941  Biso   1.000  H
  H1212    1.0000 0.22396  0.28140  0.86499  Biso   1.000  H
  H1213    1.0000 0.12617  0.22834  0.87701  Biso   1.000  H
  H1214    1.0000 0.18981  0.18795  0.87941  Biso   1.000  H
  H1215    1.0000 0.71867  0.94260  0.86499  Biso   1.000  H
  H1216    1.0000 0.77172  0.89788  0.87701  Biso   1.000  H
  H1217    1.0000 0.71856  0.94260  0.86499  Biso   1.000  H
  H1218    1.0000 0.77176  0.89795  0.87701  Biso   1.000  H
  H1219    1.0000 0.81208  0.00190  0.87941  Biso   1.000  H
  H1220    1.0000 0.81213  0.00190  0.87941  Biso   1.000  H
  C1145    1.0000 0.44386  0.28350  0.20114  Biso   1.000  C
  C1146    1.0000 0.48597  0.29493  0.17514  Biso   1.000  C
  H1221    1.0000 0.38526  0.27595  0.19832  Biso   1.000  H
  H1222    1.0000 0.43837  0.23123  0.21034  Biso   1.000  H
  H1223    1.0000 0.47878  0.33525  0.21274  Biso   1.000  H
  C1147    1.0000 0.57787  0.31174  0.17750  Biso   1.000  C
  H1224    1.0000 0.45118  0.24161  0.16384  Biso   1.000  H
  H1225    1.0000 0.48687  0.34484  0.16533  Biso   1.000  H
  C1148    1.0000 0.64966  0.40322  0.17654  Biso   1.000  C
  C1149    1.0000 0.59676  0.24646  0.17654  Biso   1.000  C
  C1150    1.0000 0.73385  0.42214  0.17750  Biso   1.000  C
  C1151    1.0000 0.62767  0.47572  0.17654  Biso   1.000  C
  C1152    1.0000 0.52426  0.15196  0.17654  Biso   1.000  C
  C1153    1.0000 0.68825  0.26610  0.17750  Biso   1.000  C
  C1154    1.0000 0.75358  0.35036  0.17654  Biso   1.000  C
  C1155    1.0000 0.80896  0.51401  0.17514  Biso   1.000  C
  H1226    1.0000 0.67435  0.52734  0.18643  Biso   1.000  H
  H1227    1.0000 0.57188  0.45583  0.18664  Biso   1.000  H
  N89      1.0000 0.61925  0.50074  0.14951  Biso   1.000  N
  H1228    1.0000 0.47265  0.14704  0.18643  Biso   1.000  H
  H1229    1.0000 0.54417  0.11604  0.18664  Biso   1.000  H
  N90      1.0000 0.49930  0.11854  0.14951  Biso   1.000  N
  C1156    1.0000 0.70509  0.19104  0.17514  Biso   1.000  C
  C1157    1.0000 0.84807  0.37236  0.17654  Biso   1.000  C
  H1230    1.0000 0.79047  0.54882  0.16384  Biso   1.000  H
  H1231    1.0000 0.85795  0.51316  0.16533  Biso   1.000  H
  C1158    1.0000 0.83967  0.55611  0.20114  Biso   1.000  C
  C1159    1.0000 0.60605  0.56773  0.14417  Biso   1.000  C
  H1232    1.0000 0.62284  0.47073  0.13553  Biso   1.000  H
  C1160    1.0000 0.43230  0.03835  0.14417  Biso   1.000  C
  H1233    1.0000 0.52930  0.15216  0.13553  Biso   1.000  H
  H1234    1.0000 0.75836  0.20956  0.16384  Biso   1.000  H
  H1235    1.0000 0.65517  0.14205  0.16533  Biso   1.000  H
  C1161    1.0000 0.71645  0.16030  0.20114  Biso   1.000  C
  H1236    1.0000 0.85299  0.32566  0.18643  Biso   1.000  H
  H1237    1.0000 0.88396  0.42811  0.18664  Biso   1.000  H
  N91      1.0000 0.88150  0.38076  0.14951  Biso   1.000  N
  H1238    1.0000 0.89067  0.61475  0.19832  Biso   1.000  H
  H1239    1.0000 0.79284  0.56162  0.21034  Biso   1.000  H
  H1240    1.0000 0.85648  0.52123  0.21274  Biso   1.000  H
  C1162    1.0000 0.59656  0.58743  0.11763  Biso   1.000  C
  C1163    1.0000 0.60084  0.62112  0.16490  Biso   1.000  C
  C1164    1.0000 0.41257  0.00913  0.11763  Biso   1.000  C
  C1165    1.0000 0.37887  0.97971  0.16490  Biso   1.000  C
  H1241    1.0000 0.72407  0.10934  0.19832  Biso   1.000  H
  H1242    1.0000 0.76875  0.20713  0.21034  Biso   1.000  H
  H1243    1.0000 0.66479  0.14356  0.21274  Biso   1.000  H
  C1166    1.0000 0.96170  0.39396  0.14417  Biso   1.000  C
  H1244    1.0000 0.84785  0.37715  0.13553  Biso   1.000  H
  C1167    1.0000 0.59537  0.66216  0.11213  Biso   1.000  C
  S93      1.0000 0.60268  0.52504  0.08911  Biso   1.000  S
  C1168    1.0000 0.55163  0.64430  0.10934  Biso   1.000  C
  C1169    1.0000 0.58978  0.68942  0.15973  Biso   1.000  C
  H1245    1.0000 0.60546  0.60772  0.18364  Biso   1.000  H
  S94      1.0000 0.47497  0.07762  0.08911  Biso   1.000  S
  C1170    1.0000 0.33793  0.93321  0.11213  Biso   1.000  C
  C1171    1.0000 0.35570  0.90734  0.10934  Biso   1.000  C
  C1172    1.0000 0.31062  0.90031  0.15973  Biso   1.000  C
  H1246    1.0000 0.39230  0.99770  0.18364  Biso   1.000  H
  C1173    1.0000 0.99088  0.40342  0.11763  Biso   1.000  C
  C1174    1.0000 0.02025  0.39915  0.16490  Biso   1.000  C
  H1247    1.0000 0.59213  0.67661  0.09343  Biso   1.000  H
  C1175    1.0000 0.59883  0.72311  0.13443  Biso   1.000  C
  C1176    1.0000 0.55049  0.69342  0.13443  Biso   1.000  C
  S95      1.0000 0.73066  0.58901  0.07755  Biso   1.000  S
  H1248    1.0000 0.52956  0.64634  0.09153  Biso   1.000  H
  H1249    1.0000 0.57488  0.71503  0.17454  Biso   1.000  H
  S96      1.0000 0.41098  0.14165  0.07755  Biso   1.000  S
  H1250    1.0000 0.32335  0.91555  0.09343  Biso   1.000  H
  C1177    1.0000 0.27695  0.87575  0.13443  Biso   1.000  C
  C1178    1.0000 0.30655  0.85703  0.13443  Biso   1.000  C
  H1251    1.0000 0.35366  0.88324  0.09153  Biso   1.000  H
  H1252    1.0000 0.28504  0.85986  0.17454  Biso   1.000  H
  S97      1.0000 0.92237  0.39731  0.08911  Biso   1.000  S
  C1179    1.0000 0.06677  0.40460  0.11213  Biso   1.000  C
  C1180    1.0000 0.09268  0.44834  0.10934  Biso   1.000  C
  C1181    1.0000 0.09968  0.41025  0.15973  Biso   1.000  C
  H1253    1.0000 0.00226  0.39455  0.18364  Biso   1.000  H
  H1254    1.0000 0.60666  0.77972  0.13083  Biso   1.000  H
  H1255    1.0000 0.52299  0.72816  0.13354  Biso   1.000  H
  C1182    1.0000 0.73676  0.65750  0.04904  Biso   1.000  C
  C1183    1.0000 0.34248  0.07927  0.04904  Biso   1.000  C
  H1256    1.0000 0.22025  0.82696  0.13083  Biso   1.000  H
  H1257    1.0000 0.27182  0.79484  0.13354  Biso   1.000  H
  S98      1.0000 0.85837  0.26932  0.07755  Biso   1.000  S
  H1258    1.0000 0.08448  0.40782  0.09343  Biso   1.000  H
  C1184    1.0000 0.12424  0.40112  0.13443  Biso   1.000  C
  C1185    1.0000 0.14298  0.44952  0.13443  Biso   1.000  C
  H1259    1.0000 0.11674  0.47040  0.09153  Biso   1.000  H
  H1260    1.0000 0.14018  0.42516  0.17454  Biso   1.000  H
  C1186    1.0000 0.73798  0.73342  0.05452  Biso   1.000  C
  C1187    1.0000 0.72730  0.62834  0.02250  Biso   1.000  C
  C1188    1.0000 0.78166  0.75936  0.05734  Biso   1.000  C
  C1189    1.0000 0.26656  0.00453  0.05452  Biso   1.000  C
  C1190    1.0000 0.37164  0.09890  0.02250  Biso   1.000  C
  C1191    1.0000 0.24065  0.02233  0.05734  Biso   1.000  C
  C1192    1.0000 0.92078  0.26321  0.04904  Biso   1.000  C
  H1261    1.0000 0.17305  0.39331  0.13083  Biso   1.000  H
  H1262    1.0000 0.20519  0.47704  0.13354  Biso   1.000  H
  H1263    1.0000 0.74116  0.75115  0.07322  Biso   1.000  H
  C1193    1.0000 0.73449  0.79095  0.03223  Biso   1.000  C
  C1194    1.0000 0.78287  0.80966  0.03223  Biso   1.000  C
  C1195    1.0000 0.73247  0.68692  0.00178  Biso   1.000  C
  N92      1.0000 0.71411  0.54816  0.01717  Biso   1.000  N
  H1264    1.0000 0.80378  0.78346  0.07513  Biso   1.000  H
  H1265    1.0000 0.24883  0.99002  0.07322  Biso   1.000  H
  C1196    1.0000 0.20909  0.94352  0.03223  Biso   1.000  C
  C1197    1.0000 0.19041  0.97327  0.03223  Biso   1.000  C
  C1198    1.0000 0.31304  0.04551  0.00178  Biso   1.000  C
  N93      1.0000 0.45185  0.16595  0.01717  Biso   1.000  N
  H1266    1.0000 0.21657  0.02036  0.07513  Biso   1.000  H
  C1199    1.0000 0.99549  0.26203  0.05452  Biso   1.000  C
  C1200    1.0000 0.90108  0.27273  0.02250  Biso   1.000  C
  C1201    1.0000 0.97769  0.21836  0.05734  Biso   1.000  C
  H1267    1.0000 0.72664  0.83974  0.03583  Biso   1.000  H
  C1202    1.0000 0.74356  0.76632  0.00693  Biso   1.000  C
  H1268    1.0000 0.81038  0.87185  0.03314  Biso   1.000  H
  H1269    1.0000 0.72786  0.66893  0.98304  Biso   1.000  H
  H1270    1.0000 0.71049  0.51454  0.03113  Biso   1.000  H
  C1203    1.0000 0.70564  0.51473  0.99013  Biso   1.000  C
  H1271    1.0000 0.16026  0.88691  0.03583  Biso   1.000  H
  C1204    1.0000 0.23367  0.97721  0.00693  Biso   1.000  C
  H1272    1.0000 0.12811  0.93853  0.03314  Biso   1.000  H
  H1273    1.0000 0.33105  0.05891  0.98304  Biso   1.000  H
  H1274    1.0000 0.48546  0.19596  0.03113  Biso   1.000  H
  C1205    1.0000 0.48526  0.19091  0.99013  Biso   1.000  C
  H1275    1.0000 0.00997  0.25881  0.07322  Biso   1.000  H
  C1206    1.0000 0.05643  0.26551  0.03223  Biso   1.000  C
  C1207    1.0000 0.02677  0.21711  0.03223  Biso   1.000  C
  C1208    1.0000 0.95445  0.26755  0.00178  Biso   1.000  C
  N94      1.0000 0.83409  0.28593  0.01717  Biso   1.000  N
  H1276    1.0000 0.97965  0.19623  0.07513  Biso   1.000  H
  H1277    1.0000 0.75848  0.80684  0.99214  Biso   1.000  H
  H1278    1.0000 0.65896  0.51966  0.98023  Biso   1.000  H
  H1279    1.0000 0.76148  0.55065  0.98004  Biso   1.000  H
  C1209    1.0000 0.68364  0.42023  0.99013  Biso   1.000  C
  H1280    1.0000 0.19320  0.95167  0.99214  Biso   1.000  H
  H1281    1.0000 0.48036  0.13935  0.98023  Biso   1.000  H
  H1282    1.0000 0.44937  0.21081  0.98004  Biso   1.000  H
  C1210    1.0000 0.57975  0.26341  0.99013  Biso   1.000  C
  H1283    1.0000 0.11306  0.27332  0.03583  Biso   1.000  H
  C1211    1.0000 0.02278  0.25645  0.00693  Biso   1.000  C
  H1284    1.0000 0.06150  0.18966  0.03314  Biso   1.000  H
  H1285    1.0000 0.94105  0.27214  0.98304  Biso   1.000  H
  H1286    1.0000 0.80405  0.28955  0.03113  Biso   1.000  H
  C1212    1.0000 0.80906  0.29434  0.99013  Biso   1.000  C
  C1213    1.0000 0.75546  0.40053  0.98916  Biso   1.000  C
  C1214    1.0000 0.59948  0.35495  0.98916  Biso   1.000  C
  C1215    1.0000 0.64506  0.24456  0.98916  Biso   1.000  C
  H1287    1.0000 0.04837  0.24154  0.99214  Biso   1.000  H
  H1288    1.0000 0.86067  0.34103  0.98023  Biso   1.000  H
  H1289    1.0000 0.78917  0.23852  0.98004  Biso   1.000  H
  C1216    1.0000 0.73657  0.31634  0.99013  Biso   1.000  C
  C1217    1.0000 0.84740  0.47566  0.99154  Biso   1.000  C
  C1218    1.0000 0.52439  0.37177  0.99154  Biso   1.000  C
  C1219    1.0000 0.62826  0.15262  0.99154  Biso   1.000  C
  H1290    1.0000 0.88216  0.45714  0.00283  Biso   1.000  H
  H1291    1.0000 0.84647  0.52465  0.00132  Biso   1.000  H
  C1220    1.0000 0.88946  0.50633  0.96554  Biso   1.000  C
  H1292    1.0000 0.54289  0.42503  0.00283  Biso   1.000  H
  H1293    1.0000 0.47538  0.32186  0.00132  Biso   1.000  H
  C1221    1.0000 0.49367  0.38313  0.96554  Biso   1.000  C
  H1294    1.0000 0.57497  0.11781  0.00283  Biso   1.000  H
  H1295    1.0000 0.67815  0.15354  0.00132  Biso   1.000  H
  C1222    1.0000 0.61688  0.11052  0.96554  Biso   1.000  C
  H1296    1.0000 0.94807  0.55735  0.96833  Biso   1.000  H
  H1297    1.0000 0.89494  0.45950  0.95633  Biso   1.000  H
  H1298    1.0000 0.85459  0.52314  0.95394  Biso   1.000  H
  H1299    1.0000 0.44266  0.39074  0.96833  Biso   1.000  H
  H1300    1.0000 0.54046  0.43540  0.95633  Biso   1.000  H
  H1301    1.0000 0.47687  0.33144  0.95394  Biso   1.000  H
  H1302    1.0000 0.60926  0.05195  0.96833  Biso   1.000  H
  H1303    1.0000 0.56453  0.10501  0.95633  Biso   1.000  H
  H1304    1.0000 0.66859  0.14546  0.95394  Biso   1.000  H
  C1223    1.0000 0.16034  0.44387  0.79886  Biso   1.000  C
  C1224    1.0000 0.19106  0.48597  0.82486  Biso   1.000  C
  H1305    1.0000 0.10933  0.38529  0.80168  Biso   1.000  H
  H1306    1.0000 0.20712  0.43836  0.78966  Biso   1.000  H
  H1307    1.0000 0.14354  0.47874  0.78726  Biso   1.000  H
  C1225    1.0000 0.26612  0.57784  0.82250  Biso   1.000  C
  H1308    1.0000 0.20954  0.45116  0.83616  Biso   1.000  H
  H1309    1.0000 0.14204  0.48689  0.83467  Biso   1.000  H
  C1226    1.0000 0.24642  0.64969  0.82346  Biso   1.000  C
  C1227    1.0000 0.35030  0.59676  0.82346  Biso   1.000  C
  C1228    1.0000 0.15193  0.62769  0.82346  Biso   1.000  C
  C1229    1.0000 0.31172  0.73388  0.82250  Biso   1.000  C
  C1230    1.0000 0.37235  0.52425  0.82346  Biso   1.000  C
  C1231    1.0000 0.42209  0.68824  0.82250  Biso   1.000  C
  H1310    1.0000 0.14706  0.67438  0.81357  Biso   1.000  H
  H1311    1.0000 0.11605  0.57187  0.81336  Biso   1.000  H
  N95      1.0000 0.11855  0.61928  0.85049  Biso   1.000  N
  C1232    1.0000 0.40324  0.75358  0.82346  Biso   1.000  C
  C1233    1.0000 0.29493  0.80894  0.82486  Biso   1.000  C
  H1312    1.0000 0.32561  0.47264  0.81357  Biso   1.000  H
  H1313    1.0000 0.42814  0.54415  0.81336  Biso   1.000  H
  N96      1.0000 0.38071  0.49923  0.85049  Biso   1.000  N
  C1234    1.0000 0.51404  0.70505  0.82486  Biso   1.000  C
  C1235    1.0000 0.03835  0.60608  0.85583  Biso   1.000  C
  H1314    1.0000 0.15215  0.62289  0.86447  Biso   1.000  H
  C1236    1.0000 0.47574  0.84808  0.82346  Biso   1.000  C
  H1315    1.0000 0.24163  0.79049  0.83616  Biso   1.000  H
  H1316    1.0000 0.34483  0.85800  0.83467  Biso   1.000  H
  C1237    1.0000 0.28351  0.83967  0.79886  Biso   1.000  C
  C1238    1.0000 0.39391  0.43225  0.85583  Biso   1.000  C
  H1317    1.0000 0.37712  0.52925  0.86447  Biso   1.000  H
  H1318    1.0000 0.54884  0.75837  0.83616  Biso   1.000  H
  H1319    1.0000 0.51315  0.65514  0.83467  Biso   1.000  H
  C1239    1.0000 0.55616  0.71648  0.79886  Biso   1.000  C
  C1240    1.0000 0.00914  0.59656  0.88237  Biso   1.000  C
  C1241    1.0000 0.97974  0.60089  0.83510  Biso   1.000  C
  H1320    1.0000 0.52731  0.85294  0.81357  Biso   1.000  H
  H1321    1.0000 0.45585  0.88394  0.81336  Biso   1.000  H
  N97      1.0000 0.50072  0.88144  0.85049  Biso   1.000  N
  H1322    1.0000 0.27589  0.89064  0.80168  Biso   1.000  H
  H1323    1.0000 0.23121  0.79285  0.78966  Biso   1.000  H
  H1324    1.0000 0.33526  0.85649  0.78726  Biso   1.000  H
  C1242    1.0000 0.40340  0.41255  0.88237  Biso   1.000  C
  C1243    1.0000 0.39912  0.37886  0.83510  Biso   1.000  C
  H1325    1.0000 0.61473  0.72409  0.80168  Biso   1.000  H
  H1326    1.0000 0.56165  0.76875  0.78966  Biso   1.000  H
  H1327    1.0000 0.52127  0.66479  0.78726  Biso   1.000  H
  S99      1.0000 0.07765  0.60267  0.91089  Biso   1.000  S
  C1244    1.0000 0.93325  0.59538  0.88787  Biso   1.000  C
  C1245    1.0000 0.90734  0.55164  0.89066  Biso   1.000  C
  C1246    1.0000 0.90037  0.58980  0.84027  Biso   1.000  C
  H1328    1.0000 0.99773  0.60549  0.81636  Biso   1.000  H
  C1247    1.0000 0.56775  0.96169  0.85583  Biso   1.000  C
  H1329    1.0000 0.47075  0.84788  0.86447  Biso   1.000  H
  C1248    1.0000 0.40462  0.33788  0.88787  Biso   1.000  C
  S100     1.0000 0.39734  0.47494  0.91089  Biso   1.000  S
  C1249    1.0000 0.44833  0.35568  0.89066  Biso   1.000  C
  C1250    1.0000 0.41024  0.31056  0.84027  Biso   1.000  C
  H1330    1.0000 0.39450  0.39226  0.81636  Biso   1.000  H
  S101     1.0000 0.14165  0.73066  0.92245  Biso   1.000  S
  H1331    1.0000 0.91554  0.59216  0.90657  Biso   1.000  H
  C1251    1.0000 0.87572  0.59886  0.86557  Biso   1.000  C
  C1252    1.0000 0.85704  0.55046  0.86557  Biso   1.000  C
  H1332    1.0000 0.88323  0.52957  0.90847  Biso   1.000  H
  H1333    1.0000 0.85987  0.57489  0.82546  Biso   1.000  H
  C1253    1.0000 0.58745  0.99085  0.88237  Biso   1.000  C
  C1254    1.0000 0.62115  0.02027  0.83510  Biso   1.000  C
  H1334    1.0000 0.40783  0.32337  0.90657  Biso   1.000  H
  C1255    1.0000 0.40113  0.27687  0.86557  Biso   1.000  C
  C1256    1.0000 0.44953  0.30655  0.86557  Biso   1.000  C
  S102     1.0000 0.26935  0.41097  0.92245  Biso   1.000  S
  H1335    1.0000 0.47040  0.35364  0.90847  Biso   1.000  H
  H1336    1.0000 0.42513  0.28495  0.82546  Biso   1.000  H
  C1257    1.0000 0.07924  0.73677  0.95096  Biso   1.000  C
  H1337    1.0000 0.82691  0.60667  0.86917  Biso   1.000  H
  H1338    1.0000 0.79483  0.52294  0.86646  Biso   1.000  H
  S103     1.0000 0.52505  0.92236  0.91089  Biso   1.000  S
  C1258    1.0000 0.66214  0.06677  0.88787  Biso   1.000  C
  C1259    1.0000 0.64437  0.09264  0.89066  Biso   1.000  C
  C1260    1.0000 0.68940  0.09967  0.84027  Biso   1.000  C
  H1339    1.0000 0.60766  0.00228  0.81636  Biso   1.000  H
  H1340    1.0000 0.39336  0.22026  0.86917  Biso   1.000  H
  H1341    1.0000 0.47706  0.27188  0.86646  Biso   1.000  H
  C1261    1.0000 0.26326  0.34248  0.95096  Biso   1.000  C
  C1262    1.0000 0.00453  0.73795  0.94548  Biso   1.000  C
  C1263    1.0000 0.09894  0.72725  0.97750  Biso   1.000  C
  C1264    1.0000 0.02236  0.78169  0.94266  Biso   1.000  C
  S104     1.0000 0.58907  0.85839  0.92245  Biso   1.000  S
  H1342    1.0000 0.67658  0.08450  0.90657  Biso   1.000  H
  C1265    1.0000 0.72310  0.12429  0.86557  Biso   1.000  C
  C1266    1.0000 0.69341  0.14295  0.86557  Biso   1.000  C
  H1343    1.0000 0.64630  0.11674  0.90847  Biso   1.000  H
  H1344    1.0000 0.71506  0.14019  0.82546  Biso   1.000  H
  C1267    1.0000 0.26204  0.26656  0.94548  Biso   1.000  C
  C1268    1.0000 0.27272  0.37163  0.97750  Biso   1.000  C
  C1269    1.0000 0.21834  0.24069  0.94266  Biso   1.000  C
  H1345    1.0000 0.99005  0.74117  0.92678  Biso   1.000  H
  C1270    1.0000 0.94353  0.73447  0.96777  Biso   1.000  C
  C1271    1.0000 0.97325  0.78287  0.96777  Biso   1.000  C
  C1272    1.0000 0.04554  0.73250  0.99822  Biso   1.000  C
  N98      1.0000 0.16593  0.71405  0.98283  Biso   1.000  N
  H1346    1.0000 0.02031  0.80375  0.92487  Biso   1.000  H
  C1273    1.0000 0.65751  0.92078  0.95096  Biso   1.000  C
  H1347    1.0000 0.77974  0.17309  0.86917  Biso   1.000  H
  H1348    1.0000 0.72814  0.20514  0.86646  Biso   1.000  H
  H1349    1.0000 0.25884  0.24889  0.92678  Biso   1.000  H
  C1274    1.0000 0.26556  0.20910  0.96777  Biso   1.000  C
  C1275    1.0000 0.21713  0.19038  0.96777  Biso   1.000  C
  C1276    1.0000 0.26754  0.31306  0.99822  Biso   1.000  C
  N99      1.0000 0.28594  0.45189  0.98283  Biso   1.000  N
  H1350    1.0000 0.19622  0.21658  0.92487  Biso   1.000  H
  H1351    1.0000 0.88690  0.72665  0.96417  Biso   1.000  H
  C1277    1.0000 0.97727  0.74360  0.99307  Biso   1.000  C
  H1352    1.0000 0.93855  0.81039  0.96686  Biso   1.000  H
  H1353    1.0000 0.05891  0.72784  0.01696  Biso   1.000  H
  H1354    1.0000 0.19595  0.71050  0.96887  Biso   1.000  H
  C1278    1.0000 0.19090  0.70564  0.00987  Biso   1.000  C
  C1279    1.0000 0.73341  0.99545  0.94548  Biso   1.000  C
  C1280    1.0000 0.62832  0.90108  0.97750  Biso   1.000  C
  C1281    1.0000 0.75937  0.97765  0.94266  Biso   1.000  C
  H1355    1.0000 0.27332  0.16024  0.96417  Biso   1.000  H
  C1282    1.0000 0.25645  0.23366  0.99307  Biso   1.000  C
  H1356    1.0000 0.18967  0.12819  0.96686  Biso   1.000  H
  H1357    1.0000 0.27211  0.33105  0.01696  Biso   1.000  H
  H1358    1.0000 0.28953  0.48544  0.96887  Biso   1.000  H
  C1283    1.0000 0.29432  0.48525  0.00987  Biso   1.000  C
  H1359    1.0000 0.95165  0.75844  0.00786  Biso   1.000  H
  H1360    1.0000 0.13935  0.65895  0.01977  Biso   1.000  H
  H1361    1.0000 0.21085  0.76146  0.01996  Biso   1.000  H
  C1284    1.0000 0.26339  0.68364  0.00987  Biso   1.000  C
  H1362    1.0000 0.75107  0.00996  0.92678  Biso   1.000  H
  C1285    1.0000 0.79092  0.05646  0.96777  Biso   1.000  C
  C1286    1.0000 0.80958  0.02677  0.96777  Biso   1.000  C
  C1287    1.0000 0.68693  0.95447  0.99822  Biso   1.000  C
  N100     1.0000 0.54814  0.83409  0.98283  Biso   1.000  N
  H1363    1.0000 0.78345  0.97962  0.92487  Biso   1.000  H
  H1364    1.0000 0.24154  0.19314  0.00786  Biso   1.000  H
  H1365    1.0000 0.34103  0.48039  0.01977  Biso   1.000  H
  H1366    1.0000 0.23857  0.44939  0.01996  Biso   1.000  H
  C1288    1.0000 0.31632  0.57975  0.00987  Biso   1.000  C
  C1289    1.0000 0.24450  0.59945  0.01084  Biso   1.000  C
  C1290    1.0000 0.35494  0.75548  0.01084  Biso   1.000  C
  H1367    1.0000 0.83970  0.11306  0.96417  Biso   1.000  H
  C1291    1.0000 0.76629  0.02277  0.99307  Biso   1.000  C
  H1368    1.0000 0.87179  0.06145  0.96686  Biso   1.000  H
  H1369    1.0000 0.66891  0.94107  0.01696  Biso   1.000  H
  H1370    1.0000 0.51454  0.80408  0.96887  Biso   1.000  H
  C1292    1.0000 0.51476  0.80907  0.00987  Biso   1.000  C
  C1293    1.0000 0.40052  0.64509  0.01084  Biso   1.000  C
  C1294    1.0000 0.15266  0.52439  0.00846  Biso   1.000  C
  C1295    1.0000 0.42021  0.73657  0.00987  Biso   1.000  C
  C1296    1.0000 0.37175  0.84736  0.00846  Biso   1.000  C
  H1371    1.0000 0.80685  0.04838  0.00786  Biso   1.000  H
  H1372    1.0000 0.51964  0.86069  0.01977  Biso   1.000  H
  H1373    1.0000 0.55065  0.78917  0.01996  Biso   1.000  H
  C1297    1.0000 0.47566  0.62828  0.00846  Biso   1.000  C
  H1374    1.0000 0.11781  0.54284  0.99717  Biso   1.000  H
  H1375    1.0000 0.15353  0.47540  0.99868  Biso   1.000  H
  C1298    1.0000 0.11050  0.49365  0.03446  Biso   1.000  C
  H1376    1.0000 0.42504  0.88216  0.99717  Biso   1.000  H
  H1377    1.0000 0.32181  0.84644  0.99868  Biso   1.000  H
  C1299    1.0000 0.38313  0.88945  0.03446  Biso   1.000  C
  H1378    1.0000 0.45713  0.57495  0.99717  Biso   1.000  H
  H1379    1.0000 0.52467  0.67819  0.99868  Biso   1.000  H
  C1300    1.0000 0.50634  0.61685  0.03446  Biso   1.000  C
  H1380    1.0000 0.05192  0.44269  0.03167  Biso   1.000  H
  H1381    1.0000 0.10502  0.54048  0.04367  Biso   1.000  H
  H1382    1.0000 0.14543  0.47684  0.04606  Biso   1.000  H
  H1383    1.0000 0.39073  0.94810  0.03167  Biso   1.000  H
  H1384    1.0000 0.43543  0.89497  0.04367  Biso   1.000  H
  H1385    1.0000 0.33146  0.85458  0.04606  Biso   1.000  H
  H1386    1.0000 0.55734  0.60930  0.03167  Biso   1.000  H
  H1387    1.0000 0.45956  0.56458  0.04367  Biso   1.000  H
  H1388    1.0000 0.52314  0.66854  0.04606  Biso   1.000  H
