data_image0
_cell_length_a       39.336
_cell_length_b       12.52
_cell_length_c       30.977
_cell_angle_alpha    90
_cell_angle_beta     90
_cell_angle_gamma    90

_symmetry_space_group_name_H-M    "P 1"
_symmetry_int_tables_number       1

loop_
  _symmetry_equiv_pos_as_xyz
  'x, y, z'

loop_
  _atom_site_label
  _atom_site_occupancy
  _atom_site_fract_x
  _atom_site_fract_y
  _atom_site_fract_z
  _atom_site_thermal_displace_type
  _atom_site_B_iso_or_equiv
  _atom_site_type_symbol
  S1       1.0000 0.52250  0.49521  0.71747  Biso   1.000  S
  C1       1.0000 0.52540  0.61709  0.68490  Biso   1.000  C
  C2       1.0000 0.55799  0.50911  0.75169  Biso   1.000  C
  H1       1.0000 0.54749  0.61789  0.66950  Biso   1.000  H
  H2       1.0000 0.50709  0.61693  0.66301  Biso   1.000  H
  C3       1.0000 0.52240  0.71909  0.71288  Biso   1.000  C
  S2       1.0000 0.59846  0.53099  0.72851  Biso   1.000  S
  C4       1.0000 0.55679  0.49673  0.79459  Biso   1.000  C
  H3       1.0000 0.50031  0.72045  0.72819  Biso   1.000  H
  H4       1.0000 0.54090  0.72141  0.73458  Biso   1.000  H
  C5       1.0000 0.52509  0.81270  0.68251  Biso   1.000  C
  C6       1.0000 0.62111  0.51374  0.77680  Biso   1.000  C
  S3       1.0000 0.59536  0.49792  0.82290  Biso   1.000  S
  S4       1.0000 0.51980  0.46893  0.82448  Biso   1.000  S
  S5       1.0000 0.52649  0.94201  0.70843  Biso   1.000  S
  H5       1.0000 0.50549  0.81110  0.66259  Biso   1.000  H
  H6       1.0000 0.54599  0.80407  0.66488  Biso   1.000  H
  C7       1.0000 0.65551  0.50527  0.77929  Biso   1.000  C
  C8       1.0000 0.50529  0.60327  0.83688  Biso   1.000  C
  C9       1.0000 0.56081  0.92212  0.74349  Biso   1.000  C
  S6       1.0000 0.68263  0.51821  0.73416  Biso   1.000  S
  S7       1.0000 0.67630  0.48003  0.82839  Biso   1.000  S
  C10      1.0000 0.53150  0.67452  0.85689  Biso   1.000  C
  H7       1.0000 0.49710  0.63698  0.80989  Biso   1.000  H
  H8       1.0000 0.48569  0.59824  0.85680  Biso   1.000  H
  S8       1.0000 0.60110  0.89553  0.72173  Biso   1.000  S
  C11      1.0000 0.55819  0.92612  0.78758  Biso   1.000  C
  C12      1.0000 0.72031  0.48882  0.76318  Biso   1.000  C
  C13      1.0000 0.71700  0.47133  0.80640  Biso   1.000  C
  O1       1.0000 0.54479  0.62460  0.89470  Biso   1.000  O
  H9       1.0000 0.55011  0.68778  0.83610  Biso   1.000  H
  H10      1.0000 0.52110  0.74409  0.86458  Biso   1.000  H
  C14      1.0000 0.62200  0.89728  0.77160  Biso   1.000  C
  S9       1.0000 0.59554  0.90200  0.81696  Biso   1.000  S
  S10      1.0000 0.51899  0.93283  0.81354  Biso   1.000  S
  S11      1.0000 0.75895  0.48147  0.73571  Biso   1.000  S
  S12      1.0000 0.75094  0.44018  0.84053  Biso   1.000  S
  C15      1.0000 0.57050  0.68890  0.91410  Biso   1.000  C
  C16      1.0000 0.65660  0.89313  0.77519  Biso   1.000  C
  C17      1.0000 0.52969  0.99345  0.86471  Biso   1.000  C
  C18      1.0000 0.75821  0.60671  0.70388  Biso   1.000  C
  C19      1.0000 0.76541  0.57380  0.85438  Biso   1.000  C
  C20      1.0000 0.58201  0.63898  0.95481  Biso   1.000  C
  H11      1.0000 0.56139  0.76102  0.92010  Biso   1.000  H
  H12      1.0000 0.58999  0.69633  0.89408  Biso   1.000  H
  S13      1.0000 0.68385  0.88682  0.73012  Biso   1.000  S
  S14      1.0000 0.67727  0.89489  0.82532  Biso   1.000  S
  H13      1.0000 0.51091  0.98123  0.88530  Biso   1.000  H
  H14      1.0000 0.55031  0.95863  0.87639  Biso   1.000  H
  C21      1.0000 0.53600  0.11126  0.86080  Biso   1.000  C
  C22      1.0000 0.76030  0.70487  0.73148  Biso   1.000  C
  H15      1.0000 0.77751  0.60631  0.68338  Biso   1.000  H
  H16      1.0000 0.73691  0.60919  0.68680  Biso   1.000  H
  H17      1.0000 0.78310  0.56757  0.87701  Biso   1.000  H
  H18      1.0000 0.77631  0.60559  0.82858  Biso   1.000  H
  C23      1.0000 0.73909  0.64744  0.86981  Biso   1.000  C
  O2       1.0000 0.60080  0.71390  0.97940  Biso   1.000  O
  H19      1.0000 0.56211  0.61430  0.97159  Biso   1.000  H
  H20      1.0000 0.59640  0.57620  0.94828  Biso   1.000  H
  C24      1.0000 0.72120  0.91334  0.76131  Biso   1.000  C
  C25      1.0000 0.71751  0.91709  0.80350  Biso   1.000  C
  O3       1.0000 0.54612  0.15224  0.90099  Biso   1.000  O
  H21      1.0000 0.55400  0.12460  0.83911  Biso   1.000  H
  H22      1.0000 0.51500  0.14760  0.85108  Biso   1.000  H
  C26      1.0000 0.76070  0.80304  0.70368  Biso   1.000  C
  H23      1.0000 0.78129  0.70232  0.74910  Biso   1.000  H
  H24      1.0000 0.74059  0.70751  0.75130  Biso   1.000  H
  O4       1.0000 0.72321  0.60168  0.90629  Biso   1.000  O
  H25      1.0000 0.74939  0.71693  0.87759  Biso   1.000  H
  H26      1.0000 0.72211  0.65990  0.84679  Biso   1.000  H
  C27      1.0000 0.59129  0.71158  0.02679  Biso   1.000  C
  S15      1.0000 0.75946  0.92835  0.73280  Biso   1.000  S
  S16      1.0000 0.75264  0.93299  0.83833  Biso   1.000  S
  C28      1.0000 0.54909  0.26182  0.90060  Biso   1.000  C
  H27      1.0000 0.74090  0.80008  0.68399  Biso   1.000  H
  H28      1.0000 0.78150  0.80168  0.68570  Biso   1.000  H
  C29      1.0000 0.69651  0.66470  0.92110  Biso   1.000  C
  C30      1.0000 0.60850  0.62604  0.04810  Biso   1.000  C
  H29      1.0000 0.59770  0.78035  0.04038  Biso   1.000  H
  H30      1.0000 0.56650  0.70224  0.02980  Biso   1.000  H
  C31      1.0000 0.73350  0.99744  0.88469  Biso   1.000  C
  H31      1.0000 0.52611  0.29377  0.90118  Biso   1.000  H
  H32      1.0000 0.56010  0.28387  0.87320  Biso   1.000  H
  C32      1.0000 0.56869  0.30343  0.93660  Biso   1.000  C
  H33      1.0000 0.67900  0.67069  0.89818  Biso   1.000  H
  H34      1.0000 0.70500  0.73738  0.92749  Biso   1.000  H
  C33      1.0000 0.68131  0.62029  0.95929  Biso   1.000  C
  S17      1.0000 0.60578  0.63962  0.10624  Biso   1.000  S
  H35      1.0000 0.63270  0.62540  0.03929  Biso   1.000  H
  H36      1.0000 0.59831  0.55719  0.03929  Biso   1.000  H
  H37      1.0000 0.71339  0.95575  0.89399  Biso   1.000  H
  H38      1.0000 0.74990  0.99784  0.90880  Biso   1.000  H
  C34      1.0000 0.72270  0.10998  0.87520  Biso   1.000  C
  O5       1.0000 0.55054  0.28698  0.97689  Biso   1.000  O
  H39      1.0000 0.59101  0.26669  0.93789  Biso   1.000  H
  H40      1.0000 0.57291  0.38059  0.93230  Biso   1.000  H
  O6       1.0000 0.70180  0.62812  0.99829  Biso   1.000  O
  H41      1.0000 0.67620  0.54401  0.95380  Biso   1.000  H
  H42      1.0000 0.65929  0.65703  0.96449  Biso   1.000  H
  C35      1.0000 0.62820  0.76118  0.11199  Biso   1.000  C
  O7       1.0000 0.70439  0.14960  0.91068  Biso   1.000  O
  H43      1.0000 0.74301  0.15503  0.87000  Biso   1.000  H
  H44      1.0000 0.70831  0.11158  0.84898  Biso   1.000  H
  C36      1.0000 0.56940  0.32260  0.01282  Biso   1.000  C
  C37      1.0000 0.70419  0.73155  0.01630  Biso   1.000  C
  S18      1.0000 0.60370  0.87284  0.12638  Biso   1.000  S
  C38      1.0000 0.66209  0.77532  0.10811  Biso   1.000  C
  C39      1.0000 0.69379  0.25591  0.90319  Biso   1.000  C
  H45      1.0000 0.57411  0.39992  0.00991  Biso   1.000  H
  H46      1.0000 0.59139  0.28427  0.01401  Biso   1.000  H
  C40      1.0000 0.54950  0.30224  0.05381  Biso   1.000  C
  H47      1.0000 0.71810  0.77764  0.99729  Biso   1.000  H
  H48      1.0000 0.68121  0.76334  0.01840  Biso   1.000  H
  C41      1.0000 0.72041  0.72564  0.06150  Biso   1.000  C
  C42      1.0000 0.63720  0.96510  0.12109  Biso   1.000  C
  S19      1.0000 0.67775  0.90447  0.11831  Biso   1.000  S
  S20      1.0000 0.69092  0.66981  0.10104  Biso   1.000  S
  C43      1.0000 0.66969  0.29201  0.93669  Biso   1.000  C
  H49      1.0000 0.68281  0.26062  0.87458  Biso   1.000  H
  H50      1.0000 0.71390  0.30351  0.90309  Biso   1.000  H
  S21      1.0000 0.57230  0.35232  0.10095  Biso   1.000  S
  H51      1.0000 0.54551  0.22460  0.05711  Biso   1.000  H
  H52      1.0000 0.52710  0.33794  0.05191  Biso   1.000  H
  H53      1.0000 0.72730  0.79808  0.07070  Biso   1.000  H
  H54      1.0000 0.74110  0.68059  0.06021  Biso   1.000  H
  C44      1.0000 0.63230  0.06957  0.11931  Biso   1.000  C
  O8       1.0000 0.68871  0.31510  0.97640  Biso   1.000  O
  H55      1.0000 0.65769  0.35687  0.92678  Biso   1.000  H
  H56      1.0000 0.65261  0.23562  0.94228  Biso   1.000  H
  C45      1.0000 0.60509  0.25759  0.10559  Biso   1.000  C
  S22      1.0000 0.59142  0.12804  0.12277  Biso   1.000  S
  S23      1.0000 0.66524  0.16550  0.11589  Biso   1.000  S
  C46      1.0000 0.66631  0.33450  0.01059  Biso   1.000  C
  C47      1.0000 0.63789  0.27324  0.10330  Biso   1.000  C
  C48      1.0000 0.68571  0.36821  0.04839  Biso   1.000  C
  H57      1.0000 0.65329  0.26877  0.01740  Biso   1.000  H
  H58      1.0000 0.64989  0.39113  0.00239  Biso   1.000  H
  S24      1.0000 0.65721  0.39888  0.09442  Biso   1.000  S
  H59      1.0000 0.69921  0.43243  0.04110  Biso   1.000  H
  H60      1.0000 0.70170  0.31070  0.05678  Biso   1.000  H
  S25      1.0000 0.49014  0.44273  0.60048  Biso   1.000  S
  C49      1.0000 0.48909  0.31909  0.63160  Biso   1.000  C
  C50      1.0000 0.52969  0.43179  0.57478  Biso   1.000  C
  C51      1.0000 0.48991  0.21941  0.60271  Biso   1.000  C
  H61      1.0000 0.50890  0.31741  0.65139  Biso   1.000  H
  H62      1.0000 0.46820  0.31773  0.64939  Biso   1.000  H
  S26      1.0000 0.56610  0.39752  0.60545  Biso   1.000  S
  C52      1.0000 0.53381  0.44864  0.53220  Biso   1.000  C
  C53      1.0000 0.49339  0.11893  0.63199  Biso   1.000  C
  H63      1.0000 0.50941  0.22348  0.58250  Biso   1.000  H
  H64      1.0000 0.46881  0.21494  0.58550  Biso   1.000  H
  C54      1.0000 0.59480  0.41030  0.56200  Biso   1.000  C
  S27      1.0000 0.50074  0.47308  0.49595  Biso   1.000  S
  S28      1.0000 0.57550  0.43147  0.51154  Biso   1.000  S
  S29      1.0000 0.49349  0.99505  0.60135  Biso   1.000  S
  H65      1.0000 0.47430  0.11749  0.65281  Biso   1.000  H
  H66      1.0000 0.51480  0.12412  0.64871  Biso   1.000  H
  C55      1.0000 0.62851  0.40663  0.56581  Biso   1.000  C
  C56      1.0000 0.52080  0.53107  0.44901  Biso   1.000  C
  C57      1.0000 0.53129  0.00871  0.57230  Biso   1.000  C
  S30      1.0000 0.65126  0.38594  0.61368  Biso   1.000  S
  S31      1.0000 0.65431  0.42061  0.51939  Biso   1.000  S
  H67      1.0000 0.54101  0.48770  0.44130  Biso   1.000  H
  H68      1.0000 0.50470  0.52780  0.42451  Biso   1.000  H
  C58      1.0000 0.53180  0.64585  0.45540  Biso   1.000  C
  C59      1.0000 0.53419  0.99209  0.53001  Biso   1.000  C
  S32      1.0000 0.56922  0.04513  0.59990  Biso   1.000  S
  C60      1.0000 0.69089  0.42404  0.59131  Biso   1.000  C
  C61      1.0000 0.69209  0.44153  0.54818  Biso   1.000  C
  O9       1.0000 0.54535  0.68339  0.41570  Biso   1.000  O
  H69      1.0000 0.51210  0.69010  0.46409  Biso   1.000  H
  H70      1.0000 0.54929  0.65000  0.47839  Biso   1.000  H
  S33      1.0000 0.50051  0.95088  0.49546  Biso   1.000  S
  S34      1.0000 0.57421  0.00871  0.50573  Biso   1.000  S
  C62      1.0000 0.59589  0.03147  0.55399  Biso   1.000  C
  S35      1.0000 0.72623  0.43762  0.62504  Biso   1.000  S
  S36      1.0000 0.72959  0.47380  0.52113  Biso   1.000  S
  C63      1.0000 0.55181  0.79441  0.41699  Biso   1.000  C
  C64      1.0000 0.47900  0.07804  0.48668  Biso   1.000  C
  C65      1.0000 0.63059  0.02931  0.55628  Biso   1.000  C
  C66      1.0000 0.72661  0.30919  0.65110  Biso   1.000  C
  C67      1.0000 0.71520  0.53147  0.47099  Biso   1.000  C
  H71      1.0000 0.56450  0.81190  0.44368  Biso   1.000  H
  H72      1.0000 0.52990  0.83355  0.41779  Biso   1.000  H
  C68      1.0000 0.57200  0.82995  0.37818  Biso   1.000  C
  C69      1.0000 0.50249  0.16829  0.47480  Biso   1.000  C
  H73      1.0000 0.46199  0.06893  0.46341  Biso   1.000  H
  H74      1.0000 0.46649  0.09752  0.51338  Biso   1.000  H
  S37      1.0000 0.65363  0.04441  0.60471  Biso   1.000  S
  S38      1.0000 0.65563  0.01550  0.51009  Biso   1.000  S
  C70      1.0000 0.72951  0.21238  0.62240  Biso   1.000  C
  H75      1.0000 0.74591  0.30799  0.67169  Biso   1.000  H
  H76      1.0000 0.70551  0.30240  0.66821  Biso   1.000  H
  C71      1.0000 0.69839  0.64081  0.47600  Biso   1.000  C
  H77      1.0000 0.73480  0.53842  0.45130  Biso   1.000  H
  H78      1.0000 0.69870  0.48203  0.45740  Biso   1.000  H
  O10      1.0000 0.55331  0.83762  0.33919  Biso   1.000  O
  H79      1.0000 0.58209  0.90064  0.38461  Biso   1.000  H
  H80      1.0000 0.59091  0.77899  0.37379  Biso   1.000  H
  O11      1.0000 0.52130  0.14042  0.43739  Biso   1.000  O
  H81      1.0000 0.48899  0.23379  0.46919  Biso   1.000  H
  H82      1.0000 0.51820  0.18307  0.49908  Biso   1.000  H
  C72      1.0000 0.69321  0.00879  0.58198  Biso   1.000  C
  C73      1.0000 0.69420  0.99489  0.53869  Biso   1.000  C
  C74      1.0000 0.72689  0.11190  0.64690  Biso   1.000  C
  H83      1.0000 0.71131  0.21462  0.60038  Biso   1.000  H
  H84      1.0000 0.75160  0.21438  0.60710  Biso   1.000  H
  O12      1.0000 0.69153  0.67740  0.43348  Biso   1.000  O
  H85      1.0000 0.67709  0.63482  0.49278  Biso   1.000  H
  H86      1.0000 0.71380  0.69089  0.49111  Biso   1.000  H
  C75      1.0000 0.54701  0.73395  0.32059  Biso   1.000  C
  C76      1.0000 0.54479  0.22372  0.42670  Biso   1.000  C
  S39      1.0000 0.72826  0.98922  0.61526  Biso   1.000  S
  S40      1.0000 0.72959  0.95911  0.50747  Biso   1.000  S
  H87      1.0000 0.70541  0.11302  0.66340  Biso   1.000  H
  H88      1.0000 0.74581  0.10982  0.66811  Biso   1.000  H
  C77      1.0000 0.66781  0.76438  0.43310  Biso   1.000  C
  C78      1.0000 0.53129  0.75208  0.27530  Biso   1.000  C
  H89      1.0000 0.53109  0.69289  0.33899  Biso   1.000  H
  H90      1.0000 0.56851  0.69329  0.31811  Biso   1.000  H
  C79      1.0000 0.57090  0.17979  0.39620  Biso   1.000  C
  H91      1.0000 0.55600  0.25064  0.45321  Biso   1.000  H
  H92      1.0000 0.53259  0.28387  0.41289  Biso   1.000  H
  C80      1.0000 0.75249  0.08722  0.50318  Biso   1.000  C
  C81      1.0000 0.66710  0.80950  0.38761  Biso   1.000  C
  H93      1.0000 0.67490  0.82021  0.45389  Biso   1.000  H
  H94      1.0000 0.64491  0.73890  0.44139  Biso   1.000  H
  S41      1.0000 0.56061  0.80551  0.23530  Biso   1.000  S
  H95      1.0000 0.51190  0.80184  0.27821  Biso   1.000  H
  H96      1.0000 0.52230  0.68323  0.26458  Biso   1.000  H
  O13      1.0000 0.55550  0.15599  0.35539  Biso   1.000  O
  H97      1.0000 0.58941  0.23267  0.39210  Biso   1.000  H
  H98      1.0000 0.58099  0.11398  0.40850  Biso   1.000  H
  H99      1.0000 0.76159  0.10623  0.53201  Biso   1.000  H
  H100     1.0000 0.77199  0.07812  0.48339  Biso   1.000  H
  C82      1.0000 0.73070  0.17772  0.48720  Biso   1.000  C
  O14      1.0000 0.65350  0.73442  0.35839  Biso   1.000  O
  H101     1.0000 0.65309  0.87532  0.38709  Biso   1.000  H
  H102     1.0000 0.69051  0.82859  0.37860  Biso   1.000  H
  C83      1.0000 0.58910  0.69944  0.22830  Biso   1.000  C
  C84      1.0000 0.58089  0.13259  0.32469  Biso   1.000  C
  O15      1.0000 0.71507  0.15040  0.44811  Biso   1.000  O
  H103     1.0000 0.71311  0.19457  0.50899  Biso   1.000  H
  H104     1.0000 0.74489  0.24209  0.48310  Biso   1.000  H
  C85      1.0000 0.66321  0.75232  0.31420  Biso   1.000  C
  S42      1.0000 0.57291  0.56973  0.21852  Biso   1.000  S
  C86      1.0000 0.62261  0.71190  0.22601  Biso   1.000  C
  C87      1.0000 0.56419  0.10112  0.28250  Biso   1.000  C
  H105     1.0000 0.59541  0.07348  0.33518  Biso   1.000  H
  H106     1.0000 0.59551  0.19609  0.32021  Biso   1.000  H
  C88      1.0000 0.69270  0.22939  0.43429  Biso   1.000  C
  C89      1.0000 0.64290  0.83962  0.29241  Biso   1.000  C
  H107     1.0000 0.66021  0.68498  0.29790  Biso   1.000  H
  H108     1.0000 0.68759  0.77141  0.31320  Biso   1.000  H
  C90      1.0000 0.61379  0.50895  0.21600  Biso   1.000  C
  S43      1.0000 0.64727  0.59952  0.21138  Biso   1.000  S
  S44      1.0000 0.64574  0.83187  0.23421  Biso   1.000  S
  S45      1.0000 0.59493  0.07260  0.24079  Biso   1.000  S
  H109     1.0000 0.54919  0.15966  0.27278  Biso   1.000  H
  H110     1.0000 0.54990  0.03706  0.28731  Biso   1.000  H
  H111     1.0000 0.70551  0.29481  0.42638  Biso   1.000  H
  H112     1.0000 0.67661  0.24752  0.45769  Biso   1.000  H
  C91      1.0000 0.67361  0.18754  0.39529  Biso   1.000  C
  H113     1.0000 0.65139  0.91014  0.30219  Biso   1.000  H
  H114     1.0000 0.61870  0.83371  0.30119  Biso   1.000  H
  C92      1.0000 0.61829  0.40224  0.21681  Biso   1.000  C
  C93      1.0000 0.61320  0.19848  0.23178  Biso   1.000  C
  O16      1.0000 0.69537  0.18978  0.35801  Biso   1.000  O
  H115     1.0000 0.66590  0.11350  0.40078  Biso   1.000  H
  H116     1.0000 0.65329  0.23219  0.39000  Biso   1.000  H
  S46      1.0000 0.58555  0.30687  0.22045  Biso   1.000  S
  S47      1.0000 0.65914  0.34641  0.21235  Biso   1.000  S
  C94      1.0000 0.64681  0.21789  0.22859  Biso   1.000  C
  C95      1.0000 0.67849  0.15280  0.32101  Biso   1.000  C
  S48      1.0000 0.67895  0.12196  0.23346  Biso   1.000  S
  C96      1.0000 0.70081  0.17069  0.28050  Biso   1.000  C
  H117     1.0000 0.65670  0.19137  0.31769  Biso   1.000  H
  H118     1.0000 0.67340  0.07580  0.32421  Biso   1.000  H
  H119     1.0000 0.72270  0.13251  0.28389  Biso   1.000  H
  H120     1.0000 0.70569  0.24784  0.27711  Biso   1.000  H
  S49      1.0000 0.42709  0.43027  0.71850  Biso   1.000  S
  C97      1.0000 0.38621  0.49113  0.71598  Biso   1.000  C
  C98      1.0000 0.41090  0.30064  0.72828  Biso   1.000  C
  S50      1.0000 0.35273  0.40048  0.71140  Biso   1.000  S
  C99      1.0000 0.38171  0.59784  0.71679  Biso   1.000  C
  C100     1.0000 0.37739  0.28810  0.72599  Biso   1.000  C
  S51      1.0000 0.43939  0.19449  0.73529  Biso   1.000  S
  S52      1.0000 0.34086  0.65359  0.71233  Biso   1.000  S
  S53      1.0000 0.41445  0.69313  0.72044  Biso   1.000  S
  S54      1.0000 0.35426  0.16813  0.73419  Biso   1.000  S
  C101     1.0000 0.46871  0.24792  0.77528  Biso   1.000  C
  C102     1.0000 0.35319  0.78211  0.72861  Biso   1.000  C
  C103     1.0000 0.38680  0.80152  0.73180  Biso   1.000  C
  C104     1.0000 0.35710  0.16038  0.79239  Biso   1.000  C
  C105     1.0000 0.45299  0.26613  0.82058  Biso   1.000  C
  H121     1.0000 0.48810  0.19824  0.77819  Biso   1.000  H
  H122     1.0000 0.47770  0.31677  0.76460  Biso   1.000  H
  S55      1.0000 0.32105  0.87804  0.73345  Biso   1.000  S
  S56      1.0000 0.40507  0.92740  0.74081  Biso   1.000  S
  H123     1.0000 0.34861  0.08994  0.80221  Biso   1.000  H
  H124     1.0000 0.38130  0.16629  0.80121  Biso   1.000  H
  C106     1.0000 0.33679  0.24768  0.81418  Biso   1.000  C
  O17      1.0000 0.44669  0.16238  0.83920  Biso   1.000  O
  H125     1.0000 0.46891  0.30711  0.83898  Biso   1.000  H
  H126     1.0000 0.43149  0.30671  0.81809  Biso   1.000  H
  C107     1.0000 0.29919  0.82931  0.78048  Biso   1.000  C
  C108     1.0000 0.43581  0.89888  0.78248  Biso   1.000  C
  O18      1.0000 0.34650  0.26558  0.85838  Biso   1.000  O
  H127     1.0000 0.33979  0.31502  0.79788  Biso   1.000  H
  H128     1.0000 0.31241  0.22859  0.81318  Biso   1.000  H
  C109     1.0000 0.42800  0.17013  0.87820  Biso   1.000  C
  C110     1.0000 0.32151  0.84720  0.82100  Biso   1.000  C
  H129     1.0000 0.27730  0.86749  0.78390  Biso   1.000  H
  H130     1.0000 0.29431  0.75224  0.77709  Biso   1.000  H
  H131     1.0000 0.45081  0.84034  0.77280  Biso   1.000  H
  H132     1.0000 0.45010  0.96294  0.78729  Biso   1.000  H
  C111     1.0000 0.41911  0.86741  0.82468  Biso   1.000  C
  C112     1.0000 0.33290  0.19050  0.88759  Biso   1.000  C
  C113     1.0000 0.44819  0.20559  0.91700  Biso   1.000  C
  H133     1.0000 0.41791  0.09944  0.88459  Biso   1.000  H
  H134     1.0000 0.40909  0.22101  0.87378  Biso   1.000  H
  O19      1.0000 0.30463  0.81022  0.85799  Biso   1.000  O
  H135     1.0000 0.34330  0.80863  0.81770  Biso   1.000  H
  H136     1.0000 0.32660  0.92420  0.82419  Biso   1.000  H
  O20      1.0000 0.44450  0.84401  0.85538  Biso   1.000  O
  H137     1.0000 0.40459  0.92652  0.83520  Biso   1.000  H
  H138     1.0000 0.40449  0.80391  0.82019  Biso   1.000  H
  H139     1.0000 0.34691  0.12468  0.88708  Biso   1.000  H
  H140     1.0000 0.30949  0.17141  0.87859  Biso   1.000  H
  C114     1.0000 0.33219  0.23562  0.93308  Biso   1.000  C
  O21      1.0000 0.45465  0.31661  0.91568  Biso   1.000  O
  H141     1.0000 0.43550  0.18810  0.94370  Biso   1.000  H
  H142     1.0000 0.47010  0.16653  0.91778  Biso   1.000  H
  C115     1.0000 0.32639  0.81254  0.89528  Biso   1.000  C
  C116     1.0000 0.42910  0.82021  0.89618  Biso   1.000  C
  O22      1.0000 0.30847  0.32260  0.93350  Biso   1.000  O
  H143     1.0000 0.32510  0.17979  0.95390  Biso   1.000  H
  H144     1.0000 0.35509  0.26110  0.94138  Biso   1.000  H
  C117     1.0000 0.46820  0.35423  0.95539  Biso   1.000  C
  C118     1.0000 0.30730  0.77061  0.93431  Biso   1.000  C
  H145     1.0000 0.33410  0.88650  0.90080  Biso   1.000  H
  H146     1.0000 0.34671  0.76781  0.88998  Biso   1.000  H
  H147     1.0000 0.41059  0.76733  0.89208  Biso   1.000  H
  H148     1.0000 0.41901  0.88602  0.90848  Biso   1.000  H
  C119     1.0000 0.45521  0.77628  0.92669  Biso   1.000  C
  C120     1.0000 0.30161  0.35919  0.97598  Biso   1.000  C
  C121     1.0000 0.47920  0.46893  0.94899  Biso   1.000  C
  H149     1.0000 0.48790  0.30990  0.96410  Biso   1.000  H
  H150     1.0000 0.45071  0.35000  0.97840  Biso   1.000  H
  O23      1.0000 0.28493  0.84960  0.94809  Biso   1.000  O
  H151     1.0000 0.29449  0.70519  0.92640  Biso   1.000  H
  H152     1.0000 0.32339  0.75248  0.95768  Biso   1.000  H
  O24      1.0000 0.47870  0.85958  0.93741  Biso   1.000  O
  H153     1.0000 0.44400  0.74944  0.95319  Biso   1.000  H
  H154     1.0000 0.46741  0.71613  0.91290  Biso   1.000  H
  H155     1.0000 0.32291  0.36518  0.99280  Biso   1.000  H
  H156     1.0000 0.28620  0.30911  0.99109  Biso   1.000  H
  C122     1.0000 0.28480  0.46853  0.97098  Biso   1.000  C
  S57      1.0000 0.49926  0.52692  0.99596  Biso   1.000  S
  H157     1.0000 0.45899  0.51230  0.94128  Biso   1.000  H
  H158     1.0000 0.49530  0.47220  0.92449  Biso   1.000  H
  C123     1.0000 0.26930  0.82228  0.98718  Biso   1.000  C
  C124     1.0000 0.49751  0.83171  0.97479  Biso   1.000  C
  H159     1.0000 0.26520  0.46158  0.95129  Biso   1.000  H
  H160     1.0000 0.30130  0.51797  0.95739  Biso   1.000  H
  S58      1.0000 0.27041  0.52620  0.02111  Biso   1.000  S
  C125     1.0000 0.46619  0.55144  0.03219  Biso   1.000  C
  H161     1.0000 0.25511  0.75791  0.98308  Biso   1.000  H
  C126     1.0000 0.24751  0.91278  0.00320  Biso   1.000  C
  H162     1.0000 0.28689  0.80543  0.00901  Biso   1.000  H
  H163     1.0000 0.51101  0.76621  0.96920  Biso   1.000  H
  H164     1.0000 0.48180  0.81693  0.99910  Biso   1.000  H
  C127     1.0000 0.52100  0.92204  0.98670  Biso   1.000  C
  C128     1.0000 0.30791  0.55855  0.04820  Biso   1.000  C
  S59      1.0000 0.42450  0.56853  0.01156  Biso   1.000  S
  C129     1.0000 0.47031  0.56821  0.07480  Biso   1.000  C
  H165     1.0000 0.22801  0.92188  0.98337  Biso   1.000  H
  H166     1.0000 0.23841  0.89385  0.03199  Biso   1.000  H
  S60      1.0000 0.27041  0.04089  0.00749  Biso   1.000  S
  H167     1.0000 0.53801  0.93115  0.96339  Biso   1.000  H
  H168     1.0000 0.53351  0.90248  0.01340  Biso   1.000  H
  S61      1.0000 0.49949  0.04912  0.99545  Biso   1.000  S
  S62      1.0000 0.34569  0.57939  0.01940  Biso   1.000  S
  C130     1.0000 0.30911  0.57604  0.09129  Biso   1.000  C
  C131     1.0000 0.40520  0.58970  0.06201  Biso   1.000  C
  S63      1.0000 0.43390  0.60248  0.10543  Biso   1.000  S
  S64      1.0000 0.50986  0.55727  0.10049  Biso   1.000  S
  C132     1.0000 0.30580  0.00511  0.03871  Biso   1.000  C
  C133     1.0000 0.46581  0.00791  0.02999  Biso   1.000  C
  C134     1.0000 0.37149  0.59337  0.06579  Biso   1.000  C
  S65      1.0000 0.27377  0.56238  0.12506  Biso   1.000  S
  S66      1.0000 0.34874  0.61414  0.11370  Biso   1.000  S
  C135     1.0000 0.51091  0.68091  0.13161  Biso   1.000  C
  S67      1.0000 0.34437  0.98450  0.01010  Biso   1.000  S
  C136     1.0000 0.30679  0.99121  0.08200  Biso   1.000  C
  S68      1.0000 0.42579  0.99129  0.00571  Biso   1.000  S
  C137     1.0000 0.46871  0.99129  0.07231  Biso   1.000  C
  C138     1.0000 0.27339  0.69081  0.15111  Biso   1.000  C
  C139     1.0000 0.51009  0.78059  0.10269  Biso   1.000  C
  H169     1.0000 0.49110  0.68259  0.15140  Biso   1.000  H
  H170     1.0000 0.53180  0.68235  0.14940  Biso   1.000  H
  C140     1.0000 0.36941  0.97069  0.05630  Biso   1.000  C
  S69      1.0000 0.34637  0.95559  0.10469  Biso   1.000  S
  S70      1.0000 0.27174  0.01078  0.11525  Biso   1.000  S
  C141     1.0000 0.40411  0.96853  0.05401  Biso   1.000  C
  S71      1.0000 0.43078  0.95495  0.09991  Biso   1.000  S
  S72      1.0000 0.50651  0.00495  0.10133  Biso   1.000  S
  H171     1.0000 0.25409  0.69201  0.17171  Biso   1.000  H
  H172     1.0000 0.29449  0.69760  0.16819  Biso   1.000  H
  C142     1.0000 0.27049  0.78762  0.12241  Biso   1.000  C
  C143     1.0000 0.50661  0.88115  0.13200  Biso   1.000  C
  H173     1.0000 0.49059  0.77652  0.08251  Biso   1.000  H
  H174     1.0000 0.53119  0.78514  0.08552  Biso   1.000  H
  C144     1.0000 0.27311  0.88810  0.14688  Biso   1.000  C
  H175     1.0000 0.28869  0.78538  0.10040  Biso   1.000  H
  H176     1.0000 0.24840  0.78562  0.10711  Biso   1.000  H
  H177     1.0000 0.52570  0.88251  0.15279  Biso   1.000  H
  H178     1.0000 0.48520  0.87588  0.14869  Biso   1.000  H
  H179     1.0000 0.29459  0.88698  0.16341  Biso   1.000  H
  H180     1.0000 0.25419  0.89018  0.16809  Biso   1.000  H
  S73      1.0000 0.39422  0.36038  0.60622  Biso   1.000  S
  C145     1.0000 0.37180  0.23882  0.61200  Biso   1.000  C
  C146     1.0000 0.39150  0.37404  0.54808  Biso   1.000  C
  C147     1.0000 0.33791  0.22468  0.60810  Biso   1.000  C
  S74      1.0000 0.39630  0.12716  0.62637  Biso   1.000  S
  C148     1.0000 0.40871  0.28842  0.52681  Biso   1.000  C
  H181     1.0000 0.36730  0.37460  0.53930  Biso   1.000  H
  H182     1.0000 0.40169  0.44281  0.53930  Biso   1.000  H
  S75      1.0000 0.30908  0.33019  0.60103  Biso   1.000  S
  S76      1.0000 0.32225  0.09561  0.61830  Biso   1.000  S
  C149     1.0000 0.36280  0.03490  0.62111  Biso   1.000  C
  O25      1.0000 0.39920  0.28610  0.47939  Biso   1.000  O
  H183     1.0000 0.40230  0.21973  0.54040  Biso   1.000  H
  H184     1.0000 0.43350  0.29784  0.52978  Biso   1.000  H
  C150     1.0000 0.27959  0.27444  0.56148  Biso   1.000  C
  C151     1.0000 0.36770  0.93043  0.61930  Biso   1.000  C
  C152     1.0000 0.41799  0.36102  0.45479  Biso   1.000  C
  C153     1.0000 0.29581  0.26853  0.51629  Biso   1.000  C
  H185     1.0000 0.27270  0.20192  0.57068  Biso   1.000  H
  H186     1.0000 0.25890  0.31941  0.56019  Biso   1.000  H
  S77      1.0000 0.33476  0.83450  0.61591  Biso   1.000  S
  S78      1.0000 0.40858  0.87204  0.62278  Biso   1.000  S
  C154     1.0000 0.42950  0.31110  0.41408  Biso   1.000  C
  H187     1.0000 0.43789  0.38570  0.47161  Biso   1.000  H
  H188     1.0000 0.40360  0.42380  0.44830  Biso   1.000  H
  O26      1.0000 0.29820  0.37188  0.49831  Biso   1.000  O
  H189     1.0000 0.31879  0.23674  0.51838  Biso   1.000  H
  H190     1.0000 0.28190  0.22236  0.49730  Biso   1.000  H
  C155     1.0000 0.36211  0.72684  0.60329  Biso   1.000  C
  C156     1.0000 0.39491  0.74241  0.60558  Biso   1.000  C
  O27      1.0000 0.45521  0.37540  0.39471  Biso   1.000  O
  H191     1.0000 0.43861  0.23898  0.42009  Biso   1.000  H
  H192     1.0000 0.41001  0.30367  0.39410  Biso   1.000  H
  C157     1.0000 0.31869  0.37971  0.45931  Biso   1.000  C
  S79      1.0000 0.34279  0.60120  0.59444  Biso   1.000  S
  S80      1.0000 0.42770  0.64768  0.60093  Biso   1.000  S
  C158     1.0000 0.46850  0.32548  0.35691  Biso   1.000  C
  C159     1.0000 0.30349  0.33530  0.42109  Biso   1.000  C
  H193     1.0000 0.32380  0.45599  0.45379  Biso   1.000  H
  H194     1.0000 0.34071  0.34297  0.46451  Biso   1.000  H
  C160     1.0000 0.31429  0.63179  0.54841  Biso   1.000  C
  C161     1.0000 0.45050  0.69784  0.55380  Biso   1.000  C
  C162     1.0000 0.49471  0.39673  0.33690  Biso   1.000  C
  H195     1.0000 0.44989  0.31222  0.33609  Biso   1.000  H
  H196     1.0000 0.47890  0.25591  0.36459  Biso   1.000  H
  O28      1.0000 0.27679  0.39832  0.40630  Biso   1.000  O
  H197     1.0000 0.32100  0.32931  0.39820  Biso   1.000  H
  H198     1.0000 0.29500  0.26262  0.42751  Biso   1.000  H
  C163     1.0000 0.33369  0.66550  0.51060  Biso   1.000  C
  H199     1.0000 0.30079  0.56757  0.54108  Biso   1.000  H
  H200     1.0000 0.29830  0.68930  0.55680  Biso   1.000  H
  C164     1.0000 0.43060  0.67740  0.51280  Biso   1.000  C
  H201     1.0000 0.45449  0.77540  0.55709  Biso   1.000  H
  H202     1.0000 0.47290  0.66214  0.55189  Biso   1.000  H
  S81      1.0000 0.48020  0.53107  0.32447  Biso   1.000  S
  H203     1.0000 0.50290  0.36302  0.30991  Biso   1.000  H
  H204     1.0000 0.51431  0.40184  0.35678  Biso   1.000  H
  C165     1.0000 0.26091  0.35264  0.36979  Biso   1.000  C
  O29      1.0000 0.31129  0.68490  0.47639  Biso   1.000  O
  H205     1.0000 0.34671  0.73123  0.51738  Biso   1.000  H
  H206     1.0000 0.35011  0.60895  0.50241  Biso   1.000  H
  O30      1.0000 0.44946  0.71302  0.47690  Biso   1.000  O
  H207     1.0000 0.42589  0.60008  0.50989  Biso   1.000  H
  H208     1.0000 0.40861  0.71573  0.51399  Biso   1.000  H
  C166     1.0000 0.44321  0.50327  0.29461  Biso   1.000  C
  C167     1.0000 0.23459  0.42620  0.35439  Biso   1.000  C
  H209     1.0000 0.25061  0.28307  0.37760  Biso   1.000  H
  H210     1.0000 0.27789  0.34010  0.34681  Biso   1.000  H
  C168     1.0000 0.33031  0.70799  0.43671  Biso   1.000  C
  C169     1.0000 0.43131  0.69665  0.43658  Biso   1.000  C
  S82      1.0000 0.40464  0.50208  0.32292  Biso   1.000  S
  C170     1.0000 0.44201  0.49089  0.25170  Biso   1.000  C
  S83      1.0000 0.24906  0.55982  0.34051  Biso   1.000  S
  H211     1.0000 0.21690  0.43243  0.37699  Biso   1.000  H
  H212     1.0000 0.22369  0.39441  0.32860  Biso   1.000  H
  C171     1.0000 0.30621  0.74409  0.40320  Biso   1.000  C
  H213     1.0000 0.34231  0.64313  0.42680  Biso   1.000  H
  H214     1.0000 0.34739  0.76438  0.44230  Biso   1.000  H
  C172     1.0000 0.45091  0.73818  0.40059  Biso   1.000  C
  H215     1.0000 0.40899  0.73331  0.43791  Biso   1.000  H
  H216     1.0000 0.42709  0.61941  0.43229  Biso   1.000  H
  C173     1.0000 0.37889  0.48634  0.27679  Biso   1.000  C
  S84      1.0000 0.40154  0.46901  0.22852  Biso   1.000  S
  S85      1.0000 0.47750  0.50479  0.21748  Biso   1.000  S
  C174     1.0000 0.28300  0.52867  0.30639  Biso   1.000  C
  O31      1.0000 0.29561  0.85040  0.41069  Biso   1.000  O
  H217     1.0000 0.31719  0.73938  0.37460  Biso   1.000  H
  H218     1.0000 0.28610  0.69649  0.40311  Biso   1.000  H
  O32      1.0000 0.45388  0.84784  0.40101  Biso   1.000  O
  H219     1.0000 0.47389  0.70623  0.40120  Biso   1.000  H
  H220     1.0000 0.43990  0.71613  0.37321  Biso   1.000  H
  C175     1.0000 0.34449  0.49473  0.27930  Biso   1.000  C
  C176     1.0000 0.47460  0.38291  0.18491  Biso   1.000  C
  C177     1.0000 0.27969  0.51118  0.26320  Biso   1.000  C
  S86      1.0000 0.32370  0.52005  0.32837  Biso   1.000  S
  C178     1.0000 0.27730  0.89002  0.37518  Biso   1.000  C
  C179     1.0000 0.46400  0.88874  0.36078  Biso   1.000  C
  S87      1.0000 0.31737  0.48179  0.23417  Biso   1.000  S
  C180     1.0000 0.47760  0.28091  0.21290  Biso   1.000  C
  H221     1.0000 0.45251  0.38211  0.16951  Biso   1.000  H
  H222     1.0000 0.49291  0.38307  0.16299  Biso   1.000  H
  S88      1.0000 0.24105  0.51853  0.23572  Biso   1.000  S
  C181     1.0000 0.26650  0.00264  0.38470  Biso   1.000  C
  H223     1.0000 0.25699  0.84505  0.36998  Biso   1.000  H
  H224     1.0000 0.29169  0.88842  0.34900  Biso   1.000  H
  C182     1.0000 0.47031  0.00663  0.36469  Biso   1.000  C
  H225     1.0000 0.44600  0.87540  0.33909  Biso   1.000  H
  H226     1.0000 0.48500  0.85240  0.35110  Biso   1.000  H
  C183     1.0000 0.47491  0.18730  0.18249  Biso   1.000  C
  H227     1.0000 0.49969  0.27963  0.22820  Biso   1.000  H
  H228     1.0000 0.45910  0.27859  0.23459  Biso   1.000  H
  C184     1.0000 0.24179  0.39329  0.20389  Biso   1.000  C
  S89      1.0000 0.24736  0.06701  0.33835  Biso   1.000  S
  H229     1.0000 0.28661  0.04433  0.39400  Biso   1.000  H
  H230     1.0000 0.25010  0.00224  0.40879  Biso   1.000  H
  S90      1.0000 0.48101  0.06717  0.31356  Biso   1.000  S
  H231     1.0000 0.48909  0.01877  0.38529  Biso   1.000  H
  H232     1.0000 0.44969  0.04137  0.37641  Biso   1.000  H
  S91      1.0000 0.47351  0.05799  0.20844  Biso   1.000  S
  H233     1.0000 0.49451  0.18890  0.16260  Biso   1.000  H
  H234     1.0000 0.45401  0.19593  0.16490  Biso   1.000  H
  C185     1.0000 0.23970  0.29513  0.23149  Biso   1.000  C
  H235     1.0000 0.22249  0.39369  0.18339  Biso   1.000  H
  H236     1.0000 0.26309  0.39081  0.18678  Biso   1.000  H
  C186     1.0000 0.28249  0.08291  0.30348  Biso   1.000  C
  C187     1.0000 0.44181  0.07388  0.28760  Biso   1.000  C
  C188     1.0000 0.43919  0.07788  0.24350  Biso   1.000  C
  C189     1.0000 0.23930  0.19696  0.20370  Biso   1.000  C
  H237     1.0000 0.21871  0.29768  0.24909  Biso   1.000  H
  H238     1.0000 0.25941  0.29249  0.25128  Biso   1.000  H
  C190     1.0000 0.27880  0.08674  0.26129  Biso   1.000  C
  S92      1.0000 0.32273  0.10511  0.32534  Biso   1.000  S
  S93      1.0000 0.40446  0.09800  0.31698  Biso   1.000  S
  S94      1.0000 0.39890  0.10447  0.22171  Biso   1.000  S
  S95      1.0000 0.24054  0.07165  0.23282  Biso   1.000  S
  H239     1.0000 0.25910  0.19992  0.18401  Biso   1.000  H
  H240     1.0000 0.21850  0.19832  0.18569  Biso   1.000  H
  S96      1.0000 0.31615  0.11318  0.23014  Biso   1.000  S
  C191     1.0000 0.34340  0.10687  0.27520  Biso   1.000  C
  C192     1.0000 0.37800  0.10272  0.27159  Biso   1.000  C
  C193     1.0000 0.25821  0.39329  0.70388  Biso   1.000  C
  C194     1.0000 0.26030  0.29513  0.73148  Biso   1.000  C
  S97      1.0000 0.25895  0.51853  0.73571  Biso   1.000  S
  H241     1.0000 0.27751  0.39369  0.68338  Biso   1.000  H
  H242     1.0000 0.23691  0.39081  0.68680  Biso   1.000  H
  C195     1.0000 0.26070  0.19696  0.70368  Biso   1.000  C
  H243     1.0000 0.28129  0.29768  0.74910  Biso   1.000  H
  H244     1.0000 0.24059  0.29249  0.75130  Biso   1.000  H
  C196     1.0000 0.22031  0.51118  0.76318  Biso   1.000  C
  S98      1.0000 0.25946  0.07165  0.73280  Biso   1.000  S
  H245     1.0000 0.24090  0.19992  0.68399  Biso   1.000  H
  H246     1.0000 0.28150  0.19832  0.68570  Biso   1.000  H
  S99      1.0000 0.18263  0.48179  0.73416  Biso   1.000  S
  C197     1.0000 0.21700  0.52867  0.80640  Biso   1.000  C
  C198     1.0000 0.22120  0.08674  0.76131  Biso   1.000  C
  C199     1.0000 0.15551  0.49473  0.77929  Biso   1.000  C
  S100     1.0000 0.25094  0.55982  0.84053  Biso   1.000  S
  S101     1.0000 0.17630  0.52005  0.82839  Biso   1.000  S
  S102     1.0000 0.18385  0.11318  0.73012  Biso   1.000  S
  C200     1.0000 0.21751  0.08291  0.80350  Biso   1.000  C
  C201     1.0000 0.12111  0.48634  0.77680  Biso   1.000  C
  C202     1.0000 0.26541  0.42620  0.85438  Biso   1.000  C
  C203     1.0000 0.15660  0.10687  0.77519  Biso   1.000  C
  S103     1.0000 0.25264  0.06701  0.83833  Biso   1.000  S
  S104     1.0000 0.17727  0.10511  0.82532  Biso   1.000  S
  S105     1.0000 0.09846  0.46901  0.72851  Biso   1.000  S
  S106     1.0000 0.09536  0.50208  0.82290  Biso   1.000  S
  H247     1.0000 0.28310  0.43243  0.87701  Biso   1.000  H
  H248     1.0000 0.27631  0.39441  0.82858  Biso   1.000  H
  C204     1.0000 0.23909  0.35264  0.86981  Biso   1.000  C
  C205     1.0000 0.12200  0.10272  0.77160  Biso   1.000  C
  C206     1.0000 0.23350  0.00264  0.88469  Biso   1.000  C
  C207     1.0000 0.05799  0.49089  0.75169  Biso   1.000  C
  C208     1.0000 0.05679  0.50327  0.79459  Biso   1.000  C
  O33      1.0000 0.22321  0.39832  0.90629  Biso   1.000  O
  H249     1.0000 0.24939  0.28307  0.87759  Biso   1.000  H
  H250     1.0000 0.22211  0.34010  0.84679  Biso   1.000  H
  S107     1.0000 0.10110  0.10447  0.72173  Biso   1.000  S
  S108     1.0000 0.09554  0.09800  0.81696  Biso   1.000  S
  H251     1.0000 0.21339  0.04433  0.89399  Biso   1.000  H
  H252     1.0000 0.24990  0.00224  0.90880  Biso   1.000  H
  C209     1.0000 0.22270  0.89002  0.87520  Biso   1.000  C
  S109     1.0000 0.02250  0.50479  0.71747  Biso   1.000  S
  S110     1.0000 0.01980  0.53107  0.82448  Biso   1.000  S
  C210     1.0000 0.19651  0.33530  0.92110  Biso   1.000  C
  C211     1.0000 0.06081  0.07788  0.74349  Biso   1.000  C
  C212     1.0000 0.05819  0.07388  0.78758  Biso   1.000  C
  O34      1.0000 0.20439  0.85040  0.91068  Biso   1.000  O
  H253     1.0000 0.24301  0.84505  0.87000  Biso   1.000  H
  H254     1.0000 0.20831  0.88842  0.84898  Biso   1.000  H
  C213     1.0000 0.02540  0.38291  0.68490  Biso   1.000  C
  C214     1.0000 0.00529  0.39673  0.83688  Biso   1.000  C
  H255     1.0000 0.17900  0.32931  0.89818  Biso   1.000  H
  H256     1.0000 0.20500  0.26262  0.92749  Biso   1.000  H
  C215     1.0000 0.18131  0.37971  0.95929  Biso   1.000  C
  S111     1.0000 0.02649  0.05799  0.70843  Biso   1.000  S
  S112     1.0000 0.01899  0.06717  0.81354  Biso   1.000  S
  C216     1.0000 0.19379  0.74409  0.90319  Biso   1.000  C
  C217     1.0000 0.02240  0.28091  0.71288  Biso   1.000  C
  H257     1.0000 0.04749  0.38211  0.66950  Biso   1.000  H
  H258     1.0000 0.00709  0.38307  0.66301  Biso   1.000  H
  C218     1.0000 0.03150  0.32548  0.85689  Biso   1.000  C
  H259     1.0000 0.99710  0.36302  0.80989  Biso   1.000  H
  H260     1.0000 0.98569  0.40184  0.85680  Biso   1.000  H
  O35      1.0000 0.20180  0.37188  0.99829  Biso   1.000  O
  H261     1.0000 0.17620  0.45599  0.95380  Biso   1.000  H
  H262     1.0000 0.15929  0.34297  0.96449  Biso   1.000  H
  C219     1.0000 0.02509  0.18730  0.68251  Biso   1.000  C
  C220     1.0000 0.02969  0.00663  0.86471  Biso   1.000  C
  C221     1.0000 0.16969  0.70799  0.93669  Biso   1.000  C
  H263     1.0000 0.18281  0.73938  0.87458  Biso   1.000  H
  H264     1.0000 0.21390  0.69649  0.90309  Biso   1.000  H
  H265     1.0000 0.00031  0.27963  0.72819  Biso   1.000  H
  H266     1.0000 0.04090  0.27859  0.73458  Biso   1.000  H
  O36      1.0000 0.04479  0.37540  0.89470  Biso   1.000  O
  H267     1.0000 0.05011  0.31222  0.83610  Biso   1.000  H
  H268     1.0000 0.02110  0.25591  0.86458  Biso   1.000  H
  C222     1.0000 0.20419  0.26853  0.01630  Biso   1.000  C
  H269     1.0000 0.00549  0.18890  0.66259  Biso   1.000  H
  H270     1.0000 0.04599  0.19593  0.66488  Biso   1.000  H
  H271     1.0000 0.01091  0.01877  0.88530  Biso   1.000  H
  H272     1.0000 0.05031  0.04137  0.87639  Biso   1.000  H
  C223     1.0000 0.03600  0.88874  0.86080  Biso   1.000  C
  O37      1.0000 0.18871  0.68490  0.97640  Biso   1.000  O
  H273     1.0000 0.15769  0.64313  0.92678  Biso   1.000  H
  H274     1.0000 0.15261  0.76438  0.94228  Biso   1.000  H
  C224     1.0000 0.07050  0.31110  0.91410  Biso   1.000  C
  H275     1.0000 0.21810  0.22236  0.99729  Biso   1.000  H
  H276     1.0000 0.18121  0.23674  0.01840  Biso   1.000  H
  C225     1.0000 0.22041  0.27444  0.06150  Biso   1.000  C
  O38      1.0000 0.04612  0.84784  0.90099  Biso   1.000  O
  H277     1.0000 0.05400  0.87540  0.83911  Biso   1.000  H
  H278     1.0000 0.01500  0.85240  0.85108  Biso   1.000  H
  C226     1.0000 0.16631  0.66550  0.01059  Biso   1.000  C
  C227     1.0000 0.08201  0.36102  0.95481  Biso   1.000  C
  H279     1.0000 0.06139  0.23898  0.92010  Biso   1.000  H
  H280     1.0000 0.08999  0.30367  0.89408  Biso   1.000  H
  S113     1.0000 0.19092  0.33019  0.10104  Biso   1.000  S
  H281     1.0000 0.22730  0.20192  0.07070  Biso   1.000  H
  H282     1.0000 0.24110  0.31941  0.06021  Biso   1.000  H
  C228     1.0000 0.04909  0.73818  0.90060  Biso   1.000  C
  C229     1.0000 0.18571  0.63179  0.04839  Biso   1.000  C
  H283     1.0000 0.15329  0.73123  0.01740  Biso   1.000  H
  H284     1.0000 0.14989  0.60895  0.00239  Biso   1.000  H
  O39      1.0000 0.10080  0.28610  0.97940  Biso   1.000  O
  H285     1.0000 0.06211  0.38570  0.97159  Biso   1.000  H
  H286     1.0000 0.09640  0.42380  0.94828  Biso   1.000  H
  C230     1.0000 0.16209  0.22468  0.10811  Biso   1.000  C
  H287     1.0000 0.02611  0.70623  0.90118  Biso   1.000  H
  H288     1.0000 0.06010  0.71613  0.87320  Biso   1.000  H
  C231     1.0000 0.06869  0.69665  0.93660  Biso   1.000  C
  S114     1.0000 0.15721  0.60120  0.09442  Biso   1.000  S
  H289     1.0000 0.19921  0.56757  0.04110  Biso   1.000  H
  H290     1.0000 0.20170  0.68930  0.05678  Biso   1.000  H
  C232     1.0000 0.09129  0.28842  0.02679  Biso   1.000  C
  S115     1.0000 0.17775  0.09561  0.11831  Biso   1.000  S
  C233     1.0000 0.12820  0.23882  0.11199  Biso   1.000  C
  O40      1.0000 0.05054  0.71302  0.97689  Biso   1.000  O
  H291     1.0000 0.09101  0.73331  0.93789  Biso   1.000  H
  H292     1.0000 0.07291  0.61941  0.93230  Biso   1.000  H
  C234     1.0000 0.13789  0.72684  0.10330  Biso   1.000  C
  C235     1.0000 0.10850  0.37404  0.04810  Biso   1.000  C
  H293     1.0000 0.09770  0.21973  0.04038  Biso   1.000  H
  H294     1.0000 0.06650  0.29784  0.02980  Biso   1.000  H
  C236     1.0000 0.13720  0.03490  0.12109  Biso   1.000  C
  S116     1.0000 0.10370  0.12716  0.12638  Biso   1.000  S
  S117     1.0000 0.10578  0.36038  0.10624  Biso   1.000  S
  C237     1.0000 0.06940  0.67740  0.01282  Biso   1.000  C
  S118     1.0000 0.16524  0.83450  0.11589  Biso   1.000  S
  C238     1.0000 0.10509  0.74241  0.10559  Biso   1.000  C
  H295     1.0000 0.13270  0.37460  0.03929  Biso   1.000  H
  H296     1.0000 0.09831  0.44281  0.03929  Biso   1.000  H
  C239     1.0000 0.13230  0.93043  0.11931  Biso   1.000  C
  H297     1.0000 0.07411  0.60008  0.00991  Biso   1.000  H
  H298     1.0000 0.09139  0.71573  0.01401  Biso   1.000  H
  C240     1.0000 0.04950  0.69784  0.05381  Biso   1.000  C
  S119     1.0000 0.09142  0.87204  0.12277  Biso   1.000  S
  S120     1.0000 0.07230  0.64768  0.10095  Biso   1.000  S
  H299     1.0000 0.04551  0.77540  0.05711  Biso   1.000  H
  H300     1.0000 0.02710  0.66214  0.05191  Biso   1.000  H
  S121     1.0000 0.22623  0.56238  0.62504  Biso   1.000  S
  C241     1.0000 0.19089  0.57604  0.59131  Biso   1.000  C
  C242     1.0000 0.22661  0.69081  0.65110  Biso   1.000  C
  C243     1.0000 0.19209  0.55855  0.54818  Biso   1.000  C
  S122     1.0000 0.15126  0.61414  0.61368  Biso   1.000  S
  H301     1.0000 0.24591  0.69201  0.67169  Biso   1.000  H
  H302     1.0000 0.20551  0.69760  0.66821  Biso   1.000  H
  C244     1.0000 0.22951  0.78762  0.62240  Biso   1.000  C
  S123     1.0000 0.22959  0.52620  0.52113  Biso   1.000  S
  S124     1.0000 0.15431  0.57939  0.51939  Biso   1.000  S
  C245     1.0000 0.12851  0.59337  0.56581  Biso   1.000  C
  H303     1.0000 0.21131  0.78538  0.60038  Biso   1.000  H
  H304     1.0000 0.25160  0.78562  0.60710  Biso   1.000  H
  C246     1.0000 0.22689  0.88810  0.64690  Biso   1.000  C
  C247     1.0000 0.21520  0.46853  0.47099  Biso   1.000  C
  C248     1.0000 0.09480  0.58970  0.56200  Biso   1.000  C
  H305     1.0000 0.20541  0.88698  0.66340  Biso   1.000  H
  H306     1.0000 0.24581  0.89018  0.66811  Biso   1.000  H
  S125     1.0000 0.22826  0.01078  0.61526  Biso   1.000  S
  C249     1.0000 0.19839  0.35919  0.47600  Biso   1.000  C
  H307     1.0000 0.23480  0.46158  0.45130  Biso   1.000  H
  H308     1.0000 0.19870  0.51797  0.45740  Biso   1.000  H
  S126     1.0000 0.06610  0.60248  0.60545  Biso   1.000  S
  S127     1.0000 0.07550  0.56853  0.51154  Biso   1.000  S
  C250     1.0000 0.19321  0.99121  0.58198  Biso   1.000  C
  O41      1.0000 0.19153  0.32260  0.43348  Biso   1.000  O
  H309     1.0000 0.17709  0.36518  0.49278  Biso   1.000  H
  H310     1.0000 0.21380  0.30911  0.49111  Biso   1.000  H
  C251     1.0000 0.02969  0.56821  0.57478  Biso   1.000  C
  C252     1.0000 0.03381  0.55144  0.53220  Biso   1.000  C
  S128     1.0000 0.15363  0.95559  0.60471  Biso   1.000  S
  C253     1.0000 0.19420  0.00511  0.53869  Biso   1.000  C
  C254     1.0000 0.16781  0.23562  0.43310  Biso   1.000  C
  S129     1.0000 0.99014  0.55727  0.60048  Biso   1.000  S
  S130     1.0000 0.00074  0.52692  0.49595  Biso   1.000  S
  C255     1.0000 0.13059  0.97069  0.55628  Biso   1.000  C
  S131     1.0000 0.15563  0.98450  0.51009  Biso   1.000  S
  S132     1.0000 0.22959  0.04089  0.50747  Biso   1.000  S
  C256     1.0000 0.16710  0.19050  0.38761  Biso   1.000  C
  H311     1.0000 0.17490  0.17979  0.45389  Biso   1.000  H
  H312     1.0000 0.14491  0.26110  0.44139  Biso   1.000  H
  C257     1.0000 0.98909  0.68091  0.63160  Biso   1.000  C
  C258     1.0000 0.02080  0.46893  0.44901  Biso   1.000  C
  C259     1.0000 0.09589  0.96853  0.55399  Biso   1.000  C
  C260     1.0000 0.25249  0.91278  0.50318  Biso   1.000  C
  O42      1.0000 0.15350  0.26558  0.35839  Biso   1.000  O
  H313     1.0000 0.15309  0.12468  0.38709  Biso   1.000  H
  H314     1.0000 0.19051  0.17141  0.37860  Biso   1.000  H
  H315     1.0000 0.00890  0.68259  0.65139  Biso   1.000  H
  C261     1.0000 0.98991  0.78059  0.60271  Biso   1.000  C
  H316     1.0000 0.96820  0.68235  0.64939  Biso   1.000  H
  C262     1.0000 0.03180  0.35423  0.45540  Biso   1.000  C
  H317     1.0000 0.04101  0.51230  0.44130  Biso   1.000  H
  H318     1.0000 0.00470  0.47220  0.42451  Biso   1.000  H
  S133     1.0000 0.06922  0.95495  0.59990  Biso   1.000  S
  S134     1.0000 0.07421  0.99129  0.50573  Biso   1.000  S
  C263     1.0000 0.23070  0.82228  0.48720  Biso   1.000  C
  H319     1.0000 0.26159  0.89385  0.53201  Biso   1.000  H
  H320     1.0000 0.27199  0.92188  0.48339  Biso   1.000  H
  C264     1.0000 0.16321  0.24768  0.31420  Biso   1.000  C
  H321     1.0000 0.00941  0.77652  0.58250  Biso   1.000  H
  C265     1.0000 0.99339  0.88115  0.63199  Biso   1.000  C
  H322     1.0000 0.96881  0.78514  0.58550  Biso   1.000  H
  O43      1.0000 0.04535  0.31661  0.41570  Biso   1.000  O
  H323     1.0000 0.01210  0.30990  0.46409  Biso   1.000  H
  H324     1.0000 0.04929  0.35000  0.47839  Biso   1.000  H
  C266     1.0000 0.03129  0.99129  0.57230  Biso   1.000  C
  C267     1.0000 0.03419  0.00791  0.53001  Biso   1.000  C
  O44      1.0000 0.21507  0.84960  0.44811  Biso   1.000  O
  H325     1.0000 0.21311  0.80543  0.50899  Biso   1.000  H
  H326     1.0000 0.24489  0.75791  0.48310  Biso   1.000  H
  C268     1.0000 0.14290  0.16038  0.29241  Biso   1.000  C
  H327     1.0000 0.16021  0.31502  0.29790  Biso   1.000  H
  H328     1.0000 0.18759  0.22859  0.31320  Biso   1.000  H
  H329     1.0000 0.01480  0.87588  0.64871  Biso   1.000  H
  H330     1.0000 0.97430  0.88251  0.65281  Biso   1.000  H
  S135     1.0000 0.99349  0.00495  0.60135  Biso   1.000  S
  C269     1.0000 0.05181  0.20559  0.41699  Biso   1.000  C
  S136     1.0000 0.00051  0.04912  0.49546  Biso   1.000  S
  C270     1.0000 0.19270  0.77061  0.43429  Biso   1.000  C
  S137     1.0000 0.14574  0.16813  0.23421  Biso   1.000  S
  H331     1.0000 0.15139  0.08994  0.30219  Biso   1.000  H
  H332     1.0000 0.11870  0.16629  0.30119  Biso   1.000  H
  C271     1.0000 0.07200  0.17013  0.37818  Biso   1.000  C
  H333     1.0000 0.06450  0.18810  0.44368  Biso   1.000  H
  H334     1.0000 0.02990  0.16653  0.41779  Biso   1.000  H
  C272     1.0000 0.97900  0.92204  0.48668  Biso   1.000  C
  C273     1.0000 0.17361  0.81254  0.39529  Biso   1.000  C
  H335     1.0000 0.20551  0.70519  0.42638  Biso   1.000  H
  H336     1.0000 0.17661  0.75248  0.45769  Biso   1.000  H
  C274     1.0000 0.12261  0.28810  0.22601  Biso   1.000  C
  O45      1.0000 0.05331  0.16238  0.33919  Biso   1.000  O
  H337     1.0000 0.08209  0.09944  0.38461  Biso   1.000  H
  H338     1.0000 0.09091  0.22101  0.37379  Biso   1.000  H
  C275     1.0000 0.00249  0.83171  0.47480  Biso   1.000  C
  H339     1.0000 0.96199  0.93115  0.46341  Biso   1.000  H
  H340     1.0000 0.96649  0.90248  0.51338  Biso   1.000  H
  O46      1.0000 0.19537  0.81022  0.35801  Biso   1.000  O
  H341     1.0000 0.16590  0.88650  0.40078  Biso   1.000  H
  H342     1.0000 0.15329  0.76781  0.39000  Biso   1.000  H
  S138     1.0000 0.14727  0.40048  0.21138  Biso   1.000  S
  C276     1.0000 0.08910  0.30064  0.22830  Biso   1.000  C
  C277     1.0000 0.04701  0.26613  0.32059  Biso   1.000  C
  O47      1.0000 0.02130  0.85958  0.43739  Biso   1.000  O
  H343     1.0000 0.01820  0.81693  0.49908  Biso   1.000  H
  H344     1.0000 0.98899  0.76621  0.46919  Biso   1.000  H
  C278     1.0000 0.17849  0.84720  0.32101  Biso   1.000  C
  C279     1.0000 0.11379  0.49113  0.21600  Biso   1.000  C
  S139     1.0000 0.07291  0.43027  0.21852  Biso   1.000  S
  S140     1.0000 0.06061  0.19449  0.23530  Biso   1.000  S
  C280     1.0000 0.03129  0.24792  0.27530  Biso   1.000  C
  H345     1.0000 0.03109  0.30711  0.33899  Biso   1.000  H
  H346     1.0000 0.06851  0.30671  0.31811  Biso   1.000  H
  C281     1.0000 0.04479  0.77628  0.42670  Biso   1.000  C
  C282     1.0000 0.20081  0.82931  0.28050  Biso   1.000  C
  H347     1.0000 0.15670  0.80863  0.31769  Biso   1.000  H
  H348     1.0000 0.17340  0.92420  0.32421  Biso   1.000  H
  C283     1.0000 0.11829  0.59784  0.21681  Biso   1.000  C
  H349     1.0000 0.01190  0.19824  0.27821  Biso   1.000  H
  H350     1.0000 0.02230  0.31677  0.26458  Biso   1.000  H
  C284     1.0000 0.07090  0.82021  0.39620  Biso   1.000  C
  H351     1.0000 0.05600  0.74944  0.45321  Biso   1.000  H
  H352     1.0000 0.03259  0.71613  0.41289  Biso   1.000  H
  S141     1.0000 0.17895  0.87804  0.23346  Biso   1.000  S
  H353     1.0000 0.22270  0.86749  0.28389  Biso   1.000  H
  H354     1.0000 0.20569  0.75224  0.27711  Biso   1.000  H
  S142     1.0000 0.15914  0.65359  0.21235  Biso   1.000  S
  S143     1.0000 0.08555  0.69313  0.22045  Biso   1.000  S
  O48      1.0000 0.05550  0.84401  0.35539  Biso   1.000  O
  H355     1.0000 0.08941  0.76733  0.39210  Biso   1.000  H
  H356     1.0000 0.08099  0.88602  0.40850  Biso   1.000  H
  C285     1.0000 0.14681  0.78211  0.22859  Biso   1.000  C
  C286     1.0000 0.11320  0.80152  0.23178  Biso   1.000  C
  C287     1.0000 0.08089  0.86741  0.32469  Biso   1.000  C
  S144     1.0000 0.09493  0.92740  0.24079  Biso   1.000  S
  C288     1.0000 0.06419  0.89888  0.28250  Biso   1.000  C
  H357     1.0000 0.09541  0.92652  0.33518  Biso   1.000  H
  H358     1.0000 0.09551  0.80391  0.32021  Biso   1.000  H
  H359     1.0000 0.04919  0.84034  0.27278  Biso   1.000  H
  H360     1.0000 0.04990  0.96294  0.28731  Biso   1.000  H
  C289     1.0000 0.77959  0.72564  0.56148  Biso   1.000  C
  C290     1.0000 0.79581  0.73155  0.51629  Biso   1.000  C
  S145     1.0000 0.80908  0.66981  0.60103  Biso   1.000  S
  H361     1.0000 0.77270  0.79808  0.57068  Biso   1.000  H
  H362     1.0000 0.75890  0.68059  0.56019  Biso   1.000  H
  O49      1.0000 0.79820  0.62812  0.49831  Biso   1.000  O
  H363     1.0000 0.81879  0.76334  0.51838  Biso   1.000  H
  H364     1.0000 0.78190  0.77764  0.49730  Biso   1.000  H
  C291     1.0000 0.83791  0.77532  0.60810  Biso   1.000  C
  C292     1.0000 0.81869  0.62029  0.45931  Biso   1.000  C
  S146     1.0000 0.82225  0.90447  0.61830  Biso   1.000  S
  C293     1.0000 0.87180  0.76118  0.61200  Biso   1.000  C
  C294     1.0000 0.80349  0.66470  0.42109  Biso   1.000  C
  H365     1.0000 0.82380  0.54401  0.45379  Biso   1.000  H
  H366     1.0000 0.84071  0.65703  0.46451  Biso   1.000  H
  C295     1.0000 0.86280  0.96510  0.62111  Biso   1.000  C
  S147     1.0000 0.89422  0.63962  0.60622  Biso   1.000  S
  S148     1.0000 0.89630  0.87284  0.62637  Biso   1.000  S
  O50      1.0000 0.77679  0.60168  0.40630  Biso   1.000  O
  H367     1.0000 0.82100  0.67069  0.39820  Biso   1.000  H
  H368     1.0000 0.79500  0.73738  0.42751  Biso   1.000  H
  C296     1.0000 0.86770  0.06957  0.61930  Biso   1.000  C
  C297     1.0000 0.89150  0.62604  0.54808  Biso   1.000  C
  C298     1.0000 0.76091  0.64744  0.36979  Biso   1.000  C
  S149     1.0000 0.90858  0.12804  0.62278  Biso   1.000  S
  S150     1.0000 0.83476  0.16550  0.61591  Biso   1.000  S
  C299     1.0000 0.90871  0.71158  0.52681  Biso   1.000  C
  H369     1.0000 0.86730  0.62540  0.53930  Biso   1.000  H
  H370     1.0000 0.90169  0.55719  0.53930  Biso   1.000  H
  C300     1.0000 0.73459  0.57380  0.35439  Biso   1.000  C
  H371     1.0000 0.75061  0.71693  0.37760  Biso   1.000  H
  H372     1.0000 0.77789  0.65990  0.34681  Biso   1.000  H
  C301     1.0000 0.89491  0.25759  0.60558  Biso   1.000  C
  C302     1.0000 0.86211  0.27324  0.60329  Biso   1.000  C
  O51      1.0000 0.89920  0.71390  0.47939  Biso   1.000  O
  H373     1.0000 0.90230  0.78035  0.54040  Biso   1.000  H
  H374     1.0000 0.93350  0.70224  0.52978  Biso   1.000  H
  S151     1.0000 0.74906  0.44018  0.34051  Biso   1.000  S
  H375     1.0000 0.71690  0.56757  0.37699  Biso   1.000  H
  H376     1.0000 0.72369  0.60559  0.32860  Biso   1.000  H
  S152     1.0000 0.92770  0.35232  0.60093  Biso   1.000  S
  S153     1.0000 0.84279  0.39888  0.59444  Biso   1.000  S
  C303     1.0000 0.91799  0.63898  0.45479  Biso   1.000  C
  C304     1.0000 0.78300  0.47133  0.30639  Biso   1.000  C
  C305     1.0000 0.95050  0.30224  0.55380  Biso   1.000  C
  C306     1.0000 0.81429  0.36821  0.54841  Biso   1.000  C
  C307     1.0000 0.92950  0.68890  0.41408  Biso   1.000  C
  H377     1.0000 0.93789  0.61430  0.47161  Biso   1.000  H
  H378     1.0000 0.90360  0.57620  0.44830  Biso   1.000  H
  C308     1.0000 0.77969  0.48882  0.26320  Biso   1.000  C
  S154     1.0000 0.82370  0.48003  0.32837  Biso   1.000  S
  C309     1.0000 0.93060  0.32260  0.51280  Biso   1.000  C
  H379     1.0000 0.95449  0.22460  0.55709  Biso   1.000  H
  H380     1.0000 0.97290  0.33794  0.55189  Biso   1.000  H
  C310     1.0000 0.83369  0.33450  0.51060  Biso   1.000  C
  H381     1.0000 0.80079  0.43243  0.54108  Biso   1.000  H
  H382     1.0000 0.79830  0.31070  0.55680  Biso   1.000  H
  O52      1.0000 0.95521  0.62460  0.39471  Biso   1.000  O
  H383     1.0000 0.93861  0.76102  0.42009  Biso   1.000  H
  H384     1.0000 0.91001  0.69633  0.39410  Biso   1.000  H
  S155     1.0000 0.74105  0.48147  0.23572  Biso   1.000  S
  S156     1.0000 0.81737  0.51821  0.23417  Biso   1.000  S
  C311     1.0000 0.84449  0.50527  0.27930  Biso   1.000  C
  O53      1.0000 0.94946  0.28698  0.47690  Biso   1.000  O
  H385     1.0000 0.92589  0.39992  0.50989  Biso   1.000  H
  H386     1.0000 0.90861  0.28427  0.51399  Biso   1.000  H
  O54      1.0000 0.81129  0.31510  0.47639  Biso   1.000  O
  H387     1.0000 0.84671  0.26877  0.51738  Biso   1.000  H
  H388     1.0000 0.85011  0.39113  0.50241  Biso   1.000  H
  C312     1.0000 0.96850  0.67452  0.35691  Biso   1.000  C
  C313     1.0000 0.74179  0.60671  0.20389  Biso   1.000  C
  C314     1.0000 0.87889  0.51374  0.27679  Biso   1.000  C
  C315     1.0000 0.93131  0.30343  0.43658  Biso   1.000  C
  C316     1.0000 0.83031  0.29201  0.43671  Biso   1.000  C
  C317     1.0000 0.99471  0.60327  0.33690  Biso   1.000  C
  H389     1.0000 0.94989  0.68778  0.33609  Biso   1.000  H
  H390     1.0000 0.97890  0.74409  0.36459  Biso   1.000  H
  C318     1.0000 0.73970  0.70487  0.23149  Biso   1.000  C
  H391     1.0000 0.72249  0.60631  0.18339  Biso   1.000  H
  H392     1.0000 0.76309  0.60919  0.18678  Biso   1.000  H
  S157     1.0000 0.90154  0.53099  0.22852  Biso   1.000  S
  S158     1.0000 0.90464  0.49792  0.32292  Biso   1.000  S
  C319     1.0000 0.95091  0.26182  0.40059  Biso   1.000  C
  H393     1.0000 0.90899  0.26669  0.43791  Biso   1.000  H
  H394     1.0000 0.92709  0.38059  0.43229  Biso   1.000  H
  C320     1.0000 0.80621  0.25591  0.40320  Biso   1.000  C
  H395     1.0000 0.84231  0.35687  0.42680  Biso   1.000  H
  H396     1.0000 0.84739  0.23562  0.44230  Biso   1.000  H
  S159     1.0000 0.98020  0.46893  0.32447  Biso   1.000  S
  H397     1.0000 0.00290  0.63698  0.30991  Biso   1.000  H
  H398     1.0000 0.01431  0.59824  0.35678  Biso   1.000  H
  C321     1.0000 0.73930  0.80304  0.20370  Biso   1.000  C
  H399     1.0000 0.71871  0.70232  0.24909  Biso   1.000  H
  H400     1.0000 0.75941  0.70751  0.25128  Biso   1.000  H
  C322     1.0000 0.94201  0.50911  0.25170  Biso   1.000  C
  C323     1.0000 0.94321  0.49673  0.29461  Biso   1.000  C
  O55      1.0000 0.95388  0.15224  0.40101  Biso   1.000  O
  H401     1.0000 0.97389  0.29377  0.40120  Biso   1.000  H
  H402     1.0000 0.93990  0.28387  0.37321  Biso   1.000  H
  O56      1.0000 0.79561  0.14960  0.41069  Biso   1.000  O
  H403     1.0000 0.81719  0.26062  0.37460  Biso   1.000  H
  H404     1.0000 0.78610  0.30351  0.40311  Biso   1.000  H
  S160     1.0000 0.74054  0.92835  0.23282  Biso   1.000  S
  H405     1.0000 0.75910  0.80008  0.18401  Biso   1.000  H
  H406     1.0000 0.71850  0.80168  0.18569  Biso   1.000  H
  S161     1.0000 0.97750  0.49521  0.21748  Biso   1.000  S
  C324     1.0000 0.96400  0.11126  0.36078  Biso   1.000  C
  C325     1.0000 0.77730  0.10998  0.37518  Biso   1.000  C
  C326     1.0000 0.77880  0.91334  0.26129  Biso   1.000  C
  C327     1.0000 0.97460  0.61709  0.18491  Biso   1.000  C
  C328     1.0000 0.97031  0.99345  0.36469  Biso   1.000  C
  H407     1.0000 0.94600  0.12460  0.33909  Biso   1.000  H
  H408     1.0000 0.98500  0.14760  0.35110  Biso   1.000  H
  C329     1.0000 0.76650  0.99744  0.38470  Biso   1.000  C
  H409     1.0000 0.75699  0.15503  0.36998  Biso   1.000  H
  H410     1.0000 0.79169  0.11158  0.34900  Biso   1.000  H
  S162     1.0000 0.81615  0.88682  0.23014  Biso   1.000  S
  C330     1.0000 0.78249  0.91709  0.30348  Biso   1.000  C
  H411     1.0000 0.95251  0.61789  0.16951  Biso   1.000  H
  H412     1.0000 0.99291  0.61693  0.16299  Biso   1.000  H
  C331     1.0000 0.97760  0.71909  0.21290  Biso   1.000  C
  S163     1.0000 0.98101  0.93283  0.31356  Biso   1.000  S
  H413     1.0000 0.98909  0.98123  0.38529  Biso   1.000  H
  H414     1.0000 0.94969  0.95863  0.37641  Biso   1.000  H
  S164     1.0000 0.74736  0.93299  0.33835  Biso   1.000  S
  H415     1.0000 0.78661  0.95575  0.39400  Biso   1.000  H
  H416     1.0000 0.75010  0.99784  0.40879  Biso   1.000  H
  C332     1.0000 0.84340  0.89313  0.27520  Biso   1.000  C
  S165     1.0000 0.82273  0.89489  0.32534  Biso   1.000  S
  H417     1.0000 0.99969  0.72045  0.22820  Biso   1.000  H
  H418     1.0000 0.95910  0.72141  0.23459  Biso   1.000  H
  C333     1.0000 0.97491  0.81270  0.18249  Biso   1.000  C
  C334     1.0000 0.94181  0.92612  0.28760  Biso   1.000  C
  C335     1.0000 0.87800  0.89728  0.27159  Biso   1.000  C
  S166     1.0000 0.97351  0.94201  0.20844  Biso   1.000  S
  H419     1.0000 0.99451  0.81110  0.16260  Biso   1.000  H
  H420     1.0000 0.95401  0.80407  0.16490  Biso   1.000  H
  S167     1.0000 0.90446  0.90200  0.31698  Biso   1.000  S
  C336     1.0000 0.93919  0.92212  0.24350  Biso   1.000  C
  S168     1.0000 0.89890  0.89553  0.22171  Biso   1.000  S
  C337     1.0000 0.79919  0.17069  0.78048  Biso   1.000  C
  S169     1.0000 0.82105  0.12196  0.73345  Biso   1.000  S
  C338     1.0000 0.82151  0.15280  0.82100  Biso   1.000  C
  H421     1.0000 0.77730  0.13251  0.78390  Biso   1.000  H
  H422     1.0000 0.79431  0.24784  0.77709  Biso   1.000  H
  C339     1.0000 0.85319  0.21789  0.72861  Biso   1.000  C
  O57      1.0000 0.80463  0.18978  0.85799  Biso   1.000  O
  H423     1.0000 0.84330  0.19137  0.81770  Biso   1.000  H
  H424     1.0000 0.82660  0.07580  0.82419  Biso   1.000  H
  S170     1.0000 0.84086  0.34641  0.71233  Biso   1.000  S
  C340     1.0000 0.88680  0.19848  0.73180  Biso   1.000  C
  C341     1.0000 0.82639  0.18754  0.89528  Biso   1.000  C
  C342     1.0000 0.88171  0.40224  0.71679  Biso   1.000  C
  S171     1.0000 0.90507  0.07260  0.74081  Biso   1.000  S
  S172     1.0000 0.91445  0.30687  0.72044  Biso   1.000  S
  C343     1.0000 0.80730  0.22939  0.93431  Biso   1.000  C
  H425     1.0000 0.83410  0.11350  0.90080  Biso   1.000  H
  H426     1.0000 0.84671  0.23219  0.88998  Biso   1.000  H
  C344     1.0000 0.88621  0.50895  0.71598  Biso   1.000  C
  C345     1.0000 0.93581  0.10112  0.78248  Biso   1.000  C
  O58      1.0000 0.78493  0.15040  0.94809  Biso   1.000  O
  H427     1.0000 0.79449  0.29481  0.92640  Biso   1.000  H
  H428     1.0000 0.82339  0.24752  0.95768  Biso   1.000  H
  S173     1.0000 0.85273  0.59952  0.71140  Biso   1.000  S
  S174     1.0000 0.92709  0.56973  0.71850  Biso   1.000  S
  H429     1.0000 0.95081  0.15966  0.77280  Biso   1.000  H
  H430     1.0000 0.95010  0.03706  0.78729  Biso   1.000  H
  C346     1.0000 0.91911  0.13259  0.82468  Biso   1.000  C
  C347     1.0000 0.76930  0.17772  0.98718  Biso   1.000  C
  C348     1.0000 0.87739  0.71190  0.72599  Biso   1.000  C
  C349     1.0000 0.91090  0.69944  0.72828  Biso   1.000  C
  O59      1.0000 0.94450  0.15599  0.85538  Biso   1.000  O
  H431     1.0000 0.90459  0.07348  0.83520  Biso   1.000  H
  H432     1.0000 0.90449  0.19609  0.82019  Biso   1.000  H
  H433     1.0000 0.75511  0.24209  0.98308  Biso   1.000  H
  C350     1.0000 0.74751  0.08722  0.00320  Biso   1.000  C
  H434     1.0000 0.78689  0.19457  0.00901  Biso   1.000  H
  S175     1.0000 0.85426  0.83187  0.73419  Biso   1.000  S
  S176     1.0000 0.93939  0.80551  0.73529  Biso   1.000  S
  C351     1.0000 0.92910  0.17979  0.89618  Biso   1.000  C
  H435     1.0000 0.72801  0.07812  0.98337  Biso   1.000  H
  S177     1.0000 0.77041  0.95911  0.00749  Biso   1.000  S
  H436     1.0000 0.73841  0.10623  0.03199  Biso   1.000  H
  C352     1.0000 0.85710  0.83962  0.79239  Biso   1.000  C
  C353     1.0000 0.96871  0.75208  0.77528  Biso   1.000  C
  H437     1.0000 0.91059  0.23267  0.89208  Biso   1.000  H
  H438     1.0000 0.91901  0.11398  0.90848  Biso   1.000  H
  C354     1.0000 0.95521  0.22372  0.92669  Biso   1.000  C
  C355     1.0000 0.80580  0.99489  0.03871  Biso   1.000  C
  H439     1.0000 0.84861  0.91014  0.80221  Biso   1.000  H
  H440     1.0000 0.88130  0.83371  0.80121  Biso   1.000  H
  C356     1.0000 0.83679  0.75232  0.81418  Biso   1.000  C
  C357     1.0000 0.95299  0.73395  0.82058  Biso   1.000  C
  H441     1.0000 0.98810  0.80184  0.77819  Biso   1.000  H
  H442     1.0000 0.97770  0.68323  0.76460  Biso   1.000  H
  O60      1.0000 0.97870  0.14042  0.93741  Biso   1.000  O
  H443     1.0000 0.94400  0.25064  0.95319  Biso   1.000  H
  H444     1.0000 0.96741  0.28387  0.91290  Biso   1.000  H
  S178     1.0000 0.84437  0.01550  0.01010  Biso   1.000  S
  C358     1.0000 0.80679  0.00879  0.08200  Biso   1.000  C
  O61      1.0000 0.84650  0.73442  0.85838  Biso   1.000  O
  H445     1.0000 0.83979  0.68498  0.79788  Biso   1.000  H
  H446     1.0000 0.81241  0.77141  0.81318  Biso   1.000  H
  O62      1.0000 0.94669  0.83762  0.83920  Biso   1.000  O
  H447     1.0000 0.96891  0.69289  0.83898  Biso   1.000  H
  H448     1.0000 0.93149  0.69329  0.81809  Biso   1.000  H
  C359     1.0000 0.99751  0.16829  0.97479  Biso   1.000  C
  C360     1.0000 0.86941  0.02931  0.05630  Biso   1.000  C
  S179     1.0000 0.77174  0.98922  0.11525  Biso   1.000  S
  S180     1.0000 0.84637  0.04441  0.10469  Biso   1.000  S
  C361     1.0000 0.83290  0.80950  0.88759  Biso   1.000  C
  C362     1.0000 0.92800  0.82995  0.87820  Biso   1.000  C
  H449     1.0000 0.98180  0.18307  0.99910  Biso   1.000  H
  H450     1.0000 0.01101  0.23379  0.96920  Biso   1.000  H
  C363     1.0000 0.02100  0.07804  0.98670  Biso   1.000  C
  C364     1.0000 0.90411  0.03147  0.05401  Biso   1.000  C
  C365     1.0000 0.77311  0.11190  0.14688  Biso   1.000  C
  H451     1.0000 0.84691  0.87532  0.88708  Biso   1.000  H
  H452     1.0000 0.80949  0.82859  0.87859  Biso   1.000  H
  C366     1.0000 0.83219  0.76438  0.93308  Biso   1.000  C
  C367     1.0000 0.94819  0.79441  0.91700  Biso   1.000  C
  H453     1.0000 0.91791  0.90064  0.88459  Biso   1.000  H
  H454     1.0000 0.90909  0.77899  0.87378  Biso   1.000  H
  S181     1.0000 0.99949  0.95088  0.99545  Biso   1.000  S
  H455     1.0000 0.03801  0.06893  0.96339  Biso   1.000  H
  H456     1.0000 0.03351  0.09752  0.01340  Biso   1.000  H
  S182     1.0000 0.92579  0.00871  0.00571  Biso   1.000  S
  S183     1.0000 0.93078  0.04513  0.09991  Biso   1.000  S
  C368     1.0000 0.77049  0.21238  0.12241  Biso   1.000  C
  H457     1.0000 0.79459  0.11302  0.16341  Biso   1.000  H
  H458     1.0000 0.75419  0.10982  0.16809  Biso   1.000  H
  O63      1.0000 0.80847  0.67740  0.93350  Biso   1.000  O
  H459     1.0000 0.82510  0.82021  0.95390  Biso   1.000  H
  H460     1.0000 0.85509  0.73890  0.94138  Biso   1.000  H
  O64      1.0000 0.95465  0.68339  0.91568  Biso   1.000  O
  H461     1.0000 0.93550  0.81190  0.94370  Biso   1.000  H
  H462     1.0000 0.97010  0.83355  0.91778  Biso   1.000  H
  C369     1.0000 0.96581  0.99209  0.02999  Biso   1.000  C
  C370     1.0000 0.96871  0.00871  0.07231  Biso   1.000  C
  C371     1.0000 0.77339  0.30919  0.15111  Biso   1.000  C
  H463     1.0000 0.78869  0.21462  0.10040  Biso   1.000  H
  H464     1.0000 0.74840  0.21438  0.10711  Biso   1.000  H
  C372     1.0000 0.80161  0.64081  0.97598  Biso   1.000  C
  C373     1.0000 0.96820  0.64585  0.95539  Biso   1.000  C
  S184     1.0000 0.00651  0.99505  0.10133  Biso   1.000  S
  S185     1.0000 0.77377  0.43762  0.12506  Biso   1.000  S
  H465     1.0000 0.75409  0.30799  0.17171  Biso   1.000  H
  H466     1.0000 0.79449  0.30240  0.16819  Biso   1.000  H
  H467     1.0000 0.82291  0.63482  0.99280  Biso   1.000  H
  H468     1.0000 0.78620  0.69089  0.99109  Biso   1.000  H
  C374     1.0000 0.78480  0.53147  0.97098  Biso   1.000  C
  C375     1.0000 0.97920  0.53107  0.94899  Biso   1.000  C
  H469     1.0000 0.98790  0.69010  0.96410  Biso   1.000  H
  H470     1.0000 0.95071  0.65000  0.97840  Biso   1.000  H
  C376     1.0000 0.00661  0.11893  0.13200  Biso   1.000  C
  C377     1.0000 0.80911  0.42404  0.09129  Biso   1.000  C
  H471     1.0000 0.76520  0.53842  0.95129  Biso   1.000  H
  H472     1.0000 0.80130  0.48203  0.95739  Biso   1.000  H
  S186     1.0000 0.77041  0.47380  0.02111  Biso   1.000  S
  S187     1.0000 0.99926  0.47308  0.99596  Biso   1.000  S
  H473     1.0000 0.95899  0.48770  0.94128  Biso   1.000  H
  H474     1.0000 0.99530  0.52780  0.92449  Biso   1.000  H
  H475     1.0000 0.98520  0.12412  0.14869  Biso   1.000  H
  H476     1.0000 0.02570  0.11749  0.15279  Biso   1.000  H
  C378     1.0000 0.01009  0.21941  0.10269  Biso   1.000  C
  C379     1.0000 0.80791  0.44153  0.04820  Biso   1.000  C
  S188     1.0000 0.84874  0.38594  0.11370  Biso   1.000  S
  C380     1.0000 0.96619  0.44864  0.03219  Biso   1.000  C
  H477     1.0000 0.99059  0.22348  0.08251  Biso   1.000  H
  H478     1.0000 0.03119  0.21494  0.08552  Biso   1.000  H
  C381     1.0000 0.01091  0.31909  0.13161  Biso   1.000  C
  S189     1.0000 0.84569  0.42061  0.01940  Biso   1.000  S
  C382     1.0000 0.87149  0.40663  0.06579  Biso   1.000  C
  S190     1.0000 0.92450  0.43147  0.01156  Biso   1.000  S
  C383     1.0000 0.97031  0.43179  0.07480  Biso   1.000  C
  S191     1.0000 0.00986  0.44273  0.10049  Biso   1.000  S
  H479     1.0000 0.99110  0.31741  0.15140  Biso   1.000  H
  H480     1.0000 0.03180  0.31773  0.14940  Biso   1.000  H
  C384     1.0000 0.90520  0.41030  0.06201  Biso   1.000  C
  S192     1.0000 0.93390  0.39752  0.10543  Biso   1.000  S
  Ne1      1.0000 0.36424  0.15815  0.39403  Biso   1.000  Ne
  He1      1.0000 0.36665  0.99900  0.49234  Biso   1.000  He
  He2      1.0000 0.34192  0.98922  0.49891  Biso   1.000  He
  He3      1.0000 0.36696  0.35433  0.40834  Biso   1.000  He
  He4      1.0000 0.37786  0.94287  0.40471  Biso   1.000  He
  Ar1      1.0000 0.36990  0.08123  0.42368  Biso   1.000  Ar
  Ne2      1.0000 0.11450  0.66373  0.44168  Biso   1.000  Ne
  He5      1.0000 0.12093  0.49162  0.40925  Biso   1.000  He
  He6      1.0000 0.12269  0.83142  0.45598  Biso   1.000  He
  He7      1.0000 0.12083  0.58404  0.41717  Biso   1.000  He
  He8      1.0000 0.12858  0.52551  0.39946  Biso   1.000  He
  Ar2      1.0000 0.12243  0.66554  0.43795  Biso   1.000  Ar
  Ne3      1.0000 0.61450  0.33629  0.44168  Biso   1.000  Ne
  He9      1.0000 0.61679  0.63685  0.49519  Biso   1.000  He
  He10     1.0000 0.61426  0.21359  0.47644  Biso   1.000  He
  He11     1.0000 0.60549  0.47708  0.35736  Biso   1.000  He
  He12     1.0000 0.49531  0.41451  0.31100  Biso   1.000  He
  Ar3      1.0000 0.62190  0.42479  0.41367  Biso   1.000  Ar
  Ne4      1.0000 0.13576  0.15815  0.89402  Biso   1.000  Ne
  He13     1.0000 0.13843  0.00419  0.99172  Biso   1.000  He
  He14     1.0000 0.17769  0.96835  0.00750  Biso   1.000  He
  He15     1.0000 0.13326  0.34539  0.90992  Biso   1.000  He
  He16     1.0000 0.12572  0.82319  0.82359  Biso   1.000  He
  Ar4      1.0000 0.13008  0.08120  0.92366  Biso   1.000  Ar
  Ne5      1.0000 0.38550  0.66373  0.94167  Biso   1.000  Ne
  He17     1.0000 0.38476  0.48390  0.90711  Biso   1.000  He
  He18     1.0000 0.37733  0.82766  0.95688  Biso   1.000  He
  He19     1.0000 0.37922  0.58574  0.91771  Biso   1.000  He
  He20     1.0000 0.00000  0.00000  0.00000  Biso   1.000  He
  Ar5      1.0000 0.37758  0.66545  0.93793  Biso   1.000  Ar
  Ne6      1.0000 0.63576  0.84187  0.89402  Biso   1.000  Ne
  He21     1.0000 0.57403  0.00764  0.99929  Biso   1.000  He
  He22     1.0000 0.66211  0.01545  0.00093  Biso   1.000  He
  He23     1.0000 0.63308  0.64723  0.90862  Biso   1.000  He
  He24     1.0000 0.62196  0.05025  0.90800  Biso   1.000  He
  Ar6      1.0000 0.63011  0.91881  0.92318  Biso   1.000  Ar
  Ne7      1.0000 0.86424  0.84187  0.39403  Biso   1.000  Ne
  He25     1.0000 0.86581  0.00014  0.49224  Biso   1.000  He
  He26     1.0000 0.83758  0.01588  0.50108  Biso   1.000  He
  He27     1.0000 0.86670  0.65631  0.41021  Biso   1.000  He
  He28     1.0000 0.87791  0.05545  0.40552  Biso   1.000  He
  Ar7      1.0000 0.86980  0.91879  0.42377  Biso   1.000  Ar
  Ne8      1.0000 0.88550  0.33629  0.94167  Biso   1.000  Ne
  He29     1.0000 0.88526  0.51029  0.90474  Biso   1.000  He
  He30     1.0000 0.87731  0.16910  0.95611  Biso   1.000  He
  He31     1.0000 0.89385  0.45209  0.90381  Biso   1.000  He
  He32     1.0000 0.00738  0.41219  0.81014  Biso   1.000  He
  Ar8      1.0000 0.88121  0.33628  0.94054  Biso   1.000  Ar
