data_image0
_cell_length_a       14.016
_cell_length_b       14.276
_cell_length_c       15.21
_cell_angle_alpha    75.33
_cell_angle_beta     78.67
_cell_angle_gamma    68.44

_symmetry_space_group_name_H-M    "P 1"
_symmetry_int_tables_number       1

loop_
  _symmetry_equiv_pos_as_xyz
  'x, y, z'

loop_
  _atom_site_label
  _atom_site_occupancy
  _atom_site_fract_x
  _atom_site_fract_y
  _atom_site_fract_z
  _atom_site_thermal_displace_type
  _atom_site_B_iso_or_equiv
  _atom_site_type_symbol
  C1       1.0000 0.17275  0.29438  0.80764  Biso   1.000  C
  N1       1.0000 0.24824  0.22947  0.76064  Biso   1.000  N
  N2       1.0000 0.24827  0.22953  0.76071  Biso   1.000  N
  N3       1.0000 0.24828  0.22955  0.76064  Biso   1.000  N
  N4       1.0000 0.20705  0.29448  0.88556  Biso   1.000  N
  O1       1.0000 0.08782  0.34530  0.78363  Biso   1.000  O
  N5       1.0000 0.20709  0.29455  0.88556  Biso   1.000  N
  O2       1.0000 0.08789  0.34529  0.78369  Biso   1.000  O
  O3       1.0000 0.08789  0.34530  0.78363  Biso   1.000  O
  O4       1.0000 0.08786  0.34536  0.78369  Biso   1.000  O
  C2       1.0000 0.24795  0.23164  0.66513  Biso   1.000  C
  C3       1.0000 0.24794  0.23162  0.66520  Biso   1.000  C
  C4       1.0000 0.34276  0.18763  0.80237  Biso   1.000  C
  C5       1.0000 0.17279  0.29444  0.80771  Biso   1.000  C
  C6       1.0000 0.17280  0.29446  0.80764  Biso   1.000  C
  C7       1.0000 0.34283  0.18763  0.80237  Biso   1.000  C
  C8       1.0000 0.17272  0.29444  0.80771  Biso   1.000  C
  C9       1.0000 0.31538  0.23948  0.88495  Biso   1.000  C
  C10      1.0000 0.31535  0.23956  0.88495  Biso   1.000  C
  C11      1.0000 0.31542  0.23956  0.88495  Biso   1.000  C
  C12      1.0000 0.15471  0.37104  0.93906  Biso   1.000  C
  C13      1.0000 0.15478  0.37104  0.93906  Biso   1.000  C
  N6       1.0000 0.24565  0.13630  0.65124  Biso   1.000  N
  N7       1.0000 0.24564  0.13628  0.65131  Biso   1.000  N
  N8       1.0000 0.24572  0.13630  0.65124  Biso   1.000  N
  N9       1.0000 0.24561  0.13636  0.65131  Biso   1.000  N
  H1       1.0000 0.30923  0.24459  0.63038  Biso   1.000  H
  H2       1.0000 0.18804  0.28738  0.64249  Biso   1.000  H
  H3       1.0000 0.18801  0.28745  0.64249  Biso   1.000  H
  H4       1.0000 0.30931  0.24459  0.63038  Biso   1.000  H
  H5       1.0000 0.18811  0.28738  0.64249  Biso   1.000  H
  H6       1.0000 0.30921  0.24466  0.63038  Biso   1.000  H
  N10      1.0000 0.36807  0.08039  0.84315  Biso   1.000  N
  N11      1.0000 0.36804  0.08047  0.84315  Biso   1.000  N
  N12      1.0000 0.36814  0.08039  0.84315  Biso   1.000  N
  H7       1.0000 0.40033  0.20267  0.76057  Biso   1.000  H
  H8       1.0000 0.40038  0.20275  0.76057  Biso   1.000  H
  N13      1.0000 0.34156  0.15432  0.96048  Biso   1.000  N
  H9       1.0000 0.35462  0.28553  0.87906  Biso   1.000  H
  H10      1.0000 0.35469  0.28553  0.87906  Biso   1.000  H
  N14      1.0000 0.34164  0.15432  0.96048  Biso   1.000  N
  H11      1.0000 0.09283  0.41723  0.91197  Biso   1.000  H
  H12      1.0000 0.19888  0.41088  0.93605  Biso   1.000  H
  H13      1.0000 0.09290  0.41723  0.91197  Biso   1.000  H
  H14      1.0000 0.19885  0.41095  0.93605  Biso   1.000  H
  H15      1.0000 0.19892  0.41095  0.93605  Biso   1.000  H
  N15      1.0000 0.12640  0.33303  0.03252  Biso   1.000  N
  N16      1.0000 0.12633  0.33303  0.03252  Biso   1.000  N
  N17      1.0000 0.12643  0.33295  0.03252  Biso   1.000  N
  C14      1.0000 0.16825  0.13122  0.61423  Biso   1.000  C
  C15      1.0000 0.16824  0.13120  0.61430  Biso   1.000  C
  C16      1.0000 0.16832  0.13122  0.61423  Biso   1.000  C
  C17      1.0000 0.33503  0.04550  0.64974  Biso   1.000  C
  C18      1.0000 0.33509  0.04548  0.64981  Biso   1.000  C
  C19      1.0000 0.33510  0.04550  0.64974  Biso   1.000  C
  C20      1.0000 0.33499  0.04556  0.64981  Biso   1.000  C
  C21      1.0000 0.42403  0.00331  0.79026  Biso   1.000  C
  C22      1.0000 0.42410  0.00331  0.79026  Biso   1.000  C
  C23      1.0000 0.37414  0.06228  0.93448  Biso   1.000  C
  C24      1.0000 0.37418  0.06236  0.93448  Biso   1.000  C
  C25      1.0000 0.37421  0.06228  0.93448  Biso   1.000  C
  C26      1.0000 0.35901  0.16513  0.04709  Biso   1.000  C
  C27      1.0000 0.35900  0.16512  0.04716  Biso   1.000  C
  C28      1.0000 0.35893  0.16513  0.04709  Biso   1.000  C
  C29      1.0000 0.35903  0.16504  0.04716  Biso   1.000  C
  C30      1.0000 0.02462  0.36259  0.07049  Biso   1.000  C
  C31      1.0000 0.19770  0.30069  0.10155  Biso   1.000  C
  C32      1.0000 0.02458  0.36265  0.07056  Biso   1.000  C
  C33      1.0000 0.02461  0.36258  0.07056  Biso   1.000  C
  O5       1.0000 0.08710  0.20134  0.59904  Biso   1.000  O
  N18      1.0000 0.19626  0.03759  0.59535  Biso   1.000  N
  O6       1.0000 0.08705  0.20126  0.59904  Biso   1.000  O
  N19      1.0000 0.19625  0.03758  0.59542  Biso   1.000  N
  O7       1.0000 0.08702  0.20132  0.59911  Biso   1.000  O
  N20      1.0000 0.19622  0.03765  0.59542  Biso   1.000  N
  C34      1.0000 0.30324  0.97866  0.60664  Biso   1.000  C
  C35      1.0000 0.30323  0.97865  0.60670  Biso   1.000  C
  C36      1.0000 0.30320  0.97859  0.60664  Biso   1.000  C
  H16      1.0000 0.39511  0.06170  0.61389  Biso   1.000  H
  H17      1.0000 0.39518  0.06170  0.61389  Biso   1.000  H
  N21      1.0000 0.35901  0.98380  0.73963  Biso   1.000  N
  N22      1.0000 0.35910  0.98371  0.73970  Biso   1.000  N
  N23      1.0000 0.35904  0.98372  0.73963  Biso   1.000  N
  N24      1.0000 0.35903  0.98371  0.73970  Biso   1.000  N
  H18      1.0000 0.47694  0.02491  0.74778  Biso   1.000  H
  H19      1.0000 0.47701  0.02491  0.74778  Biso   1.000  H
  H20      1.0000 0.45828  0.94020  0.83076  Biso   1.000  H
  H21      1.0000 0.45838  0.94013  0.83076  Biso   1.000  H
  H22      1.0000 0.45831  0.94013  0.83076  Biso   1.000  H
  O8       1.0000 0.40313  0.97970  0.98429  Biso   1.000  O
  O9       1.0000 0.40316  0.97962  0.98429  Biso   1.000  O
  N25      1.0000 0.26619  0.19599  0.10832  Biso   1.000  N
  H23      1.0000 0.39343  0.21558  0.03601  Biso   1.000  H
  H24      1.0000 0.40500  0.10007  0.07644  Biso   1.000  H
  H25      1.0000 0.39339  0.21564  0.03608  Biso   1.000  H
  H26      1.0000 0.40497  0.10014  0.07644  Biso   1.000  H
  H27      1.0000 0.39336  0.21558  0.03601  Biso   1.000  H
  H28      1.0000 0.39342  0.21557  0.03608  Biso   1.000  H
  O10      1.0000 0.95028  0.40281  0.02930  Biso   1.000  O
  O11      1.0000 0.95027  0.40279  0.02937  Biso   1.000  O
  O12      1.0000 0.95030  0.40272  0.02937  Biso   1.000  O
  N26      1.0000 0.02400  0.33892  0.16483  Biso   1.000  N
  N27      1.0000 0.02402  0.33884  0.16483  Biso   1.000  N
  C37      1.0000 0.12574  0.29469  0.19329  Biso   1.000  C
  H29      1.0000 0.23462  0.34903  0.09519  Biso   1.000  H
  C38      1.0000 0.12570  0.29475  0.19336  Biso   1.000  C
  H30      1.0000 0.23461  0.34901  0.09526  Biso   1.000  H
  C39      1.0000 0.12566  0.29469  0.19329  Biso   1.000  C
  H31      1.0000 0.23455  0.34903  0.09519  Biso   1.000  H
  C40      1.0000 0.12573  0.29467  0.19336  Biso   1.000  C
  H32      1.0000 0.23464  0.34894  0.09526  Biso   1.000  H
  C41      1.0000 0.13621  0.00810  0.54828  Biso   1.000  C
  C42      1.0000 0.13629  0.00810  0.54828  Biso   1.000  C
  C43      1.0000 0.13619  0.00817  0.54828  Biso   1.000  C
  N28      1.0000 0.31870  0.88359  0.67293  Biso   1.000  N
  H33      1.0000 0.34450  0.96767  0.54787  Biso   1.000  H
  N29      1.0000 0.31879  0.88350  0.67300  Biso   1.000  N
  H34      1.0000 0.34453  0.96759  0.54787  Biso   1.000  H
  N30      1.0000 0.31873  0.88352  0.67293  Biso   1.000  N
  C44      1.0000 0.35864  0.88519  0.74716  Biso   1.000  C
  C45      1.0000 0.35867  0.88511  0.74716  Biso   1.000  C
  C46      1.0000 0.24309  0.13288  0.18495  Biso   1.000  C
  C47      1.0000 0.24313  0.13296  0.18495  Biso   1.000  C
  C48      1.0000 0.24316  0.13288  0.18495  Biso   1.000  C
  C49      1.0000 0.93215  0.37383  0.22545  Biso   1.000  C
  C50      1.0000 0.93222  0.37383  0.22545  Biso   1.000  C
  C51      1.0000 0.93225  0.37375  0.22545  Biso   1.000  C
  N31      1.0000 0.15467  0.18791  0.23133  Biso   1.000  N
  H35      1.0000 0.13561  0.33310  0.23380  Biso   1.000  H
  N32      1.0000 0.15474  0.18791  0.23133  Biso   1.000  N
  H36      1.0000 0.13560  0.33309  0.23386  Biso   1.000  H
  N33      1.0000 0.15476  0.18784  0.23133  Biso   1.000  N
  H37      1.0000 0.07876  0.06838  0.52755  Biso   1.000  H
  H38      1.0000 0.07872  0.06844  0.52762  Biso   1.000  H
  H39      1.0000 0.07883  0.06838  0.52755  Biso   1.000  H
  N34      1.0000 0.09648  0.92996  0.60109  Biso   1.000  N
  H40      1.0000 0.17859  0.98450  0.49437  Biso   1.000  H
  N35      1.0000 0.09658  0.92989  0.60109  Biso   1.000  N
  H41      1.0000 0.17862  0.98442  0.49437  Biso   1.000  H
  N36      1.0000 0.09651  0.92989  0.60109  Biso   1.000  N
  N37      1.0000 0.09655  0.92996  0.60109  Biso   1.000  N
  C52      1.0000 0.32479  0.78943  0.65138  Biso   1.000  C
  C53      1.0000 0.32486  0.78943  0.65138  Biso   1.000  C
  O13      1.0000 0.39130  0.81389  0.80784  Biso   1.000  O
  O14      1.0000 0.39139  0.81379  0.80791  Biso   1.000  O
  O15      1.0000 0.39132  0.81381  0.80784  Biso   1.000  O
  O16      1.0000 0.39136  0.81387  0.80791  Biso   1.000  O
  O17      1.0000 0.29211  0.04257  0.20794  Biso   1.000  O
  O18      1.0000 0.29215  0.04265  0.20794  Biso   1.000  O
  O19      1.0000 0.29208  0.04265  0.20794  Biso   1.000  O
  N38      1.0000 0.89228  0.29681  0.27662  Biso   1.000  N
  H42      1.0000 0.87935  0.42563  0.18974  Biso   1.000  H
  H43      1.0000 0.94673  0.40650  0.26739  Biso   1.000  H
  N39      1.0000 0.89235  0.29681  0.27662  Biso   1.000  N
  H44      1.0000 0.87942  0.42563  0.18974  Biso   1.000  H
  H45      1.0000 0.94672  0.40649  0.26746  Biso   1.000  H
  N40      1.0000 0.89238  0.29674  0.27662  Biso   1.000  N
  H46      1.0000 0.87945  0.42555  0.18974  Biso   1.000  H
  C54      1.0000 0.12599  0.14890  0.32588  Biso   1.000  C
  C55      1.0000 0.12603  0.14896  0.32595  Biso   1.000  C
  C56      1.0000 0.12606  0.14889  0.32595  Biso   1.000  C
  C57      1.0000 0.99140  0.95086  0.62559  Biso   1.000  C
  C58      1.0000 0.99150  0.95079  0.62559  Biso   1.000  C
  C59      1.0000 0.99143  0.95079  0.62559  Biso   1.000  C
  C60      1.0000 0.15104  0.82247  0.60116  Biso   1.000  C
  C61      1.0000 0.15107  0.82240  0.60116  Biso   1.000  C
  C62      1.0000 0.15100  0.82240  0.60116  Biso   1.000  C
  N41      1.0000 0.22793  0.77397  0.66465  Biso   1.000  N
  N42      1.0000 0.22796  0.77389  0.66465  Biso   1.000  N
  H47      1.0000 0.35368  0.78896  0.58796  Biso   1.000  H
  H48      1.0000 0.37170  0.73259  0.68908  Biso   1.000  H
  H49      1.0000 0.35378  0.78889  0.58796  Biso   1.000  H
  H50      1.0000 0.37180  0.73252  0.68908  Biso   1.000  H
  H51      1.0000 0.35371  0.78889  0.58796  Biso   1.000  H
  H52      1.0000 0.37173  0.73252  0.68908  Biso   1.000  H
  H53      1.0000 0.35375  0.78896  0.58796  Biso   1.000  H
  C63      1.0000 0.79808  0.29488  0.26670  Biso   1.000  C
  C64      1.0000 0.93119  0.22779  0.35852  Biso   1.000  C
  C65      1.0000 0.79812  0.29494  0.26677  Biso   1.000  C
  C66      1.0000 0.93123  0.22786  0.35852  Biso   1.000  C
  C67      1.0000 0.79805  0.29496  0.26670  Biso   1.000  C
  C68      1.0000 0.79814  0.29487  0.26677  Biso   1.000  C
  C69      1.0000 0.93126  0.22779  0.35852  Biso   1.000  C
  N43      1.0000 0.02373  0.14269  0.34394  Biso   1.000  N
  H54      1.0000 0.13044  0.19314  0.36290  Biso   1.000  H
  H55      1.0000 0.17504  0.08103  0.34449  Biso   1.000  H
  H56      1.0000 0.13043  0.19313  0.36296  Biso   1.000  H
  H57      1.0000 0.17503  0.08102  0.34456  Biso   1.000  H
  H58      1.0000 0.13037  0.19314  0.36290  Biso   1.000  H
  H59      1.0000 0.17497  0.08103  0.34449  Biso   1.000  H
  H60      1.0000 0.13046  0.19305  0.36296  Biso   1.000  H
  H61      1.0000 0.17506  0.08094  0.34456  Biso   1.000  H
  N44      1.0000 0.97630  0.85738  0.65603  Biso   1.000  N
  N45      1.0000 0.97639  0.85729  0.65610  Biso   1.000  N
  N46      1.0000 0.97633  0.85731  0.65603  Biso   1.000  N
  N47      1.0000 0.97629  0.85737  0.65610  Biso   1.000  N
  O20      1.0000 0.92663  0.03429  0.61827  Biso   1.000  O
  O21      1.0000 0.92670  0.03429  0.61827  Biso   1.000  O
  O22      1.0000 0.92660  0.03437  0.61827  Biso   1.000  O
  H62      1.0000 0.17990  0.81037  0.53925  Biso   1.000  H
  C70      1.0000 0.06884  0.77229  0.64146  Biso   1.000  C
  H63      1.0000 0.17999  0.81028  0.53932  Biso   1.000  H
  C71      1.0000 0.06887  0.77221  0.64146  Biso   1.000  C
  H64      1.0000 0.17993  0.81030  0.53925  Biso   1.000  H
  C72      1.0000 0.06879  0.77221  0.64146  Biso   1.000  C
  H65      1.0000 0.17989  0.81036  0.53932  Biso   1.000  H
  C73      1.0000 0.20195  0.70519  0.73327  Biso   1.000  C
  C74      1.0000 0.20197  0.70511  0.73327  Biso   1.000  C
  C75      1.0000 0.20190  0.70511  0.73327  Biso   1.000  C
  N48      1.0000 0.77210  0.22610  0.33532  Biso   1.000  N
  O23      1.0000 0.74689  0.35251  0.20554  Biso   1.000  O
  N49      1.0000 0.77217  0.22610  0.33532  Biso   1.000  N
  O24      1.0000 0.74692  0.35243  0.20554  Biso   1.000  O
  C76      1.0000 0.84899  0.17760  0.39881  Biso   1.000  C
  H66      1.0000 0.93929  0.26510  0.40093  Biso   1.000  H
  C77      1.0000 0.84906  0.17760  0.39881  Biso   1.000  C
  H67      1.0000 0.93936  0.26510  0.40093  Biso   1.000  H
  C78      1.0000 0.00863  0.04921  0.37439  Biso   1.000  C
  C79      1.0000 0.00862  0.04919  0.37446  Biso   1.000  C
  C80      1.0000 0.87404  0.85117  0.67409  Biso   1.000  C
  C81      1.0000 0.87406  0.85110  0.67409  Biso   1.000  C
  C82      1.0000 0.87399  0.85110  0.67409  Biso   1.000  C
  N50      1.0000 0.10775  0.70326  0.72335  Biso   1.000  N
  H68      1.0000 0.06074  0.73497  0.59904  Biso   1.000  H
  H69      1.0000 0.06076  0.73488  0.59911  Biso   1.000  H
  N51      1.0000 0.10778  0.70318  0.72335  Biso   1.000  N
  H70      1.0000 0.06070  0.73490  0.59904  Biso   1.000  H
  H71      1.0000 0.06073  0.73496  0.59911  Biso   1.000  H
  O25      1.0000 0.25314  0.64756  0.79444  Biso   1.000  O
  O26      1.0000 0.25313  0.64755  0.79450  Biso   1.000  O
  O27      1.0000 0.25317  0.64749  0.79444  Biso   1.000  O
  C83      1.0000 0.67524  0.21064  0.34860  Biso   1.000  C
  C84      1.0000 0.67523  0.21063  0.34867  Biso   1.000  C
  C85      1.0000 0.67517  0.21064  0.34860  Biso   1.000  C
  C86      1.0000 0.67526  0.21055  0.34867  Biso   1.000  C
  N52      1.0000 0.90355  0.07011  0.39888  Biso   1.000  N
  H72      1.0000 0.82013  0.18970  0.46073  Biso   1.000  H
  N53      1.0000 0.90354  0.07009  0.39895  Biso   1.000  N
  O28      1.0000 0.07343  0.96571  0.38171  Biso   1.000  O
  O29      1.0000 0.07336  0.96571  0.38171  Biso   1.000  O
  O30      1.0000 0.07340  0.96578  0.38171  Biso   1.000  O
  N54      1.0000 0.84536  0.81216  0.76864  Biso   1.000  N
  H73      1.0000 0.86959  0.80693  0.63708  Biso   1.000  H
  H74      1.0000 0.82499  0.91904  0.65548  Biso   1.000  H
  N55      1.0000 0.84535  0.81214  0.76871  Biso   1.000  N
  H75      1.0000 0.86966  0.80693  0.63708  Biso   1.000  H
  H76      1.0000 0.82506  0.91904  0.65548  Biso   1.000  H
  N56      1.0000 0.84532  0.81208  0.76864  Biso   1.000  N
  C87      1.0000 0.06788  0.62624  0.77453  Biso   1.000  C
  C88      1.0000 0.06787  0.62623  0.77459  Biso   1.000  C
  C89      1.0000 0.06780  0.62624  0.77453  Biso   1.000  C
  N57      1.0000 0.68133  0.11648  0.32705  Biso   1.000  N
  H77      1.0000 0.64635  0.21111  0.41202  Biso   1.000  H
  H78      1.0000 0.62833  0.26748  0.31090  Biso   1.000  H
  N58      1.0000 0.68130  0.11656  0.32705  Biso   1.000  N
  H79      1.0000 0.62829  0.26754  0.31097  Biso   1.000  H
  H80      1.0000 0.64627  0.21111  0.41202  Biso   1.000  H
  H81      1.0000 0.62830  0.26755  0.31090  Biso   1.000  H
  H82      1.0000 0.62832  0.26746  0.31097  Biso   1.000  H
  C90      1.0000 0.86384  0.99190  0.45170  Biso   1.000  C
  C91      1.0000 0.86373  0.99196  0.45177  Biso   1.000  C
  C92      1.0000 0.86380  0.99196  0.45177  Biso   1.000  C
  C93      1.0000 0.87429  0.70539  0.80668  Biso   1.000  C
  C94      1.0000 0.75694  0.86719  0.81503  Biso   1.000  C
  C95      1.0000 0.87439  0.70531  0.80668  Biso   1.000  C
  C96      1.0000 0.75696  0.86710  0.81510  Biso   1.000  C
  C97      1.0000 0.87432  0.70531  0.80668  Biso   1.000  C
  C98      1.0000 0.75697  0.86711  0.81503  Biso   1.000  C
  C99      1.0000 0.75693  0.86717  0.81510  Biso   1.000  C
  N59      1.0000 0.97603  0.66115  0.83514  Biso   1.000  N
  N60      1.0000 0.97610  0.66114  0.83521  Biso   1.000  N
  N61      1.0000 0.97602  0.66114  0.83521  Biso   1.000  N
  H83      1.0000 0.12068  0.57444  0.81024  Biso   1.000  H
  H84      1.0000 0.05330  0.59357  0.73259  Biso   1.000  H
  H85      1.0000 0.12067  0.57443  0.81031  Biso   1.000  H
  H86      1.0000 0.05340  0.59349  0.73259  Biso   1.000  H
  H87      1.0000 0.12060  0.57444  0.81024  Biso   1.000  H
  H88      1.0000 0.05333  0.59349  0.73259  Biso   1.000  H
  H89      1.0000 0.05337  0.59357  0.73259  Biso   1.000  H
  C100     1.0000 0.64139  0.11488  0.25282  Biso   1.000  C
  C101     1.0000 0.64143  0.11496  0.25282  Biso   1.000  C
  C102     1.0000 0.64146  0.11488  0.25282  Biso   1.000  C
  C103     1.0000 0.69679  0.02141  0.39334  Biso   1.000  C
  C104     1.0000 0.69686  0.02141  0.39334  Biso   1.000  C
  N62      1.0000 0.80380  0.96240  0.40463  Biso   1.000  N
  H90      1.0000 0.92130  0.93162  0.47243  Biso   1.000  H
  N63      1.0000 0.80384  0.96248  0.40463  Biso   1.000  N
  H91      1.0000 0.92137  0.93162  0.47243  Biso   1.000  H
  H92      1.0000 0.82144  0.01558  0.50561  Biso   1.000  H
  H93      1.0000 0.82141  0.01565  0.50561  Biso   1.000  H
  H94      1.0000 0.86442  0.66697  0.76618  Biso   1.000  H
  C105     1.0000 0.80233  0.69939  0.89843  Biso   1.000  C
  H95      1.0000 0.86451  0.66689  0.76618  Biso   1.000  H
  C106     1.0000 0.80242  0.69930  0.89849  Biso   1.000  C
  H96      1.0000 0.86444  0.66689  0.76618  Biso   1.000  H
  C107     1.0000 0.80235  0.69931  0.89843  Biso   1.000  C
  C108     1.0000 0.80232  0.69937  0.89849  Biso   1.000  C
  N64      1.0000 0.73383  0.80408  0.89165  Biso   1.000  N
  O31      1.0000 0.70792  0.95750  0.79204  Biso   1.000  O
  N65      1.0000 0.73386  0.80401  0.89165  Biso   1.000  N
  O32      1.0000 0.70794  0.95741  0.79211  Biso   1.000  O
  O33      1.0000 0.70795  0.95742  0.79204  Biso   1.000  O
  C109     1.0000 0.97541  0.63748  0.92949  Biso   1.000  C
  C110     1.0000 0.97551  0.63740  0.92949  Biso   1.000  C
  C111     1.0000 0.97544  0.63740  0.92949  Biso   1.000  C
  C112     1.0000 0.97548  0.63748  0.92949  Biso   1.000  C
  N66      1.0000 0.64102  0.01627  0.26034  Biso   1.000  N
  N67      1.0000 0.64099  0.01635  0.26034  Biso   1.000  N
  O34      1.0000 0.60873  0.18619  0.19213  Biso   1.000  O
  O35      1.0000 0.60870  0.18626  0.19213  Biso   1.000  O
  O36      1.0000 0.60866  0.18619  0.19213  Biso   1.000  O
  C113     1.0000 0.66503  0.95450  0.35024  Biso   1.000  C
  C114     1.0000 0.66495  0.95450  0.35024  Biso   1.000  C
  C115     1.0000 0.66500  0.95457  0.35024  Biso   1.000  C
  H97      1.0000 0.65553  0.03240  0.45211  Biso   1.000  H
  C116     1.0000 0.83181  0.86878  0.38575  Biso   1.000  C
  C117     1.0000 0.83178  0.86885  0.38575  Biso   1.000  C
  C118     1.0000 0.83185  0.86885  0.38575  Biso   1.000  C
  N68      1.0000 0.87363  0.66704  0.96746  Biso   1.000  N
  H98      1.0000 0.76541  0.65104  0.90479  Biso   1.000  H
  N69      1.0000 0.87370  0.66704  0.96746  Biso   1.000  N
  H99      1.0000 0.76548  0.65104  0.90479  Biso   1.000  H
  C119     1.0000 0.64102  0.83494  0.95288  Biso   1.000  C
  C120     1.0000 0.64109  0.83494  0.95288  Biso   1.000  C
  O37      1.0000 0.04975  0.59726  0.97067  Biso   1.000  O
  O38      1.0000 0.04978  0.59719  0.97067  Biso   1.000  O
  C121     1.0000 0.57603  0.99668  0.20971  Biso   1.000  C
  C122     1.0000 0.57593  0.99676  0.20971  Biso   1.000  C
  C123     1.0000 0.57600  0.99676  0.20971  Biso   1.000  C
  N70      1.0000 0.75441  0.86370  0.34873  Biso   1.000  N
  N71      1.0000 0.75438  0.86378  0.34873  Biso   1.000  N
  H100     1.0000 0.60494  0.93829  0.38609  Biso   1.000  H
  H101     1.0000 0.60483  0.93835  0.38616  Biso   1.000  H
  H102     1.0000 0.60491  0.93835  0.38616  Biso   1.000  H
  O39      1.0000 0.91300  0.79873  0.40093  Biso   1.000  O
  C124     1.0000 0.84535  0.62896  0.06091  Biso   1.000  C
  C125     1.0000 0.84525  0.62903  0.06091  Biso   1.000  C
  C126     1.0000 0.84532  0.62903  0.06091  Biso   1.000  C
  H103     1.0000 0.60660  0.78449  0.96397  Biso   1.000  H
  H104     1.0000 0.59503  0.90001  0.92353  Biso   1.000  H
  H105     1.0000 0.60670  0.78441  0.96397  Biso   1.000  H
  H106     1.0000 0.59505  0.89992  0.92360  Biso   1.000  H
  H107     1.0000 0.60663  0.78441  0.96397  Biso   1.000  H
  H108     1.0000 0.59506  0.89993  0.92353  Biso   1.000  H
  N72      1.0000 0.65849  0.84567  0.03950  Biso   1.000  N
  N73      1.0000 0.65846  0.84573  0.03957  Biso   1.000  N
  N74      1.0000 0.65846  0.84575  0.03950  Biso   1.000  N
  N75      1.0000 0.63199  0.91960  0.15683  Biso   1.000  N
  N76      1.0000 0.63196  0.91968  0.15683  Biso   1.000  N
  H109     1.0000 0.52311  0.97508  0.25220  Biso   1.000  H
  H110     1.0000 0.52308  0.97514  0.25227  Biso   1.000  H
  H111     1.0000 0.52309  0.97516  0.25220  Biso   1.000  H
  H112     1.0000 0.54175  0.05987  0.16921  Biso   1.000  H
  H113     1.0000 0.54172  0.05994  0.16921  Biso   1.000  H
  H114     1.0000 0.54165  0.05994  0.16921  Biso   1.000  H
  C127     1.0000 0.75210  0.76836  0.33485  Biso   1.000  C
  C128     1.0000 0.75208  0.76843  0.33485  Biso   1.000  C
  C129     1.0000 0.75215  0.76843  0.33485  Biso   1.000  C
  N77      1.0000 0.79301  0.70552  0.11441  Biso   1.000  N
  H115     1.0000 0.90723  0.58277  0.08800  Biso   1.000  H
  H116     1.0000 0.80118  0.58912  0.06392  Biso   1.000  H
  N78      1.0000 0.79294  0.70552  0.11441  Biso   1.000  N
  H117     1.0000 0.90712  0.58283  0.08807  Biso   1.000  H
  H118     1.0000 0.90720  0.58284  0.08800  Biso   1.000  H
  H119     1.0000 0.90719  0.58283  0.08807  Biso   1.000  H
  C130     1.0000 0.68468  0.76052  0.11503  Biso   1.000  C
  C131     1.0000 0.62592  0.93771  0.06550  Biso   1.000  C
  C132     1.0000 0.62584  0.93770  0.06556  Biso   1.000  C
  C133     1.0000 0.62585  0.93771  0.06550  Biso   1.000  C
  C134     1.0000 0.62591  0.93770  0.06556  Biso   1.000  C
  C135     1.0000 0.65730  0.81237  0.19760  Biso   1.000  C
  C136     1.0000 0.65726  0.81243  0.19767  Biso   1.000  C
  C137     1.0000 0.65727  0.81245  0.19760  Biso   1.000  C
  C138     1.0000 0.65733  0.81243  0.19767  Biso   1.000  C
  N79      1.0000 0.75182  0.77053  0.23934  Biso   1.000  N
  N80      1.0000 0.75175  0.77053  0.23934  Biso   1.000  N
  H120     1.0000 0.69082  0.75541  0.36960  Biso   1.000  H
  H121     1.0000 0.81202  0.71262  0.35749  Biso   1.000  H
  H122     1.0000 0.69074  0.75539  0.36967  Biso   1.000  H
  H123     1.0000 0.81201  0.71260  0.35756  Biso   1.000  H
  H124     1.0000 0.69079  0.75547  0.36967  Biso   1.000  H
  C139     1.0000 0.82730  0.70562  0.19234  Biso   1.000  C
  C140     1.0000 0.82723  0.70562  0.19234  Biso   1.000  C
  H125     1.0000 0.64544  0.71447  0.12091  Biso   1.000  H
  H126     1.0000 0.64534  0.71454  0.12091  Biso   1.000  H
  H127     1.0000 0.64541  0.71454  0.12091  Biso   1.000  H
  O40      1.0000 0.59690  0.02037  0.01569  Biso   1.000  O
  O41      1.0000 0.59693  0.02043  0.01576  Biso   1.000  O
  O42      1.0000 0.59687  0.02045  0.01569  Biso   1.000  O
  O43      1.0000 0.59689  0.02036  0.01576  Biso   1.000  O
  H128     1.0000 0.59972  0.79732  0.23941  Biso   1.000  H
  H129     1.0000 0.59965  0.79732  0.23941  Biso   1.000  H
  O44      1.0000 0.91223  0.65469  0.21635  Biso   1.000  O
  O45      1.0000 0.91216  0.65469  0.21635  Biso   1.000  O
  O46      1.0000 0.91221  0.65477  0.21635  Biso   1.000  O
  C141     1.0000 0.17275  0.29438  0.80764  Biso   1.000  C
  N81      1.0000 0.24827  0.22953  0.76071  Biso   1.000  N
  N82      1.0000 0.24824  0.22947  0.76064  Biso   1.000  N
  N83      1.0000 0.24828  0.22955  0.76064  Biso   1.000  N
  N84      1.0000 0.20709  0.29455  0.88556  Biso   1.000  N
  N85      1.0000 0.20705  0.29448  0.88556  Biso   1.000  N
  O47      1.0000 0.08782  0.34530  0.78363  Biso   1.000  O
  O48      1.0000 0.08789  0.34529  0.78369  Biso   1.000  O
  O49      1.0000 0.08789  0.34530  0.78363  Biso   1.000  O
  O50      1.0000 0.08786  0.34536  0.78369  Biso   1.000  O
  C142     1.0000 0.24795  0.23164  0.66513  Biso   1.000  C
  C143     1.0000 0.24794  0.23162  0.66520  Biso   1.000  C
  C144     1.0000 0.34276  0.18763  0.80237  Biso   1.000  C
  C145     1.0000 0.17279  0.29444  0.80771  Biso   1.000  C
  C146     1.0000 0.17280  0.29446  0.80764  Biso   1.000  C
  C147     1.0000 0.34283  0.18763  0.80237  Biso   1.000  C
  C148     1.0000 0.17272  0.29444  0.80771  Biso   1.000  C
  C149     1.0000 0.31535  0.23956  0.88495  Biso   1.000  C
  C150     1.0000 0.31538  0.23948  0.88495  Biso   1.000  C
  C151     1.0000 0.31542  0.23956  0.88495  Biso   1.000  C
  C152     1.0000 0.15478  0.37104  0.93906  Biso   1.000  C
  C153     1.0000 0.15471  0.37104  0.93906  Biso   1.000  C
  N86      1.0000 0.24565  0.13630  0.65124  Biso   1.000  N
  N87      1.0000 0.24564  0.13628  0.65131  Biso   1.000  N
  N88      1.0000 0.24572  0.13630  0.65124  Biso   1.000  N
  N89      1.0000 0.24561  0.13636  0.65131  Biso   1.000  N
  H130     1.0000 0.30923  0.24459  0.63038  Biso   1.000  H
  H131     1.0000 0.18801  0.28745  0.64249  Biso   1.000  H
  H132     1.0000 0.18804  0.28738  0.64249  Biso   1.000  H
  H133     1.0000 0.30931  0.24459  0.63038  Biso   1.000  H
  H134     1.0000 0.18811  0.28738  0.64249  Biso   1.000  H
  H135     1.0000 0.30921  0.24466  0.63038  Biso   1.000  H
  H136     1.0000 0.40038  0.20275  0.76057  Biso   1.000  H
  N90      1.0000 0.36804  0.08047  0.84315  Biso   1.000  N
  N91      1.0000 0.36807  0.08039  0.84315  Biso   1.000  N
  H137     1.0000 0.40033  0.20267  0.76057  Biso   1.000  H
  N92      1.0000 0.36814  0.08039  0.84315  Biso   1.000  N
  N93      1.0000 0.34156  0.15432  0.96048  Biso   1.000  N
  H138     1.0000 0.35469  0.28553  0.87906  Biso   1.000  H
  H139     1.0000 0.35462  0.28553  0.87906  Biso   1.000  H
  N94      1.0000 0.34164  0.15432  0.96048  Biso   1.000  N
  H140     1.0000 0.09290  0.41723  0.91197  Biso   1.000  H
  H141     1.0000 0.09283  0.41723  0.91197  Biso   1.000  H
  H142     1.0000 0.19885  0.41095  0.93605  Biso   1.000  H
  H143     1.0000 0.19888  0.41088  0.93605  Biso   1.000  H
  H144     1.0000 0.19892  0.41095  0.93605  Biso   1.000  H
  N95      1.0000 0.12640  0.33303  0.03252  Biso   1.000  N
  N96      1.0000 0.12633  0.33303  0.03252  Biso   1.000  N
  N97      1.0000 0.12643  0.33295  0.03252  Biso   1.000  N
  C154     1.0000 0.16824  0.13120  0.61430  Biso   1.000  C
  C155     1.0000 0.16825  0.13122  0.61423  Biso   1.000  C
  C156     1.0000 0.16832  0.13122  0.61423  Biso   1.000  C
  C157     1.0000 0.33503  0.04550  0.64974  Biso   1.000  C
  C158     1.0000 0.33509  0.04548  0.64981  Biso   1.000  C
  C159     1.0000 0.33510  0.04550  0.64974  Biso   1.000  C
  C160     1.0000 0.33499  0.04556  0.64981  Biso   1.000  C
  C161     1.0000 0.42410  0.00331  0.79026  Biso   1.000  C
  C162     1.0000 0.42403  0.00331  0.79026  Biso   1.000  C
  C163     1.0000 0.37418  0.06236  0.93448  Biso   1.000  C
  C164     1.0000 0.37414  0.06228  0.93448  Biso   1.000  C
  C165     1.0000 0.37421  0.06228  0.93448  Biso   1.000  C
  C166     1.0000 0.35901  0.16513  0.04709  Biso   1.000  C
  C167     1.0000 0.35900  0.16512  0.04716  Biso   1.000  C
  C168     1.0000 0.35893  0.16513  0.04709  Biso   1.000  C
  C169     1.0000 0.35903  0.16504  0.04716  Biso   1.000  C
  C170     1.0000 0.02462  0.36259  0.07049  Biso   1.000  C
  C171     1.0000 0.19770  0.30069  0.10155  Biso   1.000  C
  C172     1.0000 0.02458  0.36265  0.07056  Biso   1.000  C
  C173     1.0000 0.02461  0.36258  0.07056  Biso   1.000  C
  O51      1.0000 0.08710  0.20134  0.59904  Biso   1.000  O
  N98      1.0000 0.19626  0.03759  0.59535  Biso   1.000  N
  O52      1.0000 0.08702  0.20132  0.59911  Biso   1.000  O
  O53      1.0000 0.08705  0.20126  0.59904  Biso   1.000  O
  N99      1.0000 0.19625  0.03758  0.59542  Biso   1.000  N
  N100     1.0000 0.19622  0.03765  0.59542  Biso   1.000  N
  C174     1.0000 0.30324  0.97866  0.60664  Biso   1.000  C
  C175     1.0000 0.30323  0.97865  0.60670  Biso   1.000  C
  C176     1.0000 0.30320  0.97859  0.60664  Biso   1.000  C
  H145     1.0000 0.39518  0.06170  0.61389  Biso   1.000  H
  H146     1.0000 0.39511  0.06170  0.61389  Biso   1.000  H
  N101     1.0000 0.35901  0.98380  0.73963  Biso   1.000  N
  N102     1.0000 0.35910  0.98371  0.73970  Biso   1.000  N
  N103     1.0000 0.35904  0.98372  0.73963  Biso   1.000  N
  N104     1.0000 0.35903  0.98371  0.73970  Biso   1.000  N
  H147     1.0000 0.47694  0.02491  0.74778  Biso   1.000  H
  H148     1.0000 0.47701  0.02491  0.74778  Biso   1.000  H
  H149     1.0000 0.45828  0.94020  0.83076  Biso   1.000  H
  H150     1.0000 0.45838  0.94013  0.83076  Biso   1.000  H
  H151     1.0000 0.45831  0.94013  0.83076  Biso   1.000  H
  O54      1.0000 0.40313  0.97970  0.98429  Biso   1.000  O
  O55      1.0000 0.40316  0.97962  0.98429  Biso   1.000  O
  N105     1.0000 0.26619  0.19599  0.10832  Biso   1.000  N
  H152     1.0000 0.39343  0.21558  0.03601  Biso   1.000  H
  H153     1.0000 0.40500  0.10007  0.07644  Biso   1.000  H
  H154     1.0000 0.39339  0.21564  0.03608  Biso   1.000  H
  H155     1.0000 0.40497  0.10014  0.07644  Biso   1.000  H
  H156     1.0000 0.39336  0.21558  0.03601  Biso   1.000  H
  H157     1.0000 0.39342  0.21557  0.03608  Biso   1.000  H
  O56      1.0000 0.95028  0.40281  0.02930  Biso   1.000  O
  O57      1.0000 0.95027  0.40279  0.02937  Biso   1.000  O
  O58      1.0000 0.95030  0.40272  0.02937  Biso   1.000  O
  N106     1.0000 0.02400  0.33892  0.16483  Biso   1.000  N
  N107     1.0000 0.02402  0.33884  0.16483  Biso   1.000  N
  C177     1.0000 0.12574  0.29469  0.19329  Biso   1.000  C
  H158     1.0000 0.23462  0.34903  0.09519  Biso   1.000  H
  C178     1.0000 0.12570  0.29475  0.19336  Biso   1.000  C
  H159     1.0000 0.23461  0.34901  0.09526  Biso   1.000  H
  C179     1.0000 0.12566  0.29469  0.19329  Biso   1.000  C
  H160     1.0000 0.23455  0.34903  0.09519  Biso   1.000  H
  C180     1.0000 0.12573  0.29467  0.19336  Biso   1.000  C
  H161     1.0000 0.23464  0.34894  0.09526  Biso   1.000  H
  C181     1.0000 0.13629  0.00810  0.54828  Biso   1.000  C
  C182     1.0000 0.13621  0.00810  0.54828  Biso   1.000  C
  C183     1.0000 0.13619  0.00817  0.54828  Biso   1.000  C
  N108     1.0000 0.31870  0.88359  0.67293  Biso   1.000  N
  H162     1.0000 0.34450  0.96767  0.54787  Biso   1.000  H
  N109     1.0000 0.31879  0.88350  0.67300  Biso   1.000  N
  H163     1.0000 0.34453  0.96759  0.54787  Biso   1.000  H
  N110     1.0000 0.31873  0.88352  0.67293  Biso   1.000  N
  C184     1.0000 0.35864  0.88519  0.74716  Biso   1.000  C
  C185     1.0000 0.35867  0.88511  0.74716  Biso   1.000  C
  C186     1.0000 0.24309  0.13288  0.18495  Biso   1.000  C
  C187     1.0000 0.24313  0.13296  0.18495  Biso   1.000  C
  C188     1.0000 0.24316  0.13288  0.18495  Biso   1.000  C
  C189     1.0000 0.93215  0.37383  0.22545  Biso   1.000  C
  C190     1.0000 0.93222  0.37383  0.22545  Biso   1.000  C
  C191     1.0000 0.93225  0.37375  0.22545  Biso   1.000  C
  N111     1.0000 0.15467  0.18791  0.23133  Biso   1.000  N
  N112     1.0000 0.15474  0.18791  0.23133  Biso   1.000  N
  N113     1.0000 0.15476  0.18784  0.23133  Biso   1.000  N
  H164     1.0000 0.13561  0.33310  0.23380  Biso   1.000  H
  H165     1.0000 0.13560  0.33309  0.23386  Biso   1.000  H
  H166     1.0000 0.07872  0.06844  0.52762  Biso   1.000  H
  H167     1.0000 0.07876  0.06838  0.52755  Biso   1.000  H
  H168     1.0000 0.07883  0.06838  0.52755  Biso   1.000  H
  N114     1.0000 0.09648  0.92996  0.60109  Biso   1.000  N
  H169     1.0000 0.17859  0.98450  0.49437  Biso   1.000  H
  N115     1.0000 0.09658  0.92989  0.60109  Biso   1.000  N
  H170     1.0000 0.17862  0.98442  0.49437  Biso   1.000  H
  N116     1.0000 0.09651  0.92989  0.60109  Biso   1.000  N
  N117     1.0000 0.09655  0.92996  0.60109  Biso   1.000  N
  C192     1.0000 0.32479  0.78943  0.65138  Biso   1.000  C
  C193     1.0000 0.32486  0.78943  0.65138  Biso   1.000  C
  O59      1.0000 0.39130  0.81389  0.80784  Biso   1.000  O
  O60      1.0000 0.39139  0.81379  0.80791  Biso   1.000  O
  O61      1.0000 0.39132  0.81381  0.80784  Biso   1.000  O
  O62      1.0000 0.39136  0.81387  0.80791  Biso   1.000  O
  O63      1.0000 0.29211  0.04257  0.20794  Biso   1.000  O
  O64      1.0000 0.29215  0.04265  0.20794  Biso   1.000  O
  O65      1.0000 0.29208  0.04265  0.20794  Biso   1.000  O
  N118     1.0000 0.89228  0.29681  0.27662  Biso   1.000  N
  H171     1.0000 0.87935  0.42563  0.18974  Biso   1.000  H
  H172     1.0000 0.94673  0.40650  0.26739  Biso   1.000  H
  N119     1.0000 0.89235  0.29681  0.27662  Biso   1.000  N
  H173     1.0000 0.87942  0.42563  0.18974  Biso   1.000  H
  H174     1.0000 0.94672  0.40649  0.26746  Biso   1.000  H
  N120     1.0000 0.89238  0.29674  0.27662  Biso   1.000  N
  H175     1.0000 0.87945  0.42555  0.18974  Biso   1.000  H
  C194     1.0000 0.12599  0.14890  0.32588  Biso   1.000  C
  C195     1.0000 0.12603  0.14896  0.32595  Biso   1.000  C
  C196     1.0000 0.12606  0.14889  0.32595  Biso   1.000  C
  C197     1.0000 0.99140  0.95086  0.62559  Biso   1.000  C
  C198     1.0000 0.99150  0.95079  0.62559  Biso   1.000  C
  C199     1.0000 0.99143  0.95079  0.62559  Biso   1.000  C
  C200     1.0000 0.15104  0.82247  0.60116  Biso   1.000  C
  C201     1.0000 0.15107  0.82240  0.60116  Biso   1.000  C
  C202     1.0000 0.15100  0.82240  0.60116  Biso   1.000  C
  N121     1.0000 0.22793  0.77397  0.66465  Biso   1.000  N
  N122     1.0000 0.22796  0.77389  0.66465  Biso   1.000  N
  H176     1.0000 0.35368  0.78896  0.58796  Biso   1.000  H
  H177     1.0000 0.37170  0.73259  0.68908  Biso   1.000  H
  H178     1.0000 0.35378  0.78889  0.58796  Biso   1.000  H
  H179     1.0000 0.37180  0.73252  0.68908  Biso   1.000  H
  H180     1.0000 0.35371  0.78889  0.58796  Biso   1.000  H
  H181     1.0000 0.37173  0.73252  0.68908  Biso   1.000  H
  H182     1.0000 0.35375  0.78896  0.58796  Biso   1.000  H
  C203     1.0000 0.79808  0.29488  0.26670  Biso   1.000  C
  C204     1.0000 0.93119  0.22779  0.35852  Biso   1.000  C
  C205     1.0000 0.79812  0.29494  0.26677  Biso   1.000  C
  C206     1.0000 0.93123  0.22786  0.35852  Biso   1.000  C
  C207     1.0000 0.79805  0.29496  0.26670  Biso   1.000  C
  C208     1.0000 0.79814  0.29487  0.26677  Biso   1.000  C
  C209     1.0000 0.93126  0.22779  0.35852  Biso   1.000  C
  N123     1.0000 0.02373  0.14269  0.34394  Biso   1.000  N
  H183     1.0000 0.13044  0.19314  0.36290  Biso   1.000  H
  H184     1.0000 0.17504  0.08103  0.34449  Biso   1.000  H
  H185     1.0000 0.13043  0.19313  0.36296  Biso   1.000  H
  H186     1.0000 0.17503  0.08102  0.34456  Biso   1.000  H
  H187     1.0000 0.13037  0.19314  0.36290  Biso   1.000  H
  H188     1.0000 0.17497  0.08103  0.34449  Biso   1.000  H
  H189     1.0000 0.13046  0.19305  0.36296  Biso   1.000  H
  H190     1.0000 0.17506  0.08094  0.34456  Biso   1.000  H
  N124     1.0000 0.97630  0.85738  0.65603  Biso   1.000  N
  N125     1.0000 0.97639  0.85729  0.65610  Biso   1.000  N
  N126     1.0000 0.97633  0.85731  0.65603  Biso   1.000  N
  N127     1.0000 0.97629  0.85737  0.65610  Biso   1.000  N
  O66      1.0000 0.92663  0.03429  0.61827  Biso   1.000  O
  O67      1.0000 0.92670  0.03429  0.61827  Biso   1.000  O
  O68      1.0000 0.92660  0.03437  0.61827  Biso   1.000  O
  H191     1.0000 0.17990  0.81037  0.53925  Biso   1.000  H
  C210     1.0000 0.06884  0.77229  0.64146  Biso   1.000  C
  H192     1.0000 0.17999  0.81028  0.53932  Biso   1.000  H
  C211     1.0000 0.06887  0.77221  0.64146  Biso   1.000  C
  H193     1.0000 0.17993  0.81030  0.53925  Biso   1.000  H
  C212     1.0000 0.06879  0.77221  0.64146  Biso   1.000  C
  H194     1.0000 0.17989  0.81036  0.53932  Biso   1.000  H
  C213     1.0000 0.20195  0.70519  0.73327  Biso   1.000  C
  C214     1.0000 0.20197  0.70511  0.73327  Biso   1.000  C
  C215     1.0000 0.20190  0.70511  0.73327  Biso   1.000  C
  N128     1.0000 0.77210  0.22610  0.33532  Biso   1.000  N
  O69      1.0000 0.74689  0.35251  0.20554  Biso   1.000  O
  N129     1.0000 0.77217  0.22610  0.33532  Biso   1.000  N
  O70      1.0000 0.74692  0.35243  0.20554  Biso   1.000  O
  C216     1.0000 0.84899  0.17760  0.39881  Biso   1.000  C
  H195     1.0000 0.93929  0.26510  0.40093  Biso   1.000  H
  C217     1.0000 0.84906  0.17760  0.39881  Biso   1.000  C
  H196     1.0000 0.93936  0.26510  0.40093  Biso   1.000  H
  C218     1.0000 0.00863  0.04921  0.37439  Biso   1.000  C
  C219     1.0000 0.00862  0.04919  0.37446  Biso   1.000  C
  C220     1.0000 0.87404  0.85117  0.67409  Biso   1.000  C
  C221     1.0000 0.87406  0.85110  0.67409  Biso   1.000  C
  C222     1.0000 0.87399  0.85110  0.67409  Biso   1.000  C
  N130     1.0000 0.10775  0.70326  0.72335  Biso   1.000  N
  H197     1.0000 0.06074  0.73497  0.59904  Biso   1.000  H
  H198     1.0000 0.06076  0.73488  0.59911  Biso   1.000  H
  N131     1.0000 0.10778  0.70318  0.72335  Biso   1.000  N
  H199     1.0000 0.06070  0.73490  0.59904  Biso   1.000  H
  H200     1.0000 0.06073  0.73496  0.59911  Biso   1.000  H
  O71      1.0000 0.25314  0.64756  0.79444  Biso   1.000  O
  O72      1.0000 0.25313  0.64755  0.79450  Biso   1.000  O
  O73      1.0000 0.25317  0.64749  0.79444  Biso   1.000  O
  C223     1.0000 0.67524  0.21064  0.34860  Biso   1.000  C
  C224     1.0000 0.67523  0.21063  0.34867  Biso   1.000  C
  C225     1.0000 0.67517  0.21064  0.34860  Biso   1.000  C
  C226     1.0000 0.67526  0.21055  0.34867  Biso   1.000  C
  N132     1.0000 0.90355  0.07011  0.39888  Biso   1.000  N
  N133     1.0000 0.90354  0.07009  0.39895  Biso   1.000  N
  H201     1.0000 0.82013  0.18970  0.46073  Biso   1.000  H
  O74      1.0000 0.07343  0.96571  0.38171  Biso   1.000  O
  O75      1.0000 0.07336  0.96571  0.38171  Biso   1.000  O
  O76      1.0000 0.07340  0.96578  0.38171  Biso   1.000  O
  N134     1.0000 0.84536  0.81216  0.76864  Biso   1.000  N
  H202     1.0000 0.86959  0.80693  0.63708  Biso   1.000  H
  H203     1.0000 0.82499  0.91904  0.65548  Biso   1.000  H
  N135     1.0000 0.84535  0.81214  0.76871  Biso   1.000  N
  H204     1.0000 0.86966  0.80693  0.63708  Biso   1.000  H
  H205     1.0000 0.82506  0.91904  0.65548  Biso   1.000  H
  N136     1.0000 0.84532  0.81208  0.76864  Biso   1.000  N
  C227     1.0000 0.06788  0.62624  0.77453  Biso   1.000  C
  C228     1.0000 0.06787  0.62623  0.77459  Biso   1.000  C
  C229     1.0000 0.06780  0.62624  0.77453  Biso   1.000  C
  N137     1.0000 0.68133  0.11648  0.32705  Biso   1.000  N
  H206     1.0000 0.64635  0.21111  0.41202  Biso   1.000  H
  H207     1.0000 0.62833  0.26748  0.31090  Biso   1.000  H
  N138     1.0000 0.68130  0.11656  0.32705  Biso   1.000  N
  H208     1.0000 0.62829  0.26754  0.31097  Biso   1.000  H
  H209     1.0000 0.64627  0.21111  0.41202  Biso   1.000  H
  H210     1.0000 0.62830  0.26755  0.31090  Biso   1.000  H
  H211     1.0000 0.62832  0.26746  0.31097  Biso   1.000  H
  C230     1.0000 0.86384  0.99190  0.45170  Biso   1.000  C
  C231     1.0000 0.86373  0.99196  0.45177  Biso   1.000  C
  C232     1.0000 0.86380  0.99196  0.45177  Biso   1.000  C
  C233     1.0000 0.87429  0.70539  0.80668  Biso   1.000  C
  C234     1.0000 0.75694  0.86719  0.81503  Biso   1.000  C
  C235     1.0000 0.87439  0.70531  0.80668  Biso   1.000  C
  C236     1.0000 0.75696  0.86710  0.81510  Biso   1.000  C
  C237     1.0000 0.87432  0.70531  0.80668  Biso   1.000  C
  C238     1.0000 0.75697  0.86711  0.81503  Biso   1.000  C
  C239     1.0000 0.75693  0.86717  0.81510  Biso   1.000  C
  N139     1.0000 0.97603  0.66115  0.83514  Biso   1.000  N
  N140     1.0000 0.97610  0.66114  0.83521  Biso   1.000  N
  N141     1.0000 0.97602  0.66114  0.83521  Biso   1.000  N
  H212     1.0000 0.12068  0.57444  0.81024  Biso   1.000  H
  H213     1.0000 0.05330  0.59357  0.73259  Biso   1.000  H
  H214     1.0000 0.12067  0.57443  0.81031  Biso   1.000  H
  H215     1.0000 0.05340  0.59349  0.73259  Biso   1.000  H
  H216     1.0000 0.12060  0.57444  0.81024  Biso   1.000  H
  H217     1.0000 0.05333  0.59349  0.73259  Biso   1.000  H
  H218     1.0000 0.05337  0.59357  0.73259  Biso   1.000  H
  C240     1.0000 0.64139  0.11488  0.25282  Biso   1.000  C
  C241     1.0000 0.64143  0.11496  0.25282  Biso   1.000  C
  C242     1.0000 0.64146  0.11488  0.25282  Biso   1.000  C
  C243     1.0000 0.69679  0.02141  0.39334  Biso   1.000  C
  C244     1.0000 0.69686  0.02141  0.39334  Biso   1.000  C
  N142     1.0000 0.80380  0.96240  0.40463  Biso   1.000  N
  H219     1.0000 0.92130  0.93162  0.47243  Biso   1.000  H
  N143     1.0000 0.80384  0.96248  0.40463  Biso   1.000  N
  H220     1.0000 0.92137  0.93162  0.47243  Biso   1.000  H
  H221     1.0000 0.82144  0.01558  0.50561  Biso   1.000  H
  H222     1.0000 0.82141  0.01565  0.50561  Biso   1.000  H
  H223     1.0000 0.86442  0.66697  0.76618  Biso   1.000  H
  C245     1.0000 0.80233  0.69939  0.89843  Biso   1.000  C
  H224     1.0000 0.86451  0.66689  0.76618  Biso   1.000  H
  C246     1.0000 0.80242  0.69930  0.89849  Biso   1.000  C
  H225     1.0000 0.86444  0.66689  0.76618  Biso   1.000  H
  C247     1.0000 0.80235  0.69931  0.89843  Biso   1.000  C
  C248     1.0000 0.80232  0.69937  0.89849  Biso   1.000  C
  N144     1.0000 0.73383  0.80408  0.89165  Biso   1.000  N
  O77      1.0000 0.70792  0.95750  0.79204  Biso   1.000  O
  N145     1.0000 0.73386  0.80401  0.89165  Biso   1.000  N
  O78      1.0000 0.70794  0.95741  0.79211  Biso   1.000  O
  O79      1.0000 0.70795  0.95742  0.79204  Biso   1.000  O
  C249     1.0000 0.97541  0.63748  0.92949  Biso   1.000  C
  C250     1.0000 0.97551  0.63740  0.92949  Biso   1.000  C
  C251     1.0000 0.97544  0.63740  0.92949  Biso   1.000  C
  C252     1.0000 0.97548  0.63748  0.92949  Biso   1.000  C
  N146     1.0000 0.64102  0.01627  0.26034  Biso   1.000  N
  N147     1.0000 0.64099  0.01635  0.26034  Biso   1.000  N
  O80      1.0000 0.60873  0.18619  0.19213  Biso   1.000  O
  O81      1.0000 0.60870  0.18626  0.19213  Biso   1.000  O
  O82      1.0000 0.60866  0.18619  0.19213  Biso   1.000  O
  C253     1.0000 0.66503  0.95450  0.35024  Biso   1.000  C
  C254     1.0000 0.66495  0.95450  0.35024  Biso   1.000  C
  C255     1.0000 0.66500  0.95457  0.35024  Biso   1.000  C
  H226     1.0000 0.65553  0.03240  0.45211  Biso   1.000  H
  C256     1.0000 0.83181  0.86878  0.38575  Biso   1.000  C
  C257     1.0000 0.83178  0.86885  0.38575  Biso   1.000  C
  C258     1.0000 0.83185  0.86885  0.38575  Biso   1.000  C
  N148     1.0000 0.87363  0.66704  0.96746  Biso   1.000  N
  H227     1.0000 0.76541  0.65104  0.90479  Biso   1.000  H
  N149     1.0000 0.87370  0.66704  0.96746  Biso   1.000  N
  H228     1.0000 0.76548  0.65104  0.90479  Biso   1.000  H
  C259     1.0000 0.64102  0.83494  0.95288  Biso   1.000  C
  C260     1.0000 0.64109  0.83494  0.95288  Biso   1.000  C
  O83      1.0000 0.04975  0.59726  0.97067  Biso   1.000  O
  O84      1.0000 0.04978  0.59719  0.97067  Biso   1.000  O
  C261     1.0000 0.57603  0.99668  0.20971  Biso   1.000  C
  C262     1.0000 0.57593  0.99676  0.20971  Biso   1.000  C
  C263     1.0000 0.57600  0.99676  0.20971  Biso   1.000  C
  N150     1.0000 0.75441  0.86370  0.34873  Biso   1.000  N
  N151     1.0000 0.75438  0.86378  0.34873  Biso   1.000  N
  H229     1.0000 0.60494  0.93829  0.38609  Biso   1.000  H
  H230     1.0000 0.60483  0.93835  0.38616  Biso   1.000  H
  H231     1.0000 0.60491  0.93835  0.38616  Biso   1.000  H
  O85      1.0000 0.91300  0.79873  0.40093  Biso   1.000  O
  C264     1.0000 0.84535  0.62896  0.06091  Biso   1.000  C
  C265     1.0000 0.84525  0.62903  0.06091  Biso   1.000  C
  C266     1.0000 0.84532  0.62903  0.06091  Biso   1.000  C
  H232     1.0000 0.60660  0.78449  0.96397  Biso   1.000  H
  H233     1.0000 0.59503  0.90001  0.92353  Biso   1.000  H
  H234     1.0000 0.60670  0.78441  0.96397  Biso   1.000  H
  H235     1.0000 0.59505  0.89992  0.92360  Biso   1.000  H
  H236     1.0000 0.60663  0.78441  0.96397  Biso   1.000  H
  H237     1.0000 0.59506  0.89993  0.92353  Biso   1.000  H
  N152     1.0000 0.65849  0.84567  0.03950  Biso   1.000  N
  N153     1.0000 0.65846  0.84573  0.03957  Biso   1.000  N
  N154     1.0000 0.65846  0.84575  0.03950  Biso   1.000  N
  N155     1.0000 0.63199  0.91960  0.15683  Biso   1.000  N
  N156     1.0000 0.63196  0.91968  0.15683  Biso   1.000  N
  H238     1.0000 0.52311  0.97508  0.25220  Biso   1.000  H
  H239     1.0000 0.52308  0.97514  0.25227  Biso   1.000  H
  H240     1.0000 0.52309  0.97516  0.25220  Biso   1.000  H
  H241     1.0000 0.54175  0.05987  0.16921  Biso   1.000  H
  H242     1.0000 0.54172  0.05994  0.16921  Biso   1.000  H
  H243     1.0000 0.54165  0.05994  0.16921  Biso   1.000  H
  C267     1.0000 0.75210  0.76836  0.33485  Biso   1.000  C
  C268     1.0000 0.75208  0.76843  0.33485  Biso   1.000  C
  C269     1.0000 0.75215  0.76843  0.33485  Biso   1.000  C
  N157     1.0000 0.79301  0.70552  0.11441  Biso   1.000  N
  H244     1.0000 0.90723  0.58277  0.08800  Biso   1.000  H
  H245     1.0000 0.80118  0.58912  0.06392  Biso   1.000  H
  N158     1.0000 0.79294  0.70552  0.11441  Biso   1.000  N
  H246     1.0000 0.90712  0.58283  0.08807  Biso   1.000  H
  H247     1.0000 0.90720  0.58284  0.08800  Biso   1.000  H
  H248     1.0000 0.90719  0.58283  0.08807  Biso   1.000  H
  C270     1.0000 0.68468  0.76052  0.11503  Biso   1.000  C
  C271     1.0000 0.62592  0.93771  0.06550  Biso   1.000  C
  C272     1.0000 0.62584  0.93770  0.06556  Biso   1.000  C
  C273     1.0000 0.62585  0.93771  0.06550  Biso   1.000  C
  C274     1.0000 0.62591  0.93770  0.06556  Biso   1.000  C
  C275     1.0000 0.65730  0.81237  0.19760  Biso   1.000  C
  C276     1.0000 0.65726  0.81243  0.19767  Biso   1.000  C
  C277     1.0000 0.65727  0.81245  0.19760  Biso   1.000  C
  C278     1.0000 0.65733  0.81243  0.19767  Biso   1.000  C
  N159     1.0000 0.75182  0.77053  0.23934  Biso   1.000  N
  N160     1.0000 0.75175  0.77053  0.23934  Biso   1.000  N
  H249     1.0000 0.69082  0.75541  0.36960  Biso   1.000  H
  H250     1.0000 0.81202  0.71262  0.35749  Biso   1.000  H
  H251     1.0000 0.69074  0.75539  0.36967  Biso   1.000  H
  H252     1.0000 0.81201  0.71260  0.35756  Biso   1.000  H
  H253     1.0000 0.69079  0.75547  0.36967  Biso   1.000  H
  C279     1.0000 0.82730  0.70562  0.19234  Biso   1.000  C
  C280     1.0000 0.82723  0.70562  0.19234  Biso   1.000  C
  H254     1.0000 0.64544  0.71447  0.12091  Biso   1.000  H
  H255     1.0000 0.64534  0.71454  0.12091  Biso   1.000  H
  H256     1.0000 0.64541  0.71454  0.12091  Biso   1.000  H
  O86      1.0000 0.59690  0.02037  0.01569  Biso   1.000  O
  O87      1.0000 0.59693  0.02043  0.01576  Biso   1.000  O
  O88      1.0000 0.59687  0.02045  0.01569  Biso   1.000  O
  O89      1.0000 0.59689  0.02036  0.01576  Biso   1.000  O
  H257     1.0000 0.59972  0.79732  0.23941  Biso   1.000  H
  H258     1.0000 0.59965  0.79732  0.23941  Biso   1.000  H
  O90      1.0000 0.91223  0.65469  0.21635  Biso   1.000  O
  O91      1.0000 0.91216  0.65469  0.21635  Biso   1.000  O
  O92      1.0000 0.91221  0.65477  0.21635  Biso   1.000  O
  C281     1.0000 0.17275  0.29438  0.80764  Biso   1.000  C
  N161     1.0000 0.24827  0.22953  0.76071  Biso   1.000  N
  N162     1.0000 0.24824  0.22947  0.76064  Biso   1.000  N
  N163     1.0000 0.24828  0.22955  0.76064  Biso   1.000  N
  N164     1.0000 0.20709  0.29455  0.88556  Biso   1.000  N
  N165     1.0000 0.20705  0.29448  0.88556  Biso   1.000  N
  O93      1.0000 0.08782  0.34530  0.78363  Biso   1.000  O
  O94      1.0000 0.08789  0.34529  0.78369  Biso   1.000  O
  O95      1.0000 0.08789  0.34530  0.78363  Biso   1.000  O
  O96      1.0000 0.08786  0.34536  0.78369  Biso   1.000  O
  C282     1.0000 0.24795  0.23164  0.66513  Biso   1.000  C
  C283     1.0000 0.24794  0.23162  0.66520  Biso   1.000  C
  C284     1.0000 0.34276  0.18763  0.80237  Biso   1.000  C
  C285     1.0000 0.17279  0.29444  0.80771  Biso   1.000  C
  C286     1.0000 0.17280  0.29446  0.80764  Biso   1.000  C
  C287     1.0000 0.34283  0.18763  0.80237  Biso   1.000  C
  C288     1.0000 0.17272  0.29444  0.80771  Biso   1.000  C
  C289     1.0000 0.31535  0.23956  0.88495  Biso   1.000  C
  C290     1.0000 0.31538  0.23948  0.88495  Biso   1.000  C
  C291     1.0000 0.31542  0.23956  0.88495  Biso   1.000  C
  C292     1.0000 0.15478  0.37104  0.93906  Biso   1.000  C
  C293     1.0000 0.15471  0.37104  0.93906  Biso   1.000  C
  N166     1.0000 0.24565  0.13630  0.65124  Biso   1.000  N
  N167     1.0000 0.24564  0.13628  0.65131  Biso   1.000  N
  N168     1.0000 0.24572  0.13630  0.65124  Biso   1.000  N
  N169     1.0000 0.24561  0.13636  0.65131  Biso   1.000  N
  H259     1.0000 0.30923  0.24459  0.63038  Biso   1.000  H
  H260     1.0000 0.18801  0.28745  0.64249  Biso   1.000  H
  H261     1.0000 0.18804  0.28738  0.64249  Biso   1.000  H
  H262     1.0000 0.30931  0.24459  0.63038  Biso   1.000  H
  H263     1.0000 0.18811  0.28738  0.64249  Biso   1.000  H
  H264     1.0000 0.30921  0.24466  0.63038  Biso   1.000  H
  H265     1.0000 0.40038  0.20275  0.76057  Biso   1.000  H
  N170     1.0000 0.36804  0.08047  0.84315  Biso   1.000  N
  N171     1.0000 0.36807  0.08039  0.84315  Biso   1.000  N
  H266     1.0000 0.40033  0.20267  0.76057  Biso   1.000  H
  N172     1.0000 0.36814  0.08039  0.84315  Biso   1.000  N
  N173     1.0000 0.34156  0.15432  0.96048  Biso   1.000  N
  H267     1.0000 0.35469  0.28553  0.87906  Biso   1.000  H
  H268     1.0000 0.35462  0.28553  0.87906  Biso   1.000  H
  N174     1.0000 0.34164  0.15432  0.96048  Biso   1.000  N
  H269     1.0000 0.09283  0.41723  0.91197  Biso   1.000  H
  H270     1.0000 0.09290  0.41723  0.91197  Biso   1.000  H
  H271     1.0000 0.19885  0.41095  0.93605  Biso   1.000  H
  H272     1.0000 0.19888  0.41088  0.93605  Biso   1.000  H
  H273     1.0000 0.19892  0.41095  0.93605  Biso   1.000  H
  N175     1.0000 0.12640  0.33303  0.03252  Biso   1.000  N
  N176     1.0000 0.12633  0.33303  0.03252  Biso   1.000  N
  N177     1.0000 0.12643  0.33295  0.03252  Biso   1.000  N
  C294     1.0000 0.16824  0.13120  0.61430  Biso   1.000  C
  C295     1.0000 0.16825  0.13122  0.61423  Biso   1.000  C
  C296     1.0000 0.16832  0.13122  0.61423  Biso   1.000  C
  C297     1.0000 0.33503  0.04550  0.64974  Biso   1.000  C
  C298     1.0000 0.33509  0.04548  0.64981  Biso   1.000  C
  C299     1.0000 0.33510  0.04550  0.64974  Biso   1.000  C
  C300     1.0000 0.33499  0.04556  0.64981  Biso   1.000  C
  C301     1.0000 0.42410  0.00331  0.79026  Biso   1.000  C
  C302     1.0000 0.42403  0.00331  0.79026  Biso   1.000  C
  C303     1.0000 0.37418  0.06236  0.93448  Biso   1.000  C
  C304     1.0000 0.37414  0.06228  0.93448  Biso   1.000  C
  C305     1.0000 0.37421  0.06228  0.93448  Biso   1.000  C
  C306     1.0000 0.35901  0.16513  0.04709  Biso   1.000  C
  C307     1.0000 0.35900  0.16512  0.04716  Biso   1.000  C
  C308     1.0000 0.35893  0.16513  0.04709  Biso   1.000  C
  C309     1.0000 0.35903  0.16504  0.04716  Biso   1.000  C
  C310     1.0000 0.02462  0.36259  0.07049  Biso   1.000  C
  C311     1.0000 0.19770  0.30069  0.10155  Biso   1.000  C
  C312     1.0000 0.02458  0.36265  0.07056  Biso   1.000  C
  C313     1.0000 0.02461  0.36258  0.07056  Biso   1.000  C
  O97      1.0000 0.08702  0.20132  0.59911  Biso   1.000  O
  N178     1.0000 0.19626  0.03759  0.59535  Biso   1.000  N
  O98      1.0000 0.08705  0.20126  0.59904  Biso   1.000  O
  N179     1.0000 0.19625  0.03758  0.59542  Biso   1.000  N
  O99      1.0000 0.08710  0.20134  0.59904  Biso   1.000  O
  N180     1.0000 0.19622  0.03765  0.59542  Biso   1.000  N
  C314     1.0000 0.30324  0.97866  0.60664  Biso   1.000  C
  C315     1.0000 0.30323  0.97865  0.60670  Biso   1.000  C
  C316     1.0000 0.30320  0.97859  0.60664  Biso   1.000  C
  H274     1.0000 0.39511  0.06170  0.61389  Biso   1.000  H
  H275     1.0000 0.39518  0.06170  0.61389  Biso   1.000  H
  N181     1.0000 0.35901  0.98380  0.73963  Biso   1.000  N
  N182     1.0000 0.35910  0.98371  0.73970  Biso   1.000  N
  N183     1.0000 0.35904  0.98372  0.73963  Biso   1.000  N
  N184     1.0000 0.35903  0.98371  0.73970  Biso   1.000  N
  H276     1.0000 0.47694  0.02491  0.74778  Biso   1.000  H
  H277     1.0000 0.45828  0.94020  0.83076  Biso   1.000  H
  H278     1.0000 0.45838  0.94013  0.83076  Biso   1.000  H
  H279     1.0000 0.45831  0.94013  0.83076  Biso   1.000  H
  H280     1.0000 0.47701  0.02491  0.74778  Biso   1.000  H
  O100     1.0000 0.40313  0.97970  0.98429  Biso   1.000  O
  O101     1.0000 0.40316  0.97962  0.98429  Biso   1.000  O
  N185     1.0000 0.26619  0.19599  0.10832  Biso   1.000  N
  H281     1.0000 0.39343  0.21558  0.03601  Biso   1.000  H
  H282     1.0000 0.40500  0.10007  0.07644  Biso   1.000  H
  H283     1.0000 0.39339  0.21564  0.03608  Biso   1.000  H
  H284     1.0000 0.40497  0.10014  0.07644  Biso   1.000  H
  H285     1.0000 0.39336  0.21558  0.03601  Biso   1.000  H
  H286     1.0000 0.39342  0.21557  0.03608  Biso   1.000  H
  O102     1.0000 0.95028  0.40281  0.02930  Biso   1.000  O
  O103     1.0000 0.95027  0.40279  0.02937  Biso   1.000  O
  O104     1.0000 0.95030  0.40272  0.02937  Biso   1.000  O
  N186     1.0000 0.02400  0.33892  0.16483  Biso   1.000  N
  N187     1.0000 0.02402  0.33884  0.16483  Biso   1.000  N
  C317     1.0000 0.12574  0.29469  0.19329  Biso   1.000  C
  H287     1.0000 0.23462  0.34903  0.09519  Biso   1.000  H
  C318     1.0000 0.12570  0.29475  0.19336  Biso   1.000  C
  H288     1.0000 0.23461  0.34901  0.09526  Biso   1.000  H
  C319     1.0000 0.12566  0.29469  0.19329  Biso   1.000  C
  H289     1.0000 0.23455  0.34903  0.09519  Biso   1.000  H
  C320     1.0000 0.12573  0.29467  0.19336  Biso   1.000  C
  H290     1.0000 0.23464  0.34894  0.09526  Biso   1.000  H
  C321     1.0000 0.13629  0.00810  0.54828  Biso   1.000  C
  C322     1.0000 0.13621  0.00810  0.54828  Biso   1.000  C
  C323     1.0000 0.13619  0.00817  0.54828  Biso   1.000  C
  N188     1.0000 0.31870  0.88359  0.67293  Biso   1.000  N
  H291     1.0000 0.34450  0.96767  0.54787  Biso   1.000  H
  N189     1.0000 0.31879  0.88350  0.67300  Biso   1.000  N
  H292     1.0000 0.34453  0.96759  0.54787  Biso   1.000  H
  N190     1.0000 0.31873  0.88352  0.67293  Biso   1.000  N
  C324     1.0000 0.35864  0.88519  0.74716  Biso   1.000  C
  C325     1.0000 0.35867  0.88511  0.74716  Biso   1.000  C
  C326     1.0000 0.24309  0.13288  0.18495  Biso   1.000  C
  C327     1.0000 0.24313  0.13296  0.18495  Biso   1.000  C
  C328     1.0000 0.24316  0.13288  0.18495  Biso   1.000  C
  C329     1.0000 0.93215  0.37383  0.22545  Biso   1.000  C
  C330     1.0000 0.93222  0.37383  0.22545  Biso   1.000  C
  C331     1.0000 0.93225  0.37375  0.22545  Biso   1.000  C
  N191     1.0000 0.15467  0.18791  0.23133  Biso   1.000  N
  N192     1.0000 0.15474  0.18791  0.23133  Biso   1.000  N
  N193     1.0000 0.15476  0.18784  0.23133  Biso   1.000  N
  H293     1.0000 0.13561  0.33310  0.23380  Biso   1.000  H
  H294     1.0000 0.13560  0.33309  0.23386  Biso   1.000  H
  H295     1.0000 0.07872  0.06844  0.52762  Biso   1.000  H
  N194     1.0000 0.09648  0.92996  0.60109  Biso   1.000  N
  H296     1.0000 0.17859  0.98450  0.49437  Biso   1.000  H
  N195     1.0000 0.09658  0.92989  0.60109  Biso   1.000  N
  H297     1.0000 0.17862  0.98442  0.49437  Biso   1.000  H
  N196     1.0000 0.09651  0.92989  0.60109  Biso   1.000  N
  N197     1.0000 0.09655  0.92996  0.60109  Biso   1.000  N
  H298     1.0000 0.07876  0.06838  0.52755  Biso   1.000  H
  H299     1.0000 0.07883  0.06838  0.52755  Biso   1.000  H
  C332     1.0000 0.32479  0.78943  0.65138  Biso   1.000  C
  C333     1.0000 0.32486  0.78943  0.65138  Biso   1.000  C
  O105     1.0000 0.39130  0.81389  0.80784  Biso   1.000  O
  O106     1.0000 0.39139  0.81379  0.80791  Biso   1.000  O
  O107     1.0000 0.39132  0.81381  0.80784  Biso   1.000  O
  O108     1.0000 0.39136  0.81387  0.80791  Biso   1.000  O
  O109     1.0000 0.29211  0.04257  0.20794  Biso   1.000  O
  O110     1.0000 0.29215  0.04265  0.20794  Biso   1.000  O
  O111     1.0000 0.29208  0.04265  0.20794  Biso   1.000  O
  N198     1.0000 0.89228  0.29681  0.27662  Biso   1.000  N
  H300     1.0000 0.87935  0.42563  0.18974  Biso   1.000  H
  H301     1.0000 0.94673  0.40650  0.26739  Biso   1.000  H
  N199     1.0000 0.89235  0.29681  0.27662  Biso   1.000  N
  H302     1.0000 0.87942  0.42563  0.18974  Biso   1.000  H
  H303     1.0000 0.94672  0.40649  0.26746  Biso   1.000  H
  N200     1.0000 0.89238  0.29674  0.27662  Biso   1.000  N
  H304     1.0000 0.87945  0.42555  0.18974  Biso   1.000  H
  C334     1.0000 0.12599  0.14890  0.32588  Biso   1.000  C
  C335     1.0000 0.12603  0.14896  0.32595  Biso   1.000  C
  C336     1.0000 0.12606  0.14889  0.32595  Biso   1.000  C
  C337     1.0000 0.99140  0.95086  0.62559  Biso   1.000  C
  C338     1.0000 0.99150  0.95079  0.62559  Biso   1.000  C
  C339     1.0000 0.99143  0.95079  0.62559  Biso   1.000  C
  C340     1.0000 0.15104  0.82247  0.60116  Biso   1.000  C
  C341     1.0000 0.15107  0.82240  0.60116  Biso   1.000  C
  C342     1.0000 0.15100  0.82240  0.60116  Biso   1.000  C
  N201     1.0000 0.22793  0.77397  0.66465  Biso   1.000  N
  N202     1.0000 0.22796  0.77389  0.66465  Biso   1.000  N
  H305     1.0000 0.35368  0.78896  0.58796  Biso   1.000  H
  H306     1.0000 0.37170  0.73259  0.68908  Biso   1.000  H
  H307     1.0000 0.35378  0.78889  0.58796  Biso   1.000  H
  H308     1.0000 0.37180  0.73252  0.68908  Biso   1.000  H
  H309     1.0000 0.35371  0.78889  0.58796  Biso   1.000  H
  H310     1.0000 0.37173  0.73252  0.68908  Biso   1.000  H
  H311     1.0000 0.35375  0.78896  0.58796  Biso   1.000  H
  C343     1.0000 0.79808  0.29488  0.26670  Biso   1.000  C
  C344     1.0000 0.93119  0.22779  0.35852  Biso   1.000  C
  C345     1.0000 0.79812  0.29494  0.26677  Biso   1.000  C
  C346     1.0000 0.93123  0.22786  0.35852  Biso   1.000  C
  C347     1.0000 0.79805  0.29496  0.26670  Biso   1.000  C
  C348     1.0000 0.79814  0.29487  0.26677  Biso   1.000  C
  C349     1.0000 0.93126  0.22779  0.35852  Biso   1.000  C
  N203     1.0000 0.02373  0.14269  0.34394  Biso   1.000  N
  H312     1.0000 0.13044  0.19314  0.36290  Biso   1.000  H
  H313     1.0000 0.17504  0.08103  0.34449  Biso   1.000  H
  H314     1.0000 0.13043  0.19313  0.36296  Biso   1.000  H
  H315     1.0000 0.17503  0.08102  0.34456  Biso   1.000  H
  H316     1.0000 0.13037  0.19314  0.36290  Biso   1.000  H
  H317     1.0000 0.17497  0.08103  0.34449  Biso   1.000  H
  H318     1.0000 0.13046  0.19305  0.36296  Biso   1.000  H
  H319     1.0000 0.17506  0.08094  0.34456  Biso   1.000  H
  N204     1.0000 0.97630  0.85738  0.65603  Biso   1.000  N
  N205     1.0000 0.97639  0.85729  0.65610  Biso   1.000  N
  N206     1.0000 0.97633  0.85731  0.65603  Biso   1.000  N
  N207     1.0000 0.97629  0.85737  0.65610  Biso   1.000  N
  O112     1.0000 0.92663  0.03429  0.61827  Biso   1.000  O
  O113     1.0000 0.92670  0.03429  0.61827  Biso   1.000  O
  O114     1.0000 0.92660  0.03437  0.61827  Biso   1.000  O
  H320     1.0000 0.17990  0.81037  0.53925  Biso   1.000  H
  C350     1.0000 0.06884  0.77229  0.64146  Biso   1.000  C
  H321     1.0000 0.17999  0.81028  0.53932  Biso   1.000  H
  C351     1.0000 0.06887  0.77221  0.64146  Biso   1.000  C
  H322     1.0000 0.17993  0.81030  0.53925  Biso   1.000  H
  C352     1.0000 0.06879  0.77221  0.64146  Biso   1.000  C
  H323     1.0000 0.17989  0.81036  0.53932  Biso   1.000  H
  C353     1.0000 0.20195  0.70519  0.73327  Biso   1.000  C
  C354     1.0000 0.20197  0.70511  0.73327  Biso   1.000  C
  C355     1.0000 0.20190  0.70511  0.73327  Biso   1.000  C
  N208     1.0000 0.77210  0.22610  0.33532  Biso   1.000  N
  O115     1.0000 0.74689  0.35251  0.20554  Biso   1.000  O
  N209     1.0000 0.77217  0.22610  0.33532  Biso   1.000  N
  O116     1.0000 0.74692  0.35243  0.20554  Biso   1.000  O
  C356     1.0000 0.84899  0.17760  0.39881  Biso   1.000  C
  H324     1.0000 0.93929  0.26510  0.40093  Biso   1.000  H
  C357     1.0000 0.84906  0.17760  0.39881  Biso   1.000  C
  H325     1.0000 0.93936  0.26510  0.40093  Biso   1.000  H
  C358     1.0000 0.00863  0.04921  0.37439  Biso   1.000  C
  C359     1.0000 0.00862  0.04919  0.37446  Biso   1.000  C
  C360     1.0000 0.87404  0.85117  0.67409  Biso   1.000  C
  C361     1.0000 0.87406  0.85110  0.67409  Biso   1.000  C
  C362     1.0000 0.87399  0.85110  0.67409  Biso   1.000  C
  N210     1.0000 0.10775  0.70326  0.72335  Biso   1.000  N
  H326     1.0000 0.06074  0.73497  0.59904  Biso   1.000  H
  H327     1.0000 0.06076  0.73488  0.59911  Biso   1.000  H
  N211     1.0000 0.10778  0.70318  0.72335  Biso   1.000  N
  H328     1.0000 0.06070  0.73490  0.59904  Biso   1.000  H
  H329     1.0000 0.06073  0.73496  0.59911  Biso   1.000  H
  O117     1.0000 0.25314  0.64756  0.79444  Biso   1.000  O
  O118     1.0000 0.25313  0.64755  0.79450  Biso   1.000  O
  O119     1.0000 0.25317  0.64749  0.79444  Biso   1.000  O
  C363     1.0000 0.67524  0.21064  0.34860  Biso   1.000  C
  C364     1.0000 0.67523  0.21063  0.34867  Biso   1.000  C
  C365     1.0000 0.67517  0.21064  0.34860  Biso   1.000  C
  C366     1.0000 0.67526  0.21055  0.34867  Biso   1.000  C
  N212     1.0000 0.90355  0.07011  0.39888  Biso   1.000  N
  N213     1.0000 0.90354  0.07009  0.39895  Biso   1.000  N
  H330     1.0000 0.82013  0.18970  0.46073  Biso   1.000  H
  O120     1.0000 0.07343  0.96571  0.38171  Biso   1.000  O
  O121     1.0000 0.07336  0.96571  0.38171  Biso   1.000  O
  O122     1.0000 0.07340  0.96578  0.38171  Biso   1.000  O
  N214     1.0000 0.84536  0.81216  0.76864  Biso   1.000  N
  H331     1.0000 0.86959  0.80693  0.63708  Biso   1.000  H
  H332     1.0000 0.82499  0.91904  0.65548  Biso   1.000  H
  N215     1.0000 0.84535  0.81214  0.76871  Biso   1.000  N
  H333     1.0000 0.86966  0.80693  0.63708  Biso   1.000  H
  H334     1.0000 0.82506  0.91904  0.65548  Biso   1.000  H
  N216     1.0000 0.84532  0.81208  0.76864  Biso   1.000  N
  C367     1.0000 0.06788  0.62624  0.77453  Biso   1.000  C
  C368     1.0000 0.06787  0.62623  0.77459  Biso   1.000  C
  C369     1.0000 0.06780  0.62624  0.77453  Biso   1.000  C
  N217     1.0000 0.68133  0.11648  0.32705  Biso   1.000  N
  H335     1.0000 0.64635  0.21111  0.41202  Biso   1.000  H
  H336     1.0000 0.62833  0.26748  0.31090  Biso   1.000  H
  N218     1.0000 0.68130  0.11656  0.32705  Biso   1.000  N
  H337     1.0000 0.62829  0.26754  0.31097  Biso   1.000  H
  H338     1.0000 0.64627  0.21111  0.41202  Biso   1.000  H
  H339     1.0000 0.62830  0.26755  0.31090  Biso   1.000  H
  H340     1.0000 0.62832  0.26746  0.31097  Biso   1.000  H
  C370     1.0000 0.86384  0.99190  0.45170  Biso   1.000  C
  C371     1.0000 0.86373  0.99196  0.45177  Biso   1.000  C
  C372     1.0000 0.86380  0.99196  0.45177  Biso   1.000  C
  C373     1.0000 0.87429  0.70539  0.80668  Biso   1.000  C
  C374     1.0000 0.75694  0.86719  0.81503  Biso   1.000  C
  C375     1.0000 0.87439  0.70531  0.80668  Biso   1.000  C
  C376     1.0000 0.75696  0.86710  0.81510  Biso   1.000  C
  C377     1.0000 0.87432  0.70531  0.80668  Biso   1.000  C
  C378     1.0000 0.75697  0.86711  0.81503  Biso   1.000  C
  C379     1.0000 0.75693  0.86717  0.81510  Biso   1.000  C
  N219     1.0000 0.97603  0.66115  0.83514  Biso   1.000  N
  N220     1.0000 0.97610  0.66114  0.83521  Biso   1.000  N
  N221     1.0000 0.97602  0.66114  0.83521  Biso   1.000  N
  H341     1.0000 0.12068  0.57444  0.81024  Biso   1.000  H
  H342     1.0000 0.05330  0.59357  0.73259  Biso   1.000  H
  H343     1.0000 0.12067  0.57443  0.81031  Biso   1.000  H
  H344     1.0000 0.05340  0.59349  0.73259  Biso   1.000  H
  H345     1.0000 0.12060  0.57444  0.81024  Biso   1.000  H
  H346     1.0000 0.05333  0.59349  0.73259  Biso   1.000  H
  H347     1.0000 0.05337  0.59357  0.73259  Biso   1.000  H
  C380     1.0000 0.64139  0.11488  0.25282  Biso   1.000  C
  C381     1.0000 0.64143  0.11496  0.25282  Biso   1.000  C
  C382     1.0000 0.64146  0.11488  0.25282  Biso   1.000  C
  C383     1.0000 0.69679  0.02141  0.39334  Biso   1.000  C
  C384     1.0000 0.69686  0.02141  0.39334  Biso   1.000  C
  N222     1.0000 0.80380  0.96240  0.40463  Biso   1.000  N
  H348     1.0000 0.92130  0.93162  0.47243  Biso   1.000  H
  N223     1.0000 0.80384  0.96248  0.40463  Biso   1.000  N
  H349     1.0000 0.92137  0.93162  0.47243  Biso   1.000  H
  H350     1.0000 0.82144  0.01558  0.50561  Biso   1.000  H
  H351     1.0000 0.82141  0.01565  0.50561  Biso   1.000  H
  H352     1.0000 0.86442  0.66697  0.76618  Biso   1.000  H
  C385     1.0000 0.80233  0.69939  0.89843  Biso   1.000  C
  H353     1.0000 0.86451  0.66689  0.76618  Biso   1.000  H
  C386     1.0000 0.80242  0.69930  0.89849  Biso   1.000  C
  H354     1.0000 0.86444  0.66689  0.76618  Biso   1.000  H
  C387     1.0000 0.80235  0.69931  0.89843  Biso   1.000  C
  C388     1.0000 0.80232  0.69937  0.89849  Biso   1.000  C
  N224     1.0000 0.73383  0.80408  0.89165  Biso   1.000  N
  O123     1.0000 0.70792  0.95750  0.79204  Biso   1.000  O
  N225     1.0000 0.73386  0.80401  0.89165  Biso   1.000  N
  O124     1.0000 0.70794  0.95741  0.79211  Biso   1.000  O
  O125     1.0000 0.70795  0.95742  0.79204  Biso   1.000  O
  C389     1.0000 0.97541  0.63748  0.92949  Biso   1.000  C
  C390     1.0000 0.97551  0.63740  0.92949  Biso   1.000  C
  C391     1.0000 0.97544  0.63740  0.92949  Biso   1.000  C
  C392     1.0000 0.97548  0.63748  0.92949  Biso   1.000  C
  N226     1.0000 0.64102  0.01627  0.26034  Biso   1.000  N
  N227     1.0000 0.64099  0.01635  0.26034  Biso   1.000  N
  O126     1.0000 0.60873  0.18619  0.19213  Biso   1.000  O
  O127     1.0000 0.60870  0.18626  0.19213  Biso   1.000  O
  O128     1.0000 0.60866  0.18619  0.19213  Biso   1.000  O
  C393     1.0000 0.66503  0.95450  0.35024  Biso   1.000  C
  C394     1.0000 0.66495  0.95450  0.35024  Biso   1.000  C
  C395     1.0000 0.66500  0.95457  0.35024  Biso   1.000  C
  H355     1.0000 0.65553  0.03240  0.45211  Biso   1.000  H
  C396     1.0000 0.83181  0.86878  0.38575  Biso   1.000  C
  C397     1.0000 0.83178  0.86885  0.38575  Biso   1.000  C
  C398     1.0000 0.83185  0.86885  0.38575  Biso   1.000  C
  N228     1.0000 0.87363  0.66704  0.96746  Biso   1.000  N
  H356     1.0000 0.76541  0.65104  0.90479  Biso   1.000  H
  N229     1.0000 0.87370  0.66704  0.96746  Biso   1.000  N
  H357     1.0000 0.76548  0.65104  0.90479  Biso   1.000  H
  C399     1.0000 0.64102  0.83494  0.95288  Biso   1.000  C
  C400     1.0000 0.64109  0.83494  0.95288  Biso   1.000  C
  O129     1.0000 0.04975  0.59726  0.97067  Biso   1.000  O
  O130     1.0000 0.04978  0.59719  0.97067  Biso   1.000  O
  C401     1.0000 0.57603  0.99668  0.20971  Biso   1.000  C
  C402     1.0000 0.57593  0.99676  0.20971  Biso   1.000  C
  C403     1.0000 0.57600  0.99676  0.20971  Biso   1.000  C
  N230     1.0000 0.75441  0.86370  0.34873  Biso   1.000  N
  N231     1.0000 0.75438  0.86378  0.34873  Biso   1.000  N
  H358     1.0000 0.60494  0.93829  0.38609  Biso   1.000  H
  H359     1.0000 0.60483  0.93835  0.38616  Biso   1.000  H
  H360     1.0000 0.60491  0.93835  0.38616  Biso   1.000  H
  O131     1.0000 0.91300  0.79873  0.40093  Biso   1.000  O
  C404     1.0000 0.84535  0.62896  0.06091  Biso   1.000  C
  C405     1.0000 0.84525  0.62903  0.06091  Biso   1.000  C
  C406     1.0000 0.84532  0.62903  0.06091  Biso   1.000  C
  H361     1.0000 0.60660  0.78449  0.96397  Biso   1.000  H
  H362     1.0000 0.59503  0.90001  0.92353  Biso   1.000  H
  H363     1.0000 0.60670  0.78441  0.96397  Biso   1.000  H
  H364     1.0000 0.59505  0.89992  0.92360  Biso   1.000  H
  H365     1.0000 0.60663  0.78441  0.96397  Biso   1.000  H
  H366     1.0000 0.59506  0.89993  0.92353  Biso   1.000  H
  N232     1.0000 0.65849  0.84567  0.03950  Biso   1.000  N
  N233     1.0000 0.65846  0.84573  0.03957  Biso   1.000  N
  N234     1.0000 0.65846  0.84575  0.03950  Biso   1.000  N
  N235     1.0000 0.63199  0.91960  0.15683  Biso   1.000  N
  N236     1.0000 0.63196  0.91968  0.15683  Biso   1.000  N
  H367     1.0000 0.52311  0.97508  0.25220  Biso   1.000  H
  H368     1.0000 0.52308  0.97514  0.25227  Biso   1.000  H
  H369     1.0000 0.52309  0.97516  0.25220  Biso   1.000  H
  H370     1.0000 0.54175  0.05987  0.16921  Biso   1.000  H
  H371     1.0000 0.54172  0.05994  0.16921  Biso   1.000  H
  H372     1.0000 0.54165  0.05994  0.16921  Biso   1.000  H
  C407     1.0000 0.75210  0.76836  0.33485  Biso   1.000  C
  C408     1.0000 0.75208  0.76843  0.33485  Biso   1.000  C
  C409     1.0000 0.75215  0.76843  0.33485  Biso   1.000  C
  N237     1.0000 0.79301  0.70552  0.11441  Biso   1.000  N
  H373     1.0000 0.90723  0.58277  0.08800  Biso   1.000  H
  H374     1.0000 0.80118  0.58912  0.06392  Biso   1.000  H
  N238     1.0000 0.79294  0.70552  0.11441  Biso   1.000  N
  H375     1.0000 0.90712  0.58283  0.08807  Biso   1.000  H
  H376     1.0000 0.90720  0.58284  0.08800  Biso   1.000  H
  H377     1.0000 0.90719  0.58283  0.08807  Biso   1.000  H
  C410     1.0000 0.68468  0.76052  0.11503  Biso   1.000  C
  C411     1.0000 0.62592  0.93771  0.06550  Biso   1.000  C
  C412     1.0000 0.62584  0.93770  0.06556  Biso   1.000  C
  C413     1.0000 0.62585  0.93771  0.06550  Biso   1.000  C
  C414     1.0000 0.62591  0.93770  0.06556  Biso   1.000  C
  C415     1.0000 0.65730  0.81237  0.19760  Biso   1.000  C
  C416     1.0000 0.65726  0.81243  0.19767  Biso   1.000  C
  C417     1.0000 0.65727  0.81245  0.19760  Biso   1.000  C
  C418     1.0000 0.65733  0.81243  0.19767  Biso   1.000  C
  N239     1.0000 0.75182  0.77053  0.23934  Biso   1.000  N
  N240     1.0000 0.75175  0.77053  0.23934  Biso   1.000  N
  H378     1.0000 0.69082  0.75541  0.36960  Biso   1.000  H
  H379     1.0000 0.81202  0.71262  0.35749  Biso   1.000  H
  H380     1.0000 0.69074  0.75539  0.36967  Biso   1.000  H
  H381     1.0000 0.81201  0.71260  0.35756  Biso   1.000  H
  H382     1.0000 0.69079  0.75547  0.36967  Biso   1.000  H
  C419     1.0000 0.82730  0.70562  0.19234  Biso   1.000  C
  C420     1.0000 0.82723  0.70562  0.19234  Biso   1.000  C
  H383     1.0000 0.64544  0.71447  0.12091  Biso   1.000  H
  H384     1.0000 0.64534  0.71454  0.12091  Biso   1.000  H
  H385     1.0000 0.64541  0.71454  0.12091  Biso   1.000  H
  O132     1.0000 0.59690  0.02037  0.01569  Biso   1.000  O
  O133     1.0000 0.59693  0.02043  0.01576  Biso   1.000  O
  O134     1.0000 0.59687  0.02045  0.01569  Biso   1.000  O
  O135     1.0000 0.59689  0.02036  0.01576  Biso   1.000  O
  H386     1.0000 0.59972  0.79732  0.23941  Biso   1.000  H
  H387     1.0000 0.59965  0.79732  0.23941  Biso   1.000  H
  O136     1.0000 0.91223  0.65469  0.21635  Biso   1.000  O
  O137     1.0000 0.91216  0.65469  0.21635  Biso   1.000  O
  O138     1.0000 0.91221  0.65477  0.21635  Biso   1.000  O
  C421     1.0000 0.17275  0.29438  0.80764  Biso   1.000  C
  N241     1.0000 0.24827  0.22953  0.76071  Biso   1.000  N
  N242     1.0000 0.24824  0.22947  0.76064  Biso   1.000  N
  N243     1.0000 0.24828  0.22955  0.76064  Biso   1.000  N
  N244     1.0000 0.20709  0.29455  0.88556  Biso   1.000  N
  N245     1.0000 0.20705  0.29448  0.88556  Biso   1.000  N
  O139     1.0000 0.08782  0.34530  0.78363  Biso   1.000  O
  O140     1.0000 0.08789  0.34529  0.78369  Biso   1.000  O
  O141     1.0000 0.08789  0.34530  0.78363  Biso   1.000  O
  O142     1.0000 0.08786  0.34536  0.78369  Biso   1.000  O
  C422     1.0000 0.24795  0.23164  0.66513  Biso   1.000  C
  C423     1.0000 0.24794  0.23162  0.66520  Biso   1.000  C
  C424     1.0000 0.34276  0.18763  0.80237  Biso   1.000  C
  C425     1.0000 0.17279  0.29444  0.80771  Biso   1.000  C
  C426     1.0000 0.17280  0.29446  0.80764  Biso   1.000  C
  C427     1.0000 0.34283  0.18763  0.80237  Biso   1.000  C
  C428     1.0000 0.17272  0.29444  0.80771  Biso   1.000  C
  C429     1.0000 0.31535  0.23956  0.88495  Biso   1.000  C
  C430     1.0000 0.31538  0.23948  0.88495  Biso   1.000  C
  C431     1.0000 0.31542  0.23956  0.88495  Biso   1.000  C
  C432     1.0000 0.15478  0.37104  0.93906  Biso   1.000  C
  C433     1.0000 0.15471  0.37104  0.93906  Biso   1.000  C
  N246     1.0000 0.24565  0.13630  0.65124  Biso   1.000  N
  N247     1.0000 0.24564  0.13628  0.65131  Biso   1.000  N
  N248     1.0000 0.24572  0.13630  0.65124  Biso   1.000  N
  N249     1.0000 0.24561  0.13636  0.65131  Biso   1.000  N
  H388     1.0000 0.30923  0.24459  0.63038  Biso   1.000  H
  H389     1.0000 0.18801  0.28745  0.64249  Biso   1.000  H
  H390     1.0000 0.18804  0.28738  0.64249  Biso   1.000  H
  H391     1.0000 0.30931  0.24459  0.63038  Biso   1.000  H
  H392     1.0000 0.18811  0.28738  0.64249  Biso   1.000  H
  H393     1.0000 0.30921  0.24466  0.63038  Biso   1.000  H
  H394     1.0000 0.40038  0.20275  0.76057  Biso   1.000  H
  N250     1.0000 0.36804  0.08047  0.84315  Biso   1.000  N
  N251     1.0000 0.36807  0.08039  0.84315  Biso   1.000  N
  H395     1.0000 0.40033  0.20267  0.76057  Biso   1.000  H
  N252     1.0000 0.36814  0.08039  0.84315  Biso   1.000  N
  N253     1.0000 0.34156  0.15432  0.96048  Biso   1.000  N
  H396     1.0000 0.35469  0.28553  0.87906  Biso   1.000  H
  H397     1.0000 0.35462  0.28553  0.87906  Biso   1.000  H
  N254     1.0000 0.34164  0.15432  0.96048  Biso   1.000  N
  H398     1.0000 0.09290  0.41723  0.91197  Biso   1.000  H
  H399     1.0000 0.09283  0.41723  0.91197  Biso   1.000  H
  H400     1.0000 0.19885  0.41095  0.93605  Biso   1.000  H
  H401     1.0000 0.19888  0.41088  0.93605  Biso   1.000  H
  H402     1.0000 0.19892  0.41095  0.93605  Biso   1.000  H
  N255     1.0000 0.12640  0.33303  0.03252  Biso   1.000  N
  N256     1.0000 0.12633  0.33303  0.03252  Biso   1.000  N
  N257     1.0000 0.12643  0.33295  0.03252  Biso   1.000  N
  C434     1.0000 0.16824  0.13120  0.61430  Biso   1.000  C
  C435     1.0000 0.16825  0.13122  0.61423  Biso   1.000  C
  C436     1.0000 0.16832  0.13122  0.61423  Biso   1.000  C
  C437     1.0000 0.33503  0.04550  0.64974  Biso   1.000  C
  C438     1.0000 0.33509  0.04548  0.64981  Biso   1.000  C
  C439     1.0000 0.33510  0.04550  0.64974  Biso   1.000  C
  C440     1.0000 0.33499  0.04556  0.64981  Biso   1.000  C
  C441     1.0000 0.42410  0.00331  0.79026  Biso   1.000  C
  C442     1.0000 0.42403  0.00331  0.79026  Biso   1.000  C
  C443     1.0000 0.37418  0.06236  0.93448  Biso   1.000  C
  C444     1.0000 0.37414  0.06228  0.93448  Biso   1.000  C
  C445     1.0000 0.37421  0.06228  0.93448  Biso   1.000  C
  C446     1.0000 0.35901  0.16513  0.04709  Biso   1.000  C
  C447     1.0000 0.35900  0.16512  0.04716  Biso   1.000  C
  C448     1.0000 0.35893  0.16513  0.04709  Biso   1.000  C
  C449     1.0000 0.35903  0.16504  0.04716  Biso   1.000  C
  C450     1.0000 0.02462  0.36259  0.07049  Biso   1.000  C
  C451     1.0000 0.19770  0.30069  0.10155  Biso   1.000  C
  C452     1.0000 0.02458  0.36265  0.07056  Biso   1.000  C
  C453     1.0000 0.02461  0.36258  0.07056  Biso   1.000  C
  O143     1.0000 0.08702  0.20132  0.59911  Biso   1.000  O
  N258     1.0000 0.19626  0.03759  0.59535  Biso   1.000  N
  O144     1.0000 0.08705  0.20126  0.59904  Biso   1.000  O
  N259     1.0000 0.19625  0.03758  0.59542  Biso   1.000  N
  O145     1.0000 0.08710  0.20134  0.59904  Biso   1.000  O
  N260     1.0000 0.19622  0.03765  0.59542  Biso   1.000  N
  C454     1.0000 0.30324  0.97866  0.60664  Biso   1.000  C
  C455     1.0000 0.30323  0.97865  0.60670  Biso   1.000  C
  C456     1.0000 0.30320  0.97859  0.60664  Biso   1.000  C
  H403     1.0000 0.39518  0.06170  0.61389  Biso   1.000  H
  H404     1.0000 0.39511  0.06170  0.61389  Biso   1.000  H
  N261     1.0000 0.35901  0.98380  0.73963  Biso   1.000  N
  N262     1.0000 0.35910  0.98371  0.73970  Biso   1.000  N
  N263     1.0000 0.35904  0.98372  0.73963  Biso   1.000  N
  N264     1.0000 0.35903  0.98371  0.73970  Biso   1.000  N
  H405     1.0000 0.47694  0.02491  0.74778  Biso   1.000  H
  H406     1.0000 0.45828  0.94020  0.83076  Biso   1.000  H
  H407     1.0000 0.45838  0.94013  0.83076  Biso   1.000  H
  H408     1.0000 0.45831  0.94013  0.83076  Biso   1.000  H
  H409     1.0000 0.47701  0.02491  0.74778  Biso   1.000  H
  O146     1.0000 0.40313  0.97970  0.98429  Biso   1.000  O
  O147     1.0000 0.40316  0.97962  0.98429  Biso   1.000  O
  N265     1.0000 0.26619  0.19599  0.10832  Biso   1.000  N
  H410     1.0000 0.39343  0.21558  0.03601  Biso   1.000  H
  H411     1.0000 0.40500  0.10007  0.07644  Biso   1.000  H
  H412     1.0000 0.39339  0.21564  0.03608  Biso   1.000  H
  H413     1.0000 0.40497  0.10014  0.07644  Biso   1.000  H
  H414     1.0000 0.39336  0.21558  0.03601  Biso   1.000  H
  H415     1.0000 0.39342  0.21557  0.03608  Biso   1.000  H
  O148     1.0000 0.95028  0.40281  0.02930  Biso   1.000  O
  O149     1.0000 0.95027  0.40279  0.02937  Biso   1.000  O
  O150     1.0000 0.95030  0.40272  0.02937  Biso   1.000  O
  N266     1.0000 0.02400  0.33892  0.16483  Biso   1.000  N
  N267     1.0000 0.02402  0.33884  0.16483  Biso   1.000  N
  C457     1.0000 0.12574  0.29469  0.19329  Biso   1.000  C
  H416     1.0000 0.23462  0.34903  0.09519  Biso   1.000  H
  C458     1.0000 0.12570  0.29475  0.19336  Biso   1.000  C
  H417     1.0000 0.23461  0.34901  0.09526  Biso   1.000  H
  C459     1.0000 0.12566  0.29469  0.19329  Biso   1.000  C
  H418     1.0000 0.23455  0.34903  0.09519  Biso   1.000  H
  C460     1.0000 0.12573  0.29467  0.19336  Biso   1.000  C
  H419     1.0000 0.23464  0.34894  0.09526  Biso   1.000  H
  C461     1.0000 0.13629  0.00810  0.54828  Biso   1.000  C
  C462     1.0000 0.13621  0.00810  0.54828  Biso   1.000  C
  C463     1.0000 0.13619  0.00817  0.54828  Biso   1.000  C
  N268     1.0000 0.31870  0.88359  0.67293  Biso   1.000  N
  H420     1.0000 0.34450  0.96767  0.54787  Biso   1.000  H
  N269     1.0000 0.31879  0.88350  0.67300  Biso   1.000  N
  H421     1.0000 0.34453  0.96759  0.54787  Biso   1.000  H
  N270     1.0000 0.31873  0.88352  0.67293  Biso   1.000  N
  C464     1.0000 0.35864  0.88519  0.74716  Biso   1.000  C
  C465     1.0000 0.35867  0.88511  0.74716  Biso   1.000  C
  C466     1.0000 0.24309  0.13288  0.18495  Biso   1.000  C
  C467     1.0000 0.24313  0.13296  0.18495  Biso   1.000  C
  C468     1.0000 0.24316  0.13288  0.18495  Biso   1.000  C
  C469     1.0000 0.93215  0.37383  0.22545  Biso   1.000  C
  C470     1.0000 0.93222  0.37383  0.22545  Biso   1.000  C
  C471     1.0000 0.93225  0.37375  0.22545  Biso   1.000  C
  N271     1.0000 0.15467  0.18791  0.23133  Biso   1.000  N
  N272     1.0000 0.15474  0.18791  0.23133  Biso   1.000  N
  N273     1.0000 0.15476  0.18784  0.23133  Biso   1.000  N
  H422     1.0000 0.13561  0.33310  0.23380  Biso   1.000  H
  H423     1.0000 0.13560  0.33309  0.23386  Biso   1.000  H
  H424     1.0000 0.07872  0.06844  0.52762  Biso   1.000  H
  N274     1.0000 0.09648  0.92996  0.60109  Biso   1.000  N
  H425     1.0000 0.17859  0.98450  0.49437  Biso   1.000  H
  N275     1.0000 0.09658  0.92989  0.60109  Biso   1.000  N
  H426     1.0000 0.17862  0.98442  0.49437  Biso   1.000  H
  N276     1.0000 0.09651  0.92989  0.60109  Biso   1.000  N
  N277     1.0000 0.09655  0.92996  0.60109  Biso   1.000  N
  H427     1.0000 0.07876  0.06838  0.52755  Biso   1.000  H
  H428     1.0000 0.07883  0.06838  0.52755  Biso   1.000  H
  C472     1.0000 0.32479  0.78943  0.65138  Biso   1.000  C
  C473     1.0000 0.32486  0.78943  0.65138  Biso   1.000  C
  O151     1.0000 0.39130  0.81389  0.80784  Biso   1.000  O
  O152     1.0000 0.39139  0.81379  0.80791  Biso   1.000  O
  O153     1.0000 0.39132  0.81381  0.80784  Biso   1.000  O
  O154     1.0000 0.39136  0.81387  0.80791  Biso   1.000  O
  O155     1.0000 0.29211  0.04257  0.20794  Biso   1.000  O
  O156     1.0000 0.29215  0.04265  0.20794  Biso   1.000  O
  O157     1.0000 0.29208  0.04265  0.20794  Biso   1.000  O
  N278     1.0000 0.89228  0.29681  0.27662  Biso   1.000  N
  H429     1.0000 0.87935  0.42563  0.18974  Biso   1.000  H
  H430     1.0000 0.94673  0.40650  0.26739  Biso   1.000  H
  N279     1.0000 0.89235  0.29681  0.27662  Biso   1.000  N
  H431     1.0000 0.87942  0.42563  0.18974  Biso   1.000  H
  H432     1.0000 0.94672  0.40649  0.26746  Biso   1.000  H
  N280     1.0000 0.89238  0.29674  0.27662  Biso   1.000  N
  H433     1.0000 0.87945  0.42555  0.18974  Biso   1.000  H
  C474     1.0000 0.12599  0.14890  0.32588  Biso   1.000  C
  C475     1.0000 0.12603  0.14896  0.32595  Biso   1.000  C
  C476     1.0000 0.12606  0.14889  0.32595  Biso   1.000  C
  C477     1.0000 0.99140  0.95086  0.62559  Biso   1.000  C
  C478     1.0000 0.99150  0.95079  0.62559  Biso   1.000  C
  C479     1.0000 0.99143  0.95079  0.62559  Biso   1.000  C
  C480     1.0000 0.15104  0.82247  0.60116  Biso   1.000  C
  C481     1.0000 0.15107  0.82240  0.60116  Biso   1.000  C
  C482     1.0000 0.15100  0.82240  0.60116  Biso   1.000  C
  N281     1.0000 0.22793  0.77397  0.66465  Biso   1.000  N
  N282     1.0000 0.22796  0.77389  0.66465  Biso   1.000  N
  H434     1.0000 0.35368  0.78896  0.58796  Biso   1.000  H
  H435     1.0000 0.37170  0.73259  0.68908  Biso   1.000  H
  H436     1.0000 0.35378  0.78889  0.58796  Biso   1.000  H
  H437     1.0000 0.37180  0.73252  0.68908  Biso   1.000  H
  H438     1.0000 0.35371  0.78889  0.58796  Biso   1.000  H
  H439     1.0000 0.37173  0.73252  0.68908  Biso   1.000  H
  H440     1.0000 0.35375  0.78896  0.58796  Biso   1.000  H
  C483     1.0000 0.79808  0.29488  0.26670  Biso   1.000  C
  C484     1.0000 0.93119  0.22779  0.35852  Biso   1.000  C
  C485     1.0000 0.79812  0.29494  0.26677  Biso   1.000  C
  C486     1.0000 0.93123  0.22786  0.35852  Biso   1.000  C
  C487     1.0000 0.79805  0.29496  0.26670  Biso   1.000  C
  C488     1.0000 0.79814  0.29487  0.26677  Biso   1.000  C
  C489     1.0000 0.93126  0.22779  0.35852  Biso   1.000  C
  N283     1.0000 0.02373  0.14269  0.34394  Biso   1.000  N
  H441     1.0000 0.13044  0.19314  0.36290  Biso   1.000  H
  H442     1.0000 0.17504  0.08103  0.34449  Biso   1.000  H
  H443     1.0000 0.13043  0.19313  0.36296  Biso   1.000  H
  H444     1.0000 0.17503  0.08102  0.34456  Biso   1.000  H
  H445     1.0000 0.13037  0.19314  0.36290  Biso   1.000  H
  H446     1.0000 0.17497  0.08103  0.34449  Biso   1.000  H
  H447     1.0000 0.13046  0.19305  0.36296  Biso   1.000  H
  H448     1.0000 0.17506  0.08094  0.34456  Biso   1.000  H
  N284     1.0000 0.97630  0.85738  0.65603  Biso   1.000  N
  N285     1.0000 0.97639  0.85729  0.65610  Biso   1.000  N
  N286     1.0000 0.97633  0.85731  0.65603  Biso   1.000  N
  N287     1.0000 0.97629  0.85737  0.65610  Biso   1.000  N
  O158     1.0000 0.92663  0.03429  0.61827  Biso   1.000  O
  O159     1.0000 0.92670  0.03429  0.61827  Biso   1.000  O
  O160     1.0000 0.92660  0.03437  0.61827  Biso   1.000  O
  H449     1.0000 0.17990  0.81037  0.53925  Biso   1.000  H
  C490     1.0000 0.06884  0.77229  0.64146  Biso   1.000  C
  H450     1.0000 0.17999  0.81028  0.53932  Biso   1.000  H
  C491     1.0000 0.06887  0.77221  0.64146  Biso   1.000  C
  H451     1.0000 0.17993  0.81030  0.53925  Biso   1.000  H
  C492     1.0000 0.06879  0.77221  0.64146  Biso   1.000  C
  H452     1.0000 0.17989  0.81036  0.53932  Biso   1.000  H
  C493     1.0000 0.20195  0.70519  0.73327  Biso   1.000  C
  C494     1.0000 0.20197  0.70511  0.73327  Biso   1.000  C
  C495     1.0000 0.20190  0.70511  0.73327  Biso   1.000  C
  N288     1.0000 0.77210  0.22610  0.33532  Biso   1.000  N
  O161     1.0000 0.74689  0.35251  0.20554  Biso   1.000  O
  N289     1.0000 0.77217  0.22610  0.33532  Biso   1.000  N
  O162     1.0000 0.74692  0.35243  0.20554  Biso   1.000  O
  C496     1.0000 0.84899  0.17760  0.39881  Biso   1.000  C
  H453     1.0000 0.93929  0.26510  0.40093  Biso   1.000  H
  C497     1.0000 0.84906  0.17760  0.39881  Biso   1.000  C
  H454     1.0000 0.93936  0.26510  0.40093  Biso   1.000  H
  C498     1.0000 0.00863  0.04921  0.37439  Biso   1.000  C
  C499     1.0000 0.00862  0.04919  0.37446  Biso   1.000  C
  C500     1.0000 0.87404  0.85117  0.67409  Biso   1.000  C
  C501     1.0000 0.87406  0.85110  0.67409  Biso   1.000  C
  C502     1.0000 0.87399  0.85110  0.67409  Biso   1.000  C
  N290     1.0000 0.10775  0.70326  0.72335  Biso   1.000  N
  H455     1.0000 0.06074  0.73497  0.59904  Biso   1.000  H
  H456     1.0000 0.06076  0.73488  0.59911  Biso   1.000  H
  N291     1.0000 0.10778  0.70318  0.72335  Biso   1.000  N
  H457     1.0000 0.06070  0.73490  0.59904  Biso   1.000  H
  H458     1.0000 0.06073  0.73496  0.59911  Biso   1.000  H
  O163     1.0000 0.25314  0.64756  0.79444  Biso   1.000  O
  O164     1.0000 0.25313  0.64755  0.79450  Biso   1.000  O
  O165     1.0000 0.25317  0.64749  0.79444  Biso   1.000  O
  C503     1.0000 0.67524  0.21064  0.34860  Biso   1.000  C
  C504     1.0000 0.67523  0.21063  0.34867  Biso   1.000  C
  C505     1.0000 0.67517  0.21064  0.34860  Biso   1.000  C
  C506     1.0000 0.67526  0.21055  0.34867  Biso   1.000  C
  N292     1.0000 0.90355  0.07011  0.39888  Biso   1.000  N
  N293     1.0000 0.90354  0.07009  0.39895  Biso   1.000  N
  H459     1.0000 0.82013  0.18970  0.46073  Biso   1.000  H
  O166     1.0000 0.07343  0.96571  0.38171  Biso   1.000  O
  O167     1.0000 0.07336  0.96571  0.38171  Biso   1.000  O
  O168     1.0000 0.07340  0.96578  0.38171  Biso   1.000  O
  N294     1.0000 0.84536  0.81216  0.76864  Biso   1.000  N
  H460     1.0000 0.86959  0.80693  0.63708  Biso   1.000  H
  H461     1.0000 0.82499  0.91904  0.65548  Biso   1.000  H
  N295     1.0000 0.84535  0.81214  0.76871  Biso   1.000  N
  H462     1.0000 0.86966  0.80693  0.63708  Biso   1.000  H
  H463     1.0000 0.82506  0.91904  0.65548  Biso   1.000  H
  N296     1.0000 0.84532  0.81208  0.76864  Biso   1.000  N
  C507     1.0000 0.06788  0.62624  0.77453  Biso   1.000  C
  C508     1.0000 0.06787  0.62623  0.77459  Biso   1.000  C
  C509     1.0000 0.06780  0.62624  0.77453  Biso   1.000  C
  N297     1.0000 0.68133  0.11648  0.32705  Biso   1.000  N
  H464     1.0000 0.64635  0.21111  0.41202  Biso   1.000  H
  H465     1.0000 0.62833  0.26748  0.31090  Biso   1.000  H
  N298     1.0000 0.68130  0.11656  0.32705  Biso   1.000  N
  H466     1.0000 0.62829  0.26754  0.31097  Biso   1.000  H
  H467     1.0000 0.64627  0.21111  0.41202  Biso   1.000  H
  H468     1.0000 0.62830  0.26755  0.31090  Biso   1.000  H
  H469     1.0000 0.62832  0.26746  0.31097  Biso   1.000  H
  C510     1.0000 0.86384  0.99190  0.45170  Biso   1.000  C
  C511     1.0000 0.86373  0.99196  0.45177  Biso   1.000  C
  C512     1.0000 0.86380  0.99196  0.45177  Biso   1.000  C
  C513     1.0000 0.87429  0.70539  0.80668  Biso   1.000  C
  C514     1.0000 0.75694  0.86719  0.81503  Biso   1.000  C
  C515     1.0000 0.87439  0.70531  0.80668  Biso   1.000  C
  C516     1.0000 0.75696  0.86710  0.81510  Biso   1.000  C
  C517     1.0000 0.87432  0.70531  0.80668  Biso   1.000  C
  C518     1.0000 0.75697  0.86711  0.81503  Biso   1.000  C
  C519     1.0000 0.75693  0.86717  0.81510  Biso   1.000  C
  N299     1.0000 0.97603  0.66115  0.83514  Biso   1.000  N
  N300     1.0000 0.97610  0.66114  0.83521  Biso   1.000  N
  N301     1.0000 0.97602  0.66114  0.83521  Biso   1.000  N
  H470     1.0000 0.12068  0.57444  0.81024  Biso   1.000  H
  H471     1.0000 0.05330  0.59357  0.73259  Biso   1.000  H
  H472     1.0000 0.12067  0.57443  0.81031  Biso   1.000  H
  H473     1.0000 0.05340  0.59349  0.73259  Biso   1.000  H
  H474     1.0000 0.12060  0.57444  0.81024  Biso   1.000  H
  H475     1.0000 0.05333  0.59349  0.73259  Biso   1.000  H
  H476     1.0000 0.05337  0.59357  0.73259  Biso   1.000  H
  C520     1.0000 0.64139  0.11488  0.25282  Biso   1.000  C
  C521     1.0000 0.64143  0.11496  0.25282  Biso   1.000  C
  C522     1.0000 0.64146  0.11488  0.25282  Biso   1.000  C
  C523     1.0000 0.69679  0.02141  0.39334  Biso   1.000  C
  C524     1.0000 0.69686  0.02141  0.39334  Biso   1.000  C
  N302     1.0000 0.80380  0.96240  0.40463  Biso   1.000  N
  H477     1.0000 0.92130  0.93162  0.47243  Biso   1.000  H
  N303     1.0000 0.80384  0.96248  0.40463  Biso   1.000  N
  H478     1.0000 0.92137  0.93162  0.47243  Biso   1.000  H
  H479     1.0000 0.82144  0.01558  0.50561  Biso   1.000  H
  H480     1.0000 0.82141  0.01565  0.50561  Biso   1.000  H
  H481     1.0000 0.86442  0.66697  0.76618  Biso   1.000  H
  C525     1.0000 0.80233  0.69939  0.89843  Biso   1.000  C
  H482     1.0000 0.86451  0.66689  0.76618  Biso   1.000  H
  C526     1.0000 0.80242  0.69930  0.89849  Biso   1.000  C
  H483     1.0000 0.86444  0.66689  0.76618  Biso   1.000  H
  C527     1.0000 0.80235  0.69931  0.89843  Biso   1.000  C
  C528     1.0000 0.80232  0.69937  0.89849  Biso   1.000  C
  N304     1.0000 0.73383  0.80408  0.89165  Biso   1.000  N
  O169     1.0000 0.70792  0.95750  0.79204  Biso   1.000  O
  N305     1.0000 0.73386  0.80401  0.89165  Biso   1.000  N
  O170     1.0000 0.70794  0.95741  0.79211  Biso   1.000  O
  O171     1.0000 0.70795  0.95742  0.79204  Biso   1.000  O
  C529     1.0000 0.97541  0.63748  0.92949  Biso   1.000  C
  C530     1.0000 0.97551  0.63740  0.92949  Biso   1.000  C
  C531     1.0000 0.97544  0.63740  0.92949  Biso   1.000  C
  C532     1.0000 0.97548  0.63748  0.92949  Biso   1.000  C
  N306     1.0000 0.64102  0.01627  0.26034  Biso   1.000  N
  N307     1.0000 0.64099  0.01635  0.26034  Biso   1.000  N
  O172     1.0000 0.60873  0.18619  0.19213  Biso   1.000  O
  O173     1.0000 0.60870  0.18626  0.19213  Biso   1.000  O
  O174     1.0000 0.60866  0.18619  0.19213  Biso   1.000  O
  C533     1.0000 0.66503  0.95450  0.35024  Biso   1.000  C
  C534     1.0000 0.66495  0.95450  0.35024  Biso   1.000  C
  C535     1.0000 0.66500  0.95457  0.35024  Biso   1.000  C
  H484     1.0000 0.65553  0.03240  0.45211  Biso   1.000  H
  C536     1.0000 0.83181  0.86878  0.38575  Biso   1.000  C
  C537     1.0000 0.83178  0.86885  0.38575  Biso   1.000  C
  C538     1.0000 0.83185  0.86885  0.38575  Biso   1.000  C
  N308     1.0000 0.87363  0.66704  0.96746  Biso   1.000  N
  H485     1.0000 0.76541  0.65104  0.90479  Biso   1.000  H
  N309     1.0000 0.87370  0.66704  0.96746  Biso   1.000  N
  H486     1.0000 0.76548  0.65104  0.90479  Biso   1.000  H
  C539     1.0000 0.64102  0.83494  0.95288  Biso   1.000  C
  C540     1.0000 0.64109  0.83494  0.95288  Biso   1.000  C
  O175     1.0000 0.04975  0.59726  0.97067  Biso   1.000  O
  O176     1.0000 0.04978  0.59719  0.97067  Biso   1.000  O
  C541     1.0000 0.57603  0.99668  0.20971  Biso   1.000  C
  C542     1.0000 0.57593  0.99676  0.20971  Biso   1.000  C
  C543     1.0000 0.57600  0.99676  0.20971  Biso   1.000  C
  N310     1.0000 0.75441  0.86370  0.34873  Biso   1.000  N
  N311     1.0000 0.75438  0.86378  0.34873  Biso   1.000  N
  H487     1.0000 0.60494  0.93829  0.38609  Biso   1.000  H
  H488     1.0000 0.60483  0.93835  0.38616  Biso   1.000  H
  H489     1.0000 0.60491  0.93835  0.38616  Biso   1.000  H
  O177     1.0000 0.91300  0.79873  0.40093  Biso   1.000  O
  C544     1.0000 0.84535  0.62896  0.06091  Biso   1.000  C
  C545     1.0000 0.84525  0.62903  0.06091  Biso   1.000  C
  C546     1.0000 0.84532  0.62903  0.06091  Biso   1.000  C
  H490     1.0000 0.60660  0.78449  0.96397  Biso   1.000  H
  H491     1.0000 0.59503  0.90001  0.92353  Biso   1.000  H
  H492     1.0000 0.60670  0.78441  0.96397  Biso   1.000  H
  H493     1.0000 0.59505  0.89992  0.92360  Biso   1.000  H
  H494     1.0000 0.60663  0.78441  0.96397  Biso   1.000  H
  H495     1.0000 0.59506  0.89993  0.92353  Biso   1.000  H
  N312     1.0000 0.65849  0.84567  0.03950  Biso   1.000  N
  N313     1.0000 0.65846  0.84573  0.03957  Biso   1.000  N
  N314     1.0000 0.65846  0.84575  0.03950  Biso   1.000  N
  N315     1.0000 0.63199  0.91960  0.15683  Biso   1.000  N
  N316     1.0000 0.63196  0.91968  0.15683  Biso   1.000  N
  H496     1.0000 0.52311  0.97508  0.25220  Biso   1.000  H
  H497     1.0000 0.52308  0.97514  0.25227  Biso   1.000  H
  H498     1.0000 0.52309  0.97516  0.25220  Biso   1.000  H
  H499     1.0000 0.54175  0.05987  0.16921  Biso   1.000  H
  H500     1.0000 0.54172  0.05994  0.16921  Biso   1.000  H
  H501     1.0000 0.54165  0.05994  0.16921  Biso   1.000  H
  C547     1.0000 0.75210  0.76836  0.33485  Biso   1.000  C
  C548     1.0000 0.75208  0.76843  0.33485  Biso   1.000  C
  C549     1.0000 0.75215  0.76843  0.33485  Biso   1.000  C
  N317     1.0000 0.79301  0.70552  0.11441  Biso   1.000  N
  H502     1.0000 0.90723  0.58277  0.08800  Biso   1.000  H
  H503     1.0000 0.80118  0.58912  0.06392  Biso   1.000  H
  N318     1.0000 0.79294  0.70552  0.11441  Biso   1.000  N
  H504     1.0000 0.90712  0.58283  0.08807  Biso   1.000  H
  H505     1.0000 0.90720  0.58284  0.08800  Biso   1.000  H
  H506     1.0000 0.90719  0.58283  0.08807  Biso   1.000  H
  C550     1.0000 0.68468  0.76052  0.11503  Biso   1.000  C
  C551     1.0000 0.62592  0.93771  0.06550  Biso   1.000  C
  C552     1.0000 0.62584  0.93770  0.06556  Biso   1.000  C
  C553     1.0000 0.62585  0.93771  0.06550  Biso   1.000  C
  C554     1.0000 0.62591  0.93770  0.06556  Biso   1.000  C
  C555     1.0000 0.65730  0.81237  0.19760  Biso   1.000  C
  C556     1.0000 0.65726  0.81243  0.19767  Biso   1.000  C
  C557     1.0000 0.65727  0.81245  0.19760  Biso   1.000  C
  C558     1.0000 0.65733  0.81243  0.19767  Biso   1.000  C
  N319     1.0000 0.75182  0.77053  0.23934  Biso   1.000  N
  N320     1.0000 0.75175  0.77053  0.23934  Biso   1.000  N
  H507     1.0000 0.69082  0.75541  0.36960  Biso   1.000  H
  H508     1.0000 0.81202  0.71262  0.35749  Biso   1.000  H
  H509     1.0000 0.69074  0.75539  0.36967  Biso   1.000  H
  H510     1.0000 0.81201  0.71260  0.35756  Biso   1.000  H
  H511     1.0000 0.69079  0.75547  0.36967  Biso   1.000  H
  C559     1.0000 0.82730  0.70562  0.19234  Biso   1.000  C
  C560     1.0000 0.82723  0.70562  0.19234  Biso   1.000  C
  H512     1.0000 0.64544  0.71447  0.12091  Biso   1.000  H
  H513     1.0000 0.64534  0.71454  0.12091  Biso   1.000  H
  H514     1.0000 0.64541  0.71454  0.12091  Biso   1.000  H
  O178     1.0000 0.59690  0.02037  0.01569  Biso   1.000  O
  O179     1.0000 0.59693  0.02043  0.01576  Biso   1.000  O
  O180     1.0000 0.59687  0.02045  0.01569  Biso   1.000  O
  O181     1.0000 0.59689  0.02036  0.01576  Biso   1.000  O
  H515     1.0000 0.59972  0.79732  0.23941  Biso   1.000  H
  H516     1.0000 0.59965  0.79732  0.23941  Biso   1.000  H
  O182     1.0000 0.91223  0.65469  0.21635  Biso   1.000  O
  O183     1.0000 0.91216  0.65469  0.21635  Biso   1.000  O
  O184     1.0000 0.91221  0.65477  0.21635  Biso   1.000  O
  C561     1.0000 0.17275  0.29438  0.80764  Biso   1.000  C
  N321     1.0000 0.24824  0.22947  0.76064  Biso   1.000  N
  N322     1.0000 0.24827  0.22953  0.76071  Biso   1.000  N
  N323     1.0000 0.24828  0.22955  0.76064  Biso   1.000  N
  N324     1.0000 0.20709  0.29455  0.88556  Biso   1.000  N
  N325     1.0000 0.20705  0.29448  0.88556  Biso   1.000  N
  O185     1.0000 0.08782  0.34530  0.78363  Biso   1.000  O
  O186     1.0000 0.08789  0.34529  0.78369  Biso   1.000  O
  O187     1.0000 0.08789  0.34530  0.78363  Biso   1.000  O
  O188     1.0000 0.08786  0.34536  0.78369  Biso   1.000  O
  C562     1.0000 0.34276  0.18763  0.80237  Biso   1.000  C
  C563     1.0000 0.24795  0.23164  0.66513  Biso   1.000  C
  C564     1.0000 0.24794  0.23162  0.66520  Biso   1.000  C
  C565     1.0000 0.17279  0.29444  0.80771  Biso   1.000  C
  C566     1.0000 0.17280  0.29446  0.80764  Biso   1.000  C
  C567     1.0000 0.34283  0.18763  0.80237  Biso   1.000  C
  C568     1.0000 0.17272  0.29444  0.80771  Biso   1.000  C
  C569     1.0000 0.31538  0.23948  0.88495  Biso   1.000  C
  C570     1.0000 0.31535  0.23956  0.88495  Biso   1.000  C
  C571     1.0000 0.31542  0.23956  0.88495  Biso   1.000  C
  C572     1.0000 0.15478  0.37104  0.93906  Biso   1.000  C
  C573     1.0000 0.15471  0.37104  0.93906  Biso   1.000  C
  H517     1.0000 0.40038  0.20275  0.76057  Biso   1.000  H
  N326     1.0000 0.36807  0.08039  0.84315  Biso   1.000  N
  H518     1.0000 0.40033  0.20267  0.76057  Biso   1.000  H
  N327     1.0000 0.36804  0.08047  0.84315  Biso   1.000  N
  N328     1.0000 0.36814  0.08039  0.84315  Biso   1.000  N
  N329     1.0000 0.24565  0.13630  0.65124  Biso   1.000  N
  H519     1.0000 0.30923  0.24459  0.63038  Biso   1.000  H
  H520     1.0000 0.18804  0.28738  0.64249  Biso   1.000  H
  N330     1.0000 0.24564  0.13628  0.65131  Biso   1.000  N
  H521     1.0000 0.18801  0.28745  0.64249  Biso   1.000  H
  N331     1.0000 0.24572  0.13630  0.65124  Biso   1.000  N
  H522     1.0000 0.30931  0.24459  0.63038  Biso   1.000  H
  H523     1.0000 0.18811  0.28738  0.64249  Biso   1.000  H
  N332     1.0000 0.24561  0.13636  0.65131  Biso   1.000  N
  H524     1.0000 0.30921  0.24466  0.63038  Biso   1.000  H
  N333     1.0000 0.34156  0.15432  0.96048  Biso   1.000  N
  H525     1.0000 0.35469  0.28553  0.87906  Biso   1.000  H
  H526     1.0000 0.35462  0.28553  0.87906  Biso   1.000  H
  N334     1.0000 0.34164  0.15432  0.96048  Biso   1.000  N
  H527     1.0000 0.09283  0.41723  0.91197  Biso   1.000  H
  H528     1.0000 0.19888  0.41088  0.93605  Biso   1.000  H
  H529     1.0000 0.09290  0.41723  0.91197  Biso   1.000  H
  H530     1.0000 0.19885  0.41095  0.93605  Biso   1.000  H
  H531     1.0000 0.19892  0.41095  0.93605  Biso   1.000  H
  N335     1.0000 0.12640  0.33303  0.03252  Biso   1.000  N
  N336     1.0000 0.12633  0.33303  0.03252  Biso   1.000  N
  N337     1.0000 0.12643  0.33295  0.03252  Biso   1.000  N
  C574     1.0000 0.42410  0.00331  0.79026  Biso   1.000  C
  C575     1.0000 0.42403  0.00331  0.79026  Biso   1.000  C
  C576     1.0000 0.37414  0.06228  0.93448  Biso   1.000  C
  C577     1.0000 0.37418  0.06236  0.93448  Biso   1.000  C
  C578     1.0000 0.37421  0.06228  0.93448  Biso   1.000  C
  C579     1.0000 0.16825  0.13122  0.61423  Biso   1.000  C
  C580     1.0000 0.33503  0.04550  0.64974  Biso   1.000  C
  C581     1.0000 0.16824  0.13120  0.61430  Biso   1.000  C
  C582     1.0000 0.33509  0.04548  0.64981  Biso   1.000  C
  C583     1.0000 0.16832  0.13122  0.61423  Biso   1.000  C
  C584     1.0000 0.33510  0.04550  0.64974  Biso   1.000  C
  C585     1.0000 0.33499  0.04556  0.64981  Biso   1.000  C
  C586     1.0000 0.35901  0.16513  0.04709  Biso   1.000  C
  C587     1.0000 0.35900  0.16512  0.04716  Biso   1.000  C
  C588     1.0000 0.35893  0.16513  0.04709  Biso   1.000  C
  C589     1.0000 0.35903  0.16504  0.04716  Biso   1.000  C
  C590     1.0000 0.19770  0.30069  0.10155  Biso   1.000  C
  C591     1.0000 0.02462  0.36259  0.07049  Biso   1.000  C
  C592     1.0000 0.02458  0.36265  0.07056  Biso   1.000  C
  C593     1.0000 0.02461  0.36258  0.07056  Biso   1.000  C
  H532     1.0000 0.47694  0.02491  0.74778  Biso   1.000  H
  N338     1.0000 0.35901  0.98380  0.73963  Biso   1.000  N
  H533     1.0000 0.45828  0.94020  0.83076  Biso   1.000  H
  N339     1.0000 0.35910  0.98371  0.73970  Biso   1.000  N
  H534     1.0000 0.45838  0.94013  0.83076  Biso   1.000  H
  N340     1.0000 0.35904  0.98372  0.73963  Biso   1.000  N
  H535     1.0000 0.45831  0.94013  0.83076  Biso   1.000  H
  N341     1.0000 0.35903  0.98371  0.73970  Biso   1.000  N
  H536     1.0000 0.47701  0.02491  0.74778  Biso   1.000  H
  O189     1.0000 0.40313  0.97970  0.98429  Biso   1.000  O
  O190     1.0000 0.40316  0.97962  0.98429  Biso   1.000  O
  N342     1.0000 0.19626  0.03759  0.59535  Biso   1.000  N
  O191     1.0000 0.08705  0.20126  0.59904  Biso   1.000  O
  N343     1.0000 0.19625  0.03758  0.59542  Biso   1.000  N
  O192     1.0000 0.08702  0.20132  0.59911  Biso   1.000  O
  O193     1.0000 0.08710  0.20134  0.59904  Biso   1.000  O
  N344     1.0000 0.19622  0.03765  0.59542  Biso   1.000  N
  C594     1.0000 0.30324  0.97866  0.60664  Biso   1.000  C
  C595     1.0000 0.30323  0.97865  0.60670  Biso   1.000  C
  C596     1.0000 0.30320  0.97859  0.60664  Biso   1.000  C
  H537     1.0000 0.39511  0.06170  0.61389  Biso   1.000  H
  H538     1.0000 0.39518  0.06170  0.61389  Biso   1.000  H
  N345     1.0000 0.26619  0.19599  0.10832  Biso   1.000  N
  H539     1.0000 0.39343  0.21558  0.03601  Biso   1.000  H
  H540     1.0000 0.40500  0.10007  0.07644  Biso   1.000  H
  H541     1.0000 0.39339  0.21564  0.03608  Biso   1.000  H
  H542     1.0000 0.40497  0.10014  0.07644  Biso   1.000  H
  H543     1.0000 0.39336  0.21558  0.03601  Biso   1.000  H
  H544     1.0000 0.39342  0.21557  0.03608  Biso   1.000  H
  C597     1.0000 0.12574  0.29469  0.19329  Biso   1.000  C
  H545     1.0000 0.23462  0.34903  0.09519  Biso   1.000  H
  C598     1.0000 0.12570  0.29475  0.19336  Biso   1.000  C
  H546     1.0000 0.23461  0.34901  0.09526  Biso   1.000  H
  C599     1.0000 0.12566  0.29469  0.19329  Biso   1.000  C
  H547     1.0000 0.23455  0.34903  0.09519  Biso   1.000  H
  C600     1.0000 0.12573  0.29467  0.19336  Biso   1.000  C
  H548     1.0000 0.23464  0.34894  0.09526  Biso   1.000  H
  O194     1.0000 0.95028  0.40281  0.02930  Biso   1.000  O
  O195     1.0000 0.95027  0.40279  0.02937  Biso   1.000  O
  O196     1.0000 0.95030  0.40272  0.02937  Biso   1.000  O
  N346     1.0000 0.02400  0.33892  0.16483  Biso   1.000  N
  N347     1.0000 0.02402  0.33884  0.16483  Biso   1.000  N
  C601     1.0000 0.35864  0.88519  0.74716  Biso   1.000  C
  C602     1.0000 0.35867  0.88511  0.74716  Biso   1.000  C
  C603     1.0000 0.13621  0.00810  0.54828  Biso   1.000  C
  C604     1.0000 0.13629  0.00810  0.54828  Biso   1.000  C
  C605     1.0000 0.13619  0.00817  0.54828  Biso   1.000  C
  N348     1.0000 0.31870  0.88359  0.67293  Biso   1.000  N
  N349     1.0000 0.31879  0.88350  0.67300  Biso   1.000  N
  N350     1.0000 0.31873  0.88352  0.67293  Biso   1.000  N
  H549     1.0000 0.34450  0.96767  0.54787  Biso   1.000  H
  H550     1.0000 0.34453  0.96759  0.54787  Biso   1.000  H
  C606     1.0000 0.24309  0.13288  0.18495  Biso   1.000  C
  C607     1.0000 0.24313  0.13296  0.18495  Biso   1.000  C
  C608     1.0000 0.24316  0.13288  0.18495  Biso   1.000  C
  N351     1.0000 0.15467  0.18791  0.23133  Biso   1.000  N
  N352     1.0000 0.15474  0.18791  0.23133  Biso   1.000  N
  N353     1.0000 0.15476  0.18784  0.23133  Biso   1.000  N
  H551     1.0000 0.13561  0.33310  0.23380  Biso   1.000  H
  H552     1.0000 0.13560  0.33309  0.23386  Biso   1.000  H
  C609     1.0000 0.93215  0.37383  0.22545  Biso   1.000  C
  C610     1.0000 0.93222  0.37383  0.22545  Biso   1.000  C
  C611     1.0000 0.93225  0.37375  0.22545  Biso   1.000  C
  O197     1.0000 0.39130  0.81389  0.80784  Biso   1.000  O
  O198     1.0000 0.39139  0.81379  0.80791  Biso   1.000  O
  O199     1.0000 0.39132  0.81381  0.80784  Biso   1.000  O
  O200     1.0000 0.39136  0.81387  0.80791  Biso   1.000  O
  N354     1.0000 0.09648  0.92996  0.60109  Biso   1.000  N
  H553     1.0000 0.17859  0.98450  0.49437  Biso   1.000  H
  N355     1.0000 0.09658  0.92989  0.60109  Biso   1.000  N
  H554     1.0000 0.17862  0.98442  0.49437  Biso   1.000  H
  N356     1.0000 0.09651  0.92989  0.60109  Biso   1.000  N
  N357     1.0000 0.09655  0.92996  0.60109  Biso   1.000  N
  H555     1.0000 0.07876  0.06838  0.52755  Biso   1.000  H
  H556     1.0000 0.07872  0.06844  0.52762  Biso   1.000  H
  H557     1.0000 0.07883  0.06838  0.52755  Biso   1.000  H
  C612     1.0000 0.32479  0.78943  0.65138  Biso   1.000  C
  C613     1.0000 0.32486  0.78943  0.65138  Biso   1.000  C
  O201     1.0000 0.29211  0.04257  0.20794  Biso   1.000  O
  O202     1.0000 0.29215  0.04265  0.20794  Biso   1.000  O
  O203     1.0000 0.29208  0.04265  0.20794  Biso   1.000  O
  C614     1.0000 0.12599  0.14890  0.32588  Biso   1.000  C
  C615     1.0000 0.12603  0.14896  0.32595  Biso   1.000  C
  C616     1.0000 0.12606  0.14889  0.32595  Biso   1.000  C
  N358     1.0000 0.89228  0.29681  0.27662  Biso   1.000  N
  H558     1.0000 0.87935  0.42563  0.18974  Biso   1.000  H
  H559     1.0000 0.94673  0.40650  0.26739  Biso   1.000  H
  N359     1.0000 0.89235  0.29681  0.27662  Biso   1.000  N
  H560     1.0000 0.87942  0.42563  0.18974  Biso   1.000  H
  H561     1.0000 0.94672  0.40649  0.26746  Biso   1.000  H
  N360     1.0000 0.89238  0.29674  0.27662  Biso   1.000  N
  H562     1.0000 0.87945  0.42555  0.18974  Biso   1.000  H
  C617     1.0000 0.99140  0.95086  0.62559  Biso   1.000  C
  C618     1.0000 0.99150  0.95079  0.62559  Biso   1.000  C
  C619     1.0000 0.99143  0.95079  0.62559  Biso   1.000  C
  C620     1.0000 0.15104  0.82247  0.60116  Biso   1.000  C
  C621     1.0000 0.15107  0.82240  0.60116  Biso   1.000  C
  C622     1.0000 0.15100  0.82240  0.60116  Biso   1.000  C
  N361     1.0000 0.22793  0.77397  0.66465  Biso   1.000  N
  H563     1.0000 0.35368  0.78896  0.58796  Biso   1.000  H
  H564     1.0000 0.37170  0.73259  0.68908  Biso   1.000  H
  N362     1.0000 0.22796  0.77389  0.66465  Biso   1.000  N
  H565     1.0000 0.35378  0.78889  0.58796  Biso   1.000  H
  H566     1.0000 0.37180  0.73252  0.68908  Biso   1.000  H
  H567     1.0000 0.35371  0.78889  0.58796  Biso   1.000  H
  H568     1.0000 0.37173  0.73252  0.68908  Biso   1.000  H
  H569     1.0000 0.35375  0.78896  0.58796  Biso   1.000  H
  N363     1.0000 0.02373  0.14269  0.34394  Biso   1.000  N
  H570     1.0000 0.13044  0.19314  0.36290  Biso   1.000  H
  H571     1.0000 0.17504  0.08103  0.34449  Biso   1.000  H
  H572     1.0000 0.13043  0.19313  0.36296  Biso   1.000  H
  H573     1.0000 0.17503  0.08102  0.34456  Biso   1.000  H
  H574     1.0000 0.13037  0.19314  0.36290  Biso   1.000  H
  H575     1.0000 0.17497  0.08103  0.34449  Biso   1.000  H
  H576     1.0000 0.13046  0.19305  0.36296  Biso   1.000  H
  H577     1.0000 0.17506  0.08094  0.34456  Biso   1.000  H
  C623     1.0000 0.93119  0.22779  0.35852  Biso   1.000  C
  C624     1.0000 0.93123  0.22786  0.35852  Biso   1.000  C
  C625     1.0000 0.93126  0.22779  0.35852  Biso   1.000  C
  C626     1.0000 0.79808  0.29488  0.26670  Biso   1.000  C
  C627     1.0000 0.79812  0.29494  0.26677  Biso   1.000  C
  C628     1.0000 0.79805  0.29496  0.26670  Biso   1.000  C
  C629     1.0000 0.79814  0.29487  0.26677  Biso   1.000  C
  N364     1.0000 0.97630  0.85738  0.65603  Biso   1.000  N
  N365     1.0000 0.97639  0.85729  0.65610  Biso   1.000  N
  N366     1.0000 0.97633  0.85731  0.65603  Biso   1.000  N
  N367     1.0000 0.97629  0.85737  0.65610  Biso   1.000  N
  O204     1.0000 0.92663  0.03429  0.61827  Biso   1.000  O
  O205     1.0000 0.92670  0.03429  0.61827  Biso   1.000  O
  O206     1.0000 0.92660  0.03437  0.61827  Biso   1.000  O
  H578     1.0000 0.17990  0.81037  0.53925  Biso   1.000  H
  C630     1.0000 0.06884  0.77229  0.64146  Biso   1.000  C
  H579     1.0000 0.17999  0.81028  0.53932  Biso   1.000  H
  C631     1.0000 0.06887  0.77221  0.64146  Biso   1.000  C
  H580     1.0000 0.17993  0.81030  0.53925  Biso   1.000  H
  C632     1.0000 0.06879  0.77221  0.64146  Biso   1.000  C
  H581     1.0000 0.17989  0.81036  0.53932  Biso   1.000  H
  C633     1.0000 0.20195  0.70519  0.73327  Biso   1.000  C
  C634     1.0000 0.20197  0.70511  0.73327  Biso   1.000  C
  C635     1.0000 0.20190  0.70511  0.73327  Biso   1.000  C
  C636     1.0000 0.00863  0.04921  0.37439  Biso   1.000  C
  C637     1.0000 0.00862  0.04919  0.37446  Biso   1.000  C
  C638     1.0000 0.84899  0.17760  0.39881  Biso   1.000  C
  H582     1.0000 0.93929  0.26510  0.40093  Biso   1.000  H
  C639     1.0000 0.84906  0.17760  0.39881  Biso   1.000  C
  H583     1.0000 0.93936  0.26510  0.40093  Biso   1.000  H
  N368     1.0000 0.77210  0.22610  0.33532  Biso   1.000  N
  O207     1.0000 0.74689  0.35251  0.20554  Biso   1.000  O
  N369     1.0000 0.77217  0.22610  0.33532  Biso   1.000  N
  O208     1.0000 0.74692  0.35243  0.20554  Biso   1.000  O
  C640     1.0000 0.87404  0.85117  0.67409  Biso   1.000  C
  C641     1.0000 0.87406  0.85110  0.67409  Biso   1.000  C
  C642     1.0000 0.87399  0.85110  0.67409  Biso   1.000  C
  N370     1.0000 0.10775  0.70326  0.72335  Biso   1.000  N
  N371     1.0000 0.10778  0.70318  0.72335  Biso   1.000  N
  H584     1.0000 0.06074  0.73497  0.59904  Biso   1.000  H
  H585     1.0000 0.06076  0.73488  0.59911  Biso   1.000  H
  H586     1.0000 0.06070  0.73490  0.59904  Biso   1.000  H
  H587     1.0000 0.06073  0.73496  0.59911  Biso   1.000  H
  O209     1.0000 0.25314  0.64756  0.79444  Biso   1.000  O
  O210     1.0000 0.25313  0.64755  0.79450  Biso   1.000  O
  O211     1.0000 0.25317  0.64749  0.79444  Biso   1.000  O
  N372     1.0000 0.90355  0.07011  0.39888  Biso   1.000  N
  N373     1.0000 0.90354  0.07009  0.39895  Biso   1.000  N
  O212     1.0000 0.07343  0.96571  0.38171  Biso   1.000  O
  O213     1.0000 0.07336  0.96571  0.38171  Biso   1.000  O
  O214     1.0000 0.07340  0.96578  0.38171  Biso   1.000  O
  H588     1.0000 0.82013  0.18970  0.46073  Biso   1.000  H
  C643     1.0000 0.67524  0.21064  0.34860  Biso   1.000  C
  C644     1.0000 0.67523  0.21063  0.34867  Biso   1.000  C
  C645     1.0000 0.67517  0.21064  0.34860  Biso   1.000  C
  C646     1.0000 0.67526  0.21055  0.34867  Biso   1.000  C
  N374     1.0000 0.84536  0.81216  0.76864  Biso   1.000  N
  H589     1.0000 0.86959  0.80693  0.63708  Biso   1.000  H
  H590     1.0000 0.82499  0.91904  0.65548  Biso   1.000  H
  N375     1.0000 0.84535  0.81214  0.76871  Biso   1.000  N
  H591     1.0000 0.86966  0.80693  0.63708  Biso   1.000  H
  H592     1.0000 0.82506  0.91904  0.65548  Biso   1.000  H
  N376     1.0000 0.84532  0.81208  0.76864  Biso   1.000  N
  C647     1.0000 0.06788  0.62624  0.77453  Biso   1.000  C
  C648     1.0000 0.06787  0.62623  0.77459  Biso   1.000  C
  C649     1.0000 0.06780  0.62624  0.77453  Biso   1.000  C
  C650     1.0000 0.86384  0.99190  0.45170  Biso   1.000  C
  C651     1.0000 0.86373  0.99196  0.45177  Biso   1.000  C
  C652     1.0000 0.86380  0.99196  0.45177  Biso   1.000  C
  N377     1.0000 0.68133  0.11648  0.32705  Biso   1.000  N
  H593     1.0000 0.64635  0.21111  0.41202  Biso   1.000  H
  H594     1.0000 0.62833  0.26748  0.31090  Biso   1.000  H
  N378     1.0000 0.68130  0.11656  0.32705  Biso   1.000  N
  H595     1.0000 0.62829  0.26754  0.31097  Biso   1.000  H
  H596     1.0000 0.64627  0.21111  0.41202  Biso   1.000  H
  H597     1.0000 0.62830  0.26755  0.31090  Biso   1.000  H
  H598     1.0000 0.62832  0.26746  0.31097  Biso   1.000  H
  C653     1.0000 0.87429  0.70539  0.80668  Biso   1.000  C
  C654     1.0000 0.75694  0.86719  0.81503  Biso   1.000  C
  C655     1.0000 0.87439  0.70531  0.80668  Biso   1.000  C
  C656     1.0000 0.75696  0.86710  0.81510  Biso   1.000  C
  C657     1.0000 0.87432  0.70531  0.80668  Biso   1.000  C
  C658     1.0000 0.75697  0.86711  0.81503  Biso   1.000  C
  C659     1.0000 0.75693  0.86717  0.81510  Biso   1.000  C
  N379     1.0000 0.97603  0.66115  0.83514  Biso   1.000  N
  N380     1.0000 0.97610  0.66114  0.83521  Biso   1.000  N
  N381     1.0000 0.97602  0.66114  0.83521  Biso   1.000  N
  H599     1.0000 0.12068  0.57444  0.81024  Biso   1.000  H
  H600     1.0000 0.05330  0.59357  0.73259  Biso   1.000  H
  H601     1.0000 0.12067  0.57443  0.81031  Biso   1.000  H
  H602     1.0000 0.05340  0.59349  0.73259  Biso   1.000  H
  H603     1.0000 0.12060  0.57444  0.81024  Biso   1.000  H
  H604     1.0000 0.05333  0.59349  0.73259  Biso   1.000  H
  H605     1.0000 0.05337  0.59357  0.73259  Biso   1.000  H
  N382     1.0000 0.80380  0.96240  0.40463  Biso   1.000  N
  H606     1.0000 0.92130  0.93162  0.47243  Biso   1.000  H
  N383     1.0000 0.80384  0.96248  0.40463  Biso   1.000  N
  H607     1.0000 0.92137  0.93162  0.47243  Biso   1.000  H
  H608     1.0000 0.82144  0.01558  0.50561  Biso   1.000  H
  H609     1.0000 0.82141  0.01565  0.50561  Biso   1.000  H
  C660     1.0000 0.69679  0.02141  0.39334  Biso   1.000  C
  C661     1.0000 0.69686  0.02141  0.39334  Biso   1.000  C
  C662     1.0000 0.64139  0.11488  0.25282  Biso   1.000  C
  C663     1.0000 0.64143  0.11496  0.25282  Biso   1.000  C
  C664     1.0000 0.64146  0.11488  0.25282  Biso   1.000  C
  H610     1.0000 0.86442  0.66697  0.76618  Biso   1.000  H
  C665     1.0000 0.80233  0.69939  0.89843  Biso   1.000  C
  H611     1.0000 0.86451  0.66689  0.76618  Biso   1.000  H
  C666     1.0000 0.80242  0.69930  0.89849  Biso   1.000  C
  H612     1.0000 0.86444  0.66689  0.76618  Biso   1.000  H
  C667     1.0000 0.80235  0.69931  0.89843  Biso   1.000  C
  C668     1.0000 0.80232  0.69937  0.89849  Biso   1.000  C
  N384     1.0000 0.73383  0.80408  0.89165  Biso   1.000  N
  O215     1.0000 0.70792  0.95750  0.79204  Biso   1.000  O
  N385     1.0000 0.73386  0.80401  0.89165  Biso   1.000  N
  O216     1.0000 0.70794  0.95741  0.79211  Biso   1.000  O
  O217     1.0000 0.70795  0.95742  0.79204  Biso   1.000  O
  C669     1.0000 0.97541  0.63748  0.92949  Biso   1.000  C
  C670     1.0000 0.97551  0.63740  0.92949  Biso   1.000  C
  C671     1.0000 0.97544  0.63740  0.92949  Biso   1.000  C
  C672     1.0000 0.97548  0.63748  0.92949  Biso   1.000  C
  C673     1.0000 0.83181  0.86878  0.38575  Biso   1.000  C
  C674     1.0000 0.83178  0.86885  0.38575  Biso   1.000  C
  C675     1.0000 0.83185  0.86885  0.38575  Biso   1.000  C
  C676     1.0000 0.66503  0.95450  0.35024  Biso   1.000  C
  C677     1.0000 0.66495  0.95450  0.35024  Biso   1.000  C
  C678     1.0000 0.66500  0.95457  0.35024  Biso   1.000  C
  H613     1.0000 0.65553  0.03240  0.45211  Biso   1.000  H
  N386     1.0000 0.64102  0.01627  0.26034  Biso   1.000  N
  O218     1.0000 0.60873  0.18619  0.19213  Biso   1.000  O
  N387     1.0000 0.64099  0.01635  0.26034  Biso   1.000  N
  O219     1.0000 0.60870  0.18626  0.19213  Biso   1.000  O
  O220     1.0000 0.60866  0.18619  0.19213  Biso   1.000  O
  N388     1.0000 0.87363  0.66704  0.96746  Biso   1.000  N
  N389     1.0000 0.87370  0.66704  0.96746  Biso   1.000  N
  H614     1.0000 0.76541  0.65104  0.90479  Biso   1.000  H
  H615     1.0000 0.76548  0.65104  0.90479  Biso   1.000  H
  C679     1.0000 0.64102  0.83494  0.95288  Biso   1.000  C
  C680     1.0000 0.64109  0.83494  0.95288  Biso   1.000  C
  O221     1.0000 0.04975  0.59726  0.97067  Biso   1.000  O
  O222     1.0000 0.04978  0.59719  0.97067  Biso   1.000  O
  N390     1.0000 0.75441  0.86370  0.34873  Biso   1.000  N
  O223     1.0000 0.91300  0.79873  0.40093  Biso   1.000  O
  N391     1.0000 0.75438  0.86378  0.34873  Biso   1.000  N
  H616     1.0000 0.60494  0.93829  0.38609  Biso   1.000  H
  H617     1.0000 0.60483  0.93835  0.38616  Biso   1.000  H
  H618     1.0000 0.60491  0.93835  0.38616  Biso   1.000  H
  C681     1.0000 0.57603  0.99668  0.20971  Biso   1.000  C
  C682     1.0000 0.57593  0.99676  0.20971  Biso   1.000  C
  C683     1.0000 0.57600  0.99676  0.20971  Biso   1.000  C
  C684     1.0000 0.84535  0.62896  0.06091  Biso   1.000  C
  C685     1.0000 0.84525  0.62903  0.06091  Biso   1.000  C
  C686     1.0000 0.84532  0.62903  0.06091  Biso   1.000  C
  H619     1.0000 0.60660  0.78449  0.96397  Biso   1.000  H
  H620     1.0000 0.59503  0.90001  0.92353  Biso   1.000  H
  H621     1.0000 0.60670  0.78441  0.96397  Biso   1.000  H
  H622     1.0000 0.59505  0.89992  0.92360  Biso   1.000  H
  H623     1.0000 0.60663  0.78441  0.96397  Biso   1.000  H
  H624     1.0000 0.59506  0.89993  0.92353  Biso   1.000  H
  N392     1.0000 0.65849  0.84567  0.03950  Biso   1.000  N
  N393     1.0000 0.65846  0.84573  0.03957  Biso   1.000  N
  N394     1.0000 0.65846  0.84575  0.03950  Biso   1.000  N
  C687     1.0000 0.75210  0.76836  0.33485  Biso   1.000  C
  C688     1.0000 0.75208  0.76843  0.33485  Biso   1.000  C
  C689     1.0000 0.75215  0.76843  0.33485  Biso   1.000  C
  N395     1.0000 0.63199  0.91960  0.15683  Biso   1.000  N
  H625     1.0000 0.52311  0.97508  0.25220  Biso   1.000  H
  H626     1.0000 0.52308  0.97514  0.25227  Biso   1.000  H
  H627     1.0000 0.52309  0.97516  0.25220  Biso   1.000  H
  N396     1.0000 0.63196  0.91968  0.15683  Biso   1.000  N
  H628     1.0000 0.54175  0.05987  0.16921  Biso   1.000  H
  H629     1.0000 0.54172  0.05994  0.16921  Biso   1.000  H
  H630     1.0000 0.54165  0.05994  0.16921  Biso   1.000  H
  N397     1.0000 0.79301  0.70552  0.11441  Biso   1.000  N
  H631     1.0000 0.90723  0.58277  0.08800  Biso   1.000  H
  H632     1.0000 0.80118  0.58912  0.06392  Biso   1.000  H
  N398     1.0000 0.79294  0.70552  0.11441  Biso   1.000  N
  H633     1.0000 0.90712  0.58283  0.08807  Biso   1.000  H
  H634     1.0000 0.90720  0.58284  0.08800  Biso   1.000  H
  H635     1.0000 0.90719  0.58283  0.08807  Biso   1.000  H
  C690     1.0000 0.68468  0.76052  0.11503  Biso   1.000  C
  C691     1.0000 0.62592  0.93771  0.06550  Biso   1.000  C
  C692     1.0000 0.62584  0.93770  0.06556  Biso   1.000  C
  C693     1.0000 0.62585  0.93771  0.06550  Biso   1.000  C
  C694     1.0000 0.62591  0.93770  0.06556  Biso   1.000  C
  N399     1.0000 0.75182  0.77053  0.23934  Biso   1.000  N
  H636     1.0000 0.69082  0.75541  0.36960  Biso   1.000  H
  H637     1.0000 0.81202  0.71262  0.35749  Biso   1.000  H
  N400     1.0000 0.75175  0.77053  0.23934  Biso   1.000  N
  H638     1.0000 0.69074  0.75539  0.36967  Biso   1.000  H
  H639     1.0000 0.81201  0.71260  0.35756  Biso   1.000  H
  H640     1.0000 0.69079  0.75547  0.36967  Biso   1.000  H
  C695     1.0000 0.65730  0.81237  0.19760  Biso   1.000  C
  C696     1.0000 0.65726  0.81243  0.19767  Biso   1.000  C
  C697     1.0000 0.65727  0.81245  0.19760  Biso   1.000  C
  C698     1.0000 0.65733  0.81243  0.19767  Biso   1.000  C
  C699     1.0000 0.82730  0.70562  0.19234  Biso   1.000  C
  C700     1.0000 0.82723  0.70562  0.19234  Biso   1.000  C
  H641     1.0000 0.64544  0.71447  0.12091  Biso   1.000  H
  H642     1.0000 0.64534  0.71454  0.12091  Biso   1.000  H
  H643     1.0000 0.64541  0.71454  0.12091  Biso   1.000  H
  O224     1.0000 0.59690  0.02037  0.01569  Biso   1.000  O
  O225     1.0000 0.59693  0.02043  0.01576  Biso   1.000  O
  O226     1.0000 0.59687  0.02045  0.01569  Biso   1.000  O
  O227     1.0000 0.59689  0.02036  0.01576  Biso   1.000  O
  H644     1.0000 0.59972  0.79732  0.23941  Biso   1.000  H
  H645     1.0000 0.59965  0.79732  0.23941  Biso   1.000  H
  O228     1.0000 0.91223  0.65469  0.21635  Biso   1.000  O
  O229     1.0000 0.91216  0.65469  0.21635  Biso   1.000  O
  O230     1.0000 0.91221  0.65477  0.21635  Biso   1.000  O
  C701     1.0000 0.17275  0.29438  0.80764  Biso   1.000  C
  N401     1.0000 0.24824  0.22947  0.76064  Biso   1.000  N
  N402     1.0000 0.24827  0.22953  0.76071  Biso   1.000  N
  N403     1.0000 0.24828  0.22955  0.76064  Biso   1.000  N
  N404     1.0000 0.20709  0.29455  0.88556  Biso   1.000  N
  N405     1.0000 0.20705  0.29448  0.88556  Biso   1.000  N
  O231     1.0000 0.08782  0.34530  0.78363  Biso   1.000  O
  O232     1.0000 0.08789  0.34529  0.78369  Biso   1.000  O
  O233     1.0000 0.08789  0.34530  0.78363  Biso   1.000  O
  O234     1.0000 0.08786  0.34536  0.78369  Biso   1.000  O
  C702     1.0000 0.34276  0.18763  0.80237  Biso   1.000  C
  C703     1.0000 0.24795  0.23164  0.66513  Biso   1.000  C
  C704     1.0000 0.24794  0.23162  0.66520  Biso   1.000  C
  C705     1.0000 0.17279  0.29444  0.80771  Biso   1.000  C
  C706     1.0000 0.17280  0.29446  0.80764  Biso   1.000  C
  C707     1.0000 0.34283  0.18763  0.80237  Biso   1.000  C
  C708     1.0000 0.17272  0.29444  0.80771  Biso   1.000  C
  C709     1.0000 0.31538  0.23948  0.88495  Biso   1.000  C
  C710     1.0000 0.31535  0.23956  0.88495  Biso   1.000  C
  C711     1.0000 0.31542  0.23956  0.88495  Biso   1.000  C
  C712     1.0000 0.15478  0.37104  0.93906  Biso   1.000  C
  C713     1.0000 0.15471  0.37104  0.93906  Biso   1.000  C
  H646     1.0000 0.40038  0.20275  0.76057  Biso   1.000  H
  N406     1.0000 0.36807  0.08039  0.84315  Biso   1.000  N
  H647     1.0000 0.40033  0.20267  0.76057  Biso   1.000  H
  N407     1.0000 0.36804  0.08047  0.84315  Biso   1.000  N
  N408     1.0000 0.36814  0.08039  0.84315  Biso   1.000  N
  N409     1.0000 0.24565  0.13630  0.65124  Biso   1.000  N
  H648     1.0000 0.30923  0.24459  0.63038  Biso   1.000  H
  H649     1.0000 0.18804  0.28738  0.64249  Biso   1.000  H
  N410     1.0000 0.24564  0.13628  0.65131  Biso   1.000  N
  H650     1.0000 0.18801  0.28745  0.64249  Biso   1.000  H
  N411     1.0000 0.24572  0.13630  0.65124  Biso   1.000  N
  H651     1.0000 0.30931  0.24459  0.63038  Biso   1.000  H
  H652     1.0000 0.18811  0.28738  0.64249  Biso   1.000  H
  N412     1.0000 0.24561  0.13636  0.65131  Biso   1.000  N
  H653     1.0000 0.30921  0.24466  0.63038  Biso   1.000  H
  N413     1.0000 0.34156  0.15432  0.96048  Biso   1.000  N
  H654     1.0000 0.35469  0.28553  0.87906  Biso   1.000  H
  H655     1.0000 0.35462  0.28553  0.87906  Biso   1.000  H
  N414     1.0000 0.34164  0.15432  0.96048  Biso   1.000  N
  H656     1.0000 0.09283  0.41723  0.91197  Biso   1.000  H
  H657     1.0000 0.19888  0.41088  0.93605  Biso   1.000  H
  H658     1.0000 0.09290  0.41723  0.91197  Biso   1.000  H
  H659     1.0000 0.19885  0.41095  0.93605  Biso   1.000  H
  H660     1.0000 0.19892  0.41095  0.93605  Biso   1.000  H
  N415     1.0000 0.12640  0.33303  0.03252  Biso   1.000  N
  N416     1.0000 0.12633  0.33303  0.03252  Biso   1.000  N
  N417     1.0000 0.12643  0.33295  0.03252  Biso   1.000  N
  C714     1.0000 0.42410  0.00331  0.79026  Biso   1.000  C
  C715     1.0000 0.42403  0.00331  0.79026  Biso   1.000  C
  C716     1.0000 0.37414  0.06228  0.93448  Biso   1.000  C
  C717     1.0000 0.37418  0.06236  0.93448  Biso   1.000  C
  C718     1.0000 0.37421  0.06228  0.93448  Biso   1.000  C
  C719     1.0000 0.16825  0.13122  0.61423  Biso   1.000  C
  C720     1.0000 0.33503  0.04550  0.64974  Biso   1.000  C
  C721     1.0000 0.16824  0.13120  0.61430  Biso   1.000  C
  C722     1.0000 0.33509  0.04548  0.64981  Biso   1.000  C
  C723     1.0000 0.16832  0.13122  0.61423  Biso   1.000  C
  C724     1.0000 0.33510  0.04550  0.64974  Biso   1.000  C
  C725     1.0000 0.33499  0.04556  0.64981  Biso   1.000  C
  C726     1.0000 0.35901  0.16513  0.04709  Biso   1.000  C
  C727     1.0000 0.35900  0.16512  0.04716  Biso   1.000  C
  C728     1.0000 0.35893  0.16513  0.04709  Biso   1.000  C
  C729     1.0000 0.35903  0.16504  0.04716  Biso   1.000  C
  C730     1.0000 0.02462  0.36259  0.07049  Biso   1.000  C
  C731     1.0000 0.19770  0.30069  0.10155  Biso   1.000  C
  C732     1.0000 0.02458  0.36265  0.07056  Biso   1.000  C
  C733     1.0000 0.02461  0.36258  0.07056  Biso   1.000  C
  H661     1.0000 0.47694  0.02491  0.74778  Biso   1.000  H
  N418     1.0000 0.35901  0.98380  0.73963  Biso   1.000  N
  H662     1.0000 0.45828  0.94020  0.83076  Biso   1.000  H
  N419     1.0000 0.35910  0.98371  0.73970  Biso   1.000  N
  H663     1.0000 0.45838  0.94013  0.83076  Biso   1.000  H
  N420     1.0000 0.35904  0.98372  0.73963  Biso   1.000  N
  H664     1.0000 0.45831  0.94013  0.83076  Biso   1.000  H
  N421     1.0000 0.35903  0.98371  0.73970  Biso   1.000  N
  H665     1.0000 0.47701  0.02491  0.74778  Biso   1.000  H
  O235     1.0000 0.40313  0.97970  0.98429  Biso   1.000  O
  O236     1.0000 0.40316  0.97962  0.98429  Biso   1.000  O
  N422     1.0000 0.19626  0.03759  0.59535  Biso   1.000  N
  O237     1.0000 0.08705  0.20126  0.59904  Biso   1.000  O
  N423     1.0000 0.19625  0.03758  0.59542  Biso   1.000  N
  O238     1.0000 0.08702  0.20132  0.59911  Biso   1.000  O
  O239     1.0000 0.08710  0.20134  0.59904  Biso   1.000  O
  N424     1.0000 0.19622  0.03765  0.59542  Biso   1.000  N
  C734     1.0000 0.30324  0.97866  0.60664  Biso   1.000  C
  C735     1.0000 0.30323  0.97865  0.60670  Biso   1.000  C
  C736     1.0000 0.30320  0.97859  0.60664  Biso   1.000  C
  H666     1.0000 0.39511  0.06170  0.61389  Biso   1.000  H
  H667     1.0000 0.39518  0.06170  0.61389  Biso   1.000  H
  N425     1.0000 0.26619  0.19599  0.10832  Biso   1.000  N
  H668     1.0000 0.39343  0.21558  0.03601  Biso   1.000  H
  H669     1.0000 0.40500  0.10007  0.07644  Biso   1.000  H
  H670     1.0000 0.39339  0.21564  0.03608  Biso   1.000  H
  H671     1.0000 0.40497  0.10014  0.07644  Biso   1.000  H
  H672     1.0000 0.39336  0.21558  0.03601  Biso   1.000  H
  H673     1.0000 0.39342  0.21557  0.03608  Biso   1.000  H
  O240     1.0000 0.95028  0.40281  0.02930  Biso   1.000  O
  O241     1.0000 0.95027  0.40279  0.02937  Biso   1.000  O
  O242     1.0000 0.95030  0.40272  0.02937  Biso   1.000  O
  N426     1.0000 0.02400  0.33892  0.16483  Biso   1.000  N
  N427     1.0000 0.02402  0.33884  0.16483  Biso   1.000  N
  C737     1.0000 0.12574  0.29469  0.19329  Biso   1.000  C
  H674     1.0000 0.23462  0.34903  0.09519  Biso   1.000  H
  C738     1.0000 0.12570  0.29475  0.19336  Biso   1.000  C
  H675     1.0000 0.23461  0.34901  0.09526  Biso   1.000  H
  C739     1.0000 0.12566  0.29469  0.19329  Biso   1.000  C
  H676     1.0000 0.23455  0.34903  0.09519  Biso   1.000  H
  C740     1.0000 0.12573  0.29467  0.19336  Biso   1.000  C
  H677     1.0000 0.23464  0.34894  0.09526  Biso   1.000  H
  C741     1.0000 0.35864  0.88519  0.74716  Biso   1.000  C
  C742     1.0000 0.35867  0.88511  0.74716  Biso   1.000  C
  C743     1.0000 0.13621  0.00810  0.54828  Biso   1.000  C
  C744     1.0000 0.13629  0.00810  0.54828  Biso   1.000  C
  C745     1.0000 0.13619  0.00817  0.54828  Biso   1.000  C
  N428     1.0000 0.31870  0.88359  0.67293  Biso   1.000  N
  N429     1.0000 0.31879  0.88350  0.67300  Biso   1.000  N
  N430     1.0000 0.31873  0.88352  0.67293  Biso   1.000  N
  H678     1.0000 0.34450  0.96767  0.54787  Biso   1.000  H
  H679     1.0000 0.34453  0.96759  0.54787  Biso   1.000  H
  C746     1.0000 0.24309  0.13288  0.18495  Biso   1.000  C
  C747     1.0000 0.24313  0.13296  0.18495  Biso   1.000  C
  C748     1.0000 0.24316  0.13288  0.18495  Biso   1.000  C
  C749     1.0000 0.93215  0.37383  0.22545  Biso   1.000  C
  C750     1.0000 0.93222  0.37383  0.22545  Biso   1.000  C
  C751     1.0000 0.93225  0.37375  0.22545  Biso   1.000  C
  N431     1.0000 0.15467  0.18791  0.23133  Biso   1.000  N
  N432     1.0000 0.15474  0.18791  0.23133  Biso   1.000  N
  N433     1.0000 0.15476  0.18784  0.23133  Biso   1.000  N
  H680     1.0000 0.13561  0.33310  0.23380  Biso   1.000  H
  H681     1.0000 0.13560  0.33309  0.23386  Biso   1.000  H
  O243     1.0000 0.39130  0.81389  0.80784  Biso   1.000  O
  O244     1.0000 0.39139  0.81379  0.80791  Biso   1.000  O
  O245     1.0000 0.39132  0.81381  0.80784  Biso   1.000  O
  O246     1.0000 0.39136  0.81387  0.80791  Biso   1.000  O
  N434     1.0000 0.09648  0.92996  0.60109  Biso   1.000  N
  H682     1.0000 0.17859  0.98450  0.49437  Biso   1.000  H
  N435     1.0000 0.09658  0.92989  0.60109  Biso   1.000  N
  H683     1.0000 0.17862  0.98442  0.49437  Biso   1.000  H
  N436     1.0000 0.09651  0.92989  0.60109  Biso   1.000  N
  N437     1.0000 0.09655  0.92996  0.60109  Biso   1.000  N
  H684     1.0000 0.07876  0.06838  0.52755  Biso   1.000  H
  H685     1.0000 0.07872  0.06844  0.52762  Biso   1.000  H
  H686     1.0000 0.07883  0.06838  0.52755  Biso   1.000  H
  C752     1.0000 0.32479  0.78943  0.65138  Biso   1.000  C
  C753     1.0000 0.32486  0.78943  0.65138  Biso   1.000  C
  O247     1.0000 0.29211  0.04257  0.20794  Biso   1.000  O
  O248     1.0000 0.29215  0.04265  0.20794  Biso   1.000  O
  O249     1.0000 0.29208  0.04265  0.20794  Biso   1.000  O
  N438     1.0000 0.89228  0.29681  0.27662  Biso   1.000  N
  H687     1.0000 0.87935  0.42563  0.18974  Biso   1.000  H
  H688     1.0000 0.94673  0.40650  0.26739  Biso   1.000  H
  N439     1.0000 0.89235  0.29681  0.27662  Biso   1.000  N
  H689     1.0000 0.87942  0.42563  0.18974  Biso   1.000  H
  H690     1.0000 0.94672  0.40649  0.26746  Biso   1.000  H
  N440     1.0000 0.89238  0.29674  0.27662  Biso   1.000  N
  H691     1.0000 0.87945  0.42555  0.18974  Biso   1.000  H
  C754     1.0000 0.12599  0.14890  0.32588  Biso   1.000  C
  C755     1.0000 0.12603  0.14896  0.32595  Biso   1.000  C
  C756     1.0000 0.12606  0.14889  0.32595  Biso   1.000  C
  C757     1.0000 0.99140  0.95086  0.62559  Biso   1.000  C
  C758     1.0000 0.99150  0.95079  0.62559  Biso   1.000  C
  C759     1.0000 0.99143  0.95079  0.62559  Biso   1.000  C
  C760     1.0000 0.15104  0.82247  0.60116  Biso   1.000  C
  C761     1.0000 0.15107  0.82240  0.60116  Biso   1.000  C
  C762     1.0000 0.15100  0.82240  0.60116  Biso   1.000  C
  N441     1.0000 0.22793  0.77397  0.66465  Biso   1.000  N
  H692     1.0000 0.35368  0.78896  0.58796  Biso   1.000  H
  H693     1.0000 0.37170  0.73259  0.68908  Biso   1.000  H
  N442     1.0000 0.22796  0.77389  0.66465  Biso   1.000  N
  H694     1.0000 0.35378  0.78889  0.58796  Biso   1.000  H
  H695     1.0000 0.37180  0.73252  0.68908  Biso   1.000  H
  H696     1.0000 0.35371  0.78889  0.58796  Biso   1.000  H
  H697     1.0000 0.37173  0.73252  0.68908  Biso   1.000  H
  H698     1.0000 0.35375  0.78896  0.58796  Biso   1.000  H
  C763     1.0000 0.79808  0.29488  0.26670  Biso   1.000  C
  C764     1.0000 0.93119  0.22779  0.35852  Biso   1.000  C
  C765     1.0000 0.79812  0.29494  0.26677  Biso   1.000  C
  C766     1.0000 0.93123  0.22786  0.35852  Biso   1.000  C
  C767     1.0000 0.79805  0.29496  0.26670  Biso   1.000  C
  C768     1.0000 0.79814  0.29487  0.26677  Biso   1.000  C
  C769     1.0000 0.93126  0.22779  0.35852  Biso   1.000  C
  N443     1.0000 0.02373  0.14269  0.34394  Biso   1.000  N
  H699     1.0000 0.13044  0.19314  0.36290  Biso   1.000  H
  H700     1.0000 0.17504  0.08103  0.34449  Biso   1.000  H
  H701     1.0000 0.13043  0.19313  0.36296  Biso   1.000  H
  H702     1.0000 0.17503  0.08102  0.34456  Biso   1.000  H
  H703     1.0000 0.13037  0.19314  0.36290  Biso   1.000  H
  H704     1.0000 0.17497  0.08103  0.34449  Biso   1.000  H
  H705     1.0000 0.13046  0.19305  0.36296  Biso   1.000  H
  H706     1.0000 0.17506  0.08094  0.34456  Biso   1.000  H
  N444     1.0000 0.97630  0.85738  0.65603  Biso   1.000  N
  N445     1.0000 0.97639  0.85729  0.65610  Biso   1.000  N
  N446     1.0000 0.97633  0.85731  0.65603  Biso   1.000  N
  N447     1.0000 0.97629  0.85737  0.65610  Biso   1.000  N
  O250     1.0000 0.92663  0.03429  0.61827  Biso   1.000  O
  O251     1.0000 0.92670  0.03429  0.61827  Biso   1.000  O
  O252     1.0000 0.92660  0.03437  0.61827  Biso   1.000  O
  H707     1.0000 0.17990  0.81037  0.53925  Biso   1.000  H
  C770     1.0000 0.06884  0.77229  0.64146  Biso   1.000  C
  H708     1.0000 0.17999  0.81028  0.53932  Biso   1.000  H
  C771     1.0000 0.06887  0.77221  0.64146  Biso   1.000  C
  H709     1.0000 0.17993  0.81030  0.53925  Biso   1.000  H
  C772     1.0000 0.06879  0.77221  0.64146  Biso   1.000  C
  H710     1.0000 0.17989  0.81036  0.53932  Biso   1.000  H
  C773     1.0000 0.20195  0.70519  0.73327  Biso   1.000  C
  C774     1.0000 0.20197  0.70511  0.73327  Biso   1.000  C
  C775     1.0000 0.20190  0.70511  0.73327  Biso   1.000  C
  N448     1.0000 0.77210  0.22610  0.33532  Biso   1.000  N
  O253     1.0000 0.74689  0.35251  0.20554  Biso   1.000  O
  N449     1.0000 0.77217  0.22610  0.33532  Biso   1.000  N
  O254     1.0000 0.74692  0.35243  0.20554  Biso   1.000  O
  C776     1.0000 0.84899  0.17760  0.39881  Biso   1.000  C
  H711     1.0000 0.93929  0.26510  0.40093  Biso   1.000  H
  C777     1.0000 0.84906  0.17760  0.39881  Biso   1.000  C
  H712     1.0000 0.93936  0.26510  0.40093  Biso   1.000  H
  C778     1.0000 0.00863  0.04921  0.37439  Biso   1.000  C
  C779     1.0000 0.00862  0.04919  0.37446  Biso   1.000  C
  C780     1.0000 0.87404  0.85117  0.67409  Biso   1.000  C
  C781     1.0000 0.87406  0.85110  0.67409  Biso   1.000  C
  C782     1.0000 0.87399  0.85110  0.67409  Biso   1.000  C
  N450     1.0000 0.10775  0.70326  0.72335  Biso   1.000  N
  N451     1.0000 0.10778  0.70318  0.72335  Biso   1.000  N
  H713     1.0000 0.06074  0.73497  0.59904  Biso   1.000  H
  H714     1.0000 0.06076  0.73488  0.59911  Biso   1.000  H
  H715     1.0000 0.06070  0.73490  0.59904  Biso   1.000  H
  H716     1.0000 0.06073  0.73496  0.59911  Biso   1.000  H
  O255     1.0000 0.25314  0.64756  0.79444  Biso   1.000  O
  O256     1.0000 0.25313  0.64755  0.79450  Biso   1.000  O
  O257     1.0000 0.25317  0.64749  0.79444  Biso   1.000  O
  C783     1.0000 0.67524  0.21064  0.34860  Biso   1.000  C
  C784     1.0000 0.67523  0.21063  0.34867  Biso   1.000  C
  C785     1.0000 0.67517  0.21064  0.34860  Biso   1.000  C
  C786     1.0000 0.67526  0.21055  0.34867  Biso   1.000  C
  N452     1.0000 0.90355  0.07011  0.39888  Biso   1.000  N
  N453     1.0000 0.90354  0.07009  0.39895  Biso   1.000  N
  H717     1.0000 0.82013  0.18970  0.46073  Biso   1.000  H
  O258     1.0000 0.07343  0.96571  0.38171  Biso   1.000  O
  O259     1.0000 0.07336  0.96571  0.38171  Biso   1.000  O
  O260     1.0000 0.07340  0.96578  0.38171  Biso   1.000  O
  N454     1.0000 0.84536  0.81216  0.76864  Biso   1.000  N
  H718     1.0000 0.86959  0.80693  0.63708  Biso   1.000  H
  H719     1.0000 0.82499  0.91904  0.65548  Biso   1.000  H
  N455     1.0000 0.84535  0.81214  0.76871  Biso   1.000  N
  H720     1.0000 0.86966  0.80693  0.63708  Biso   1.000  H
  H721     1.0000 0.82506  0.91904  0.65548  Biso   1.000  H
  N456     1.0000 0.84532  0.81208  0.76864  Biso   1.000  N
  C787     1.0000 0.06788  0.62624  0.77453  Biso   1.000  C
  C788     1.0000 0.06787  0.62623  0.77459  Biso   1.000  C
  C789     1.0000 0.06780  0.62624  0.77453  Biso   1.000  C
  N457     1.0000 0.68133  0.11648  0.32705  Biso   1.000  N
  H722     1.0000 0.64635  0.21111  0.41202  Biso   1.000  H
  H723     1.0000 0.62833  0.26748  0.31090  Biso   1.000  H
  N458     1.0000 0.68130  0.11656  0.32705  Biso   1.000  N
  H724     1.0000 0.62829  0.26754  0.31097  Biso   1.000  H
  H725     1.0000 0.64627  0.21111  0.41202  Biso   1.000  H
  H726     1.0000 0.62830  0.26755  0.31090  Biso   1.000  H
  H727     1.0000 0.62832  0.26746  0.31097  Biso   1.000  H
  C790     1.0000 0.86384  0.99190  0.45170  Biso   1.000  C
  C791     1.0000 0.86373  0.99196  0.45177  Biso   1.000  C
  C792     1.0000 0.86380  0.99196  0.45177  Biso   1.000  C
  C793     1.0000 0.87429  0.70539  0.80668  Biso   1.000  C
  C794     1.0000 0.75694  0.86719  0.81503  Biso   1.000  C
  C795     1.0000 0.87439  0.70531  0.80668  Biso   1.000  C
  C796     1.0000 0.75696  0.86710  0.81510  Biso   1.000  C
  C797     1.0000 0.87432  0.70531  0.80668  Biso   1.000  C
  C798     1.0000 0.75697  0.86711  0.81503  Biso   1.000  C
  C799     1.0000 0.75693  0.86717  0.81510  Biso   1.000  C
  N459     1.0000 0.97603  0.66115  0.83514  Biso   1.000  N
  N460     1.0000 0.97610  0.66114  0.83521  Biso   1.000  N
  N461     1.0000 0.97602  0.66114  0.83521  Biso   1.000  N
  H728     1.0000 0.12068  0.57444  0.81024  Biso   1.000  H
  H729     1.0000 0.05330  0.59357  0.73259  Biso   1.000  H
  H730     1.0000 0.12067  0.57443  0.81031  Biso   1.000  H
  H731     1.0000 0.05340  0.59349  0.73259  Biso   1.000  H
  H732     1.0000 0.12060  0.57444  0.81024  Biso   1.000  H
  H733     1.0000 0.05333  0.59349  0.73259  Biso   1.000  H
  H734     1.0000 0.05337  0.59357  0.73259  Biso   1.000  H
  C800     1.0000 0.64139  0.11488  0.25282  Biso   1.000  C
  C801     1.0000 0.69679  0.02141  0.39334  Biso   1.000  C
  C802     1.0000 0.64143  0.11496  0.25282  Biso   1.000  C
  C803     1.0000 0.69686  0.02141  0.39334  Biso   1.000  C
  C804     1.0000 0.64146  0.11488  0.25282  Biso   1.000  C
  N462     1.0000 0.80380  0.96240  0.40463  Biso   1.000  N
  H735     1.0000 0.92130  0.93162  0.47243  Biso   1.000  H
  N463     1.0000 0.80384  0.96248  0.40463  Biso   1.000  N
  H736     1.0000 0.92137  0.93162  0.47243  Biso   1.000  H
  H737     1.0000 0.82144  0.01558  0.50561  Biso   1.000  H
  H738     1.0000 0.82141  0.01565  0.50561  Biso   1.000  H
  H739     1.0000 0.86442  0.66697  0.76618  Biso   1.000  H
  C805     1.0000 0.80233  0.69939  0.89843  Biso   1.000  C
  H740     1.0000 0.86451  0.66689  0.76618  Biso   1.000  H
  C806     1.0000 0.80242  0.69930  0.89849  Biso   1.000  C
  H741     1.0000 0.86444  0.66689  0.76618  Biso   1.000  H
  C807     1.0000 0.80235  0.69931  0.89843  Biso   1.000  C
  C808     1.0000 0.80232  0.69937  0.89849  Biso   1.000  C
  N464     1.0000 0.73383  0.80408  0.89165  Biso   1.000  N
  O261     1.0000 0.70792  0.95750  0.79204  Biso   1.000  O
  N465     1.0000 0.73386  0.80401  0.89165  Biso   1.000  N
  O262     1.0000 0.70794  0.95741  0.79211  Biso   1.000  O
  O263     1.0000 0.70795  0.95742  0.79204  Biso   1.000  O
  C809     1.0000 0.97541  0.63748  0.92949  Biso   1.000  C
  C810     1.0000 0.97551  0.63740  0.92949  Biso   1.000  C
  C811     1.0000 0.97544  0.63740  0.92949  Biso   1.000  C
  C812     1.0000 0.97548  0.63748  0.92949  Biso   1.000  C
  N466     1.0000 0.64102  0.01627  0.26034  Biso   1.000  N
  O264     1.0000 0.60873  0.18619  0.19213  Biso   1.000  O
  N467     1.0000 0.64099  0.01635  0.26034  Biso   1.000  N
  O265     1.0000 0.60870  0.18626  0.19213  Biso   1.000  O
  O266     1.0000 0.60866  0.18619  0.19213  Biso   1.000  O
  C813     1.0000 0.66503  0.95450  0.35024  Biso   1.000  C
  C814     1.0000 0.66495  0.95450  0.35024  Biso   1.000  C
  C815     1.0000 0.66500  0.95457  0.35024  Biso   1.000  C
  H742     1.0000 0.65553  0.03240  0.45211  Biso   1.000  H
  C816     1.0000 0.83181  0.86878  0.38575  Biso   1.000  C
  C817     1.0000 0.83178  0.86885  0.38575  Biso   1.000  C
  C818     1.0000 0.83185  0.86885  0.38575  Biso   1.000  C
  N468     1.0000 0.87363  0.66704  0.96746  Biso   1.000  N
  N469     1.0000 0.87370  0.66704  0.96746  Biso   1.000  N
  H743     1.0000 0.76541  0.65104  0.90479  Biso   1.000  H
  H744     1.0000 0.76548  0.65104  0.90479  Biso   1.000  H
  C819     1.0000 0.64102  0.83494  0.95288  Biso   1.000  C
  C820     1.0000 0.64109  0.83494  0.95288  Biso   1.000  C
  O267     1.0000 0.04975  0.59726  0.97067  Biso   1.000  O
  O268     1.0000 0.04978  0.59719  0.97067  Biso   1.000  O
  C821     1.0000 0.57603  0.99668  0.20971  Biso   1.000  C
  C822     1.0000 0.57593  0.99676  0.20971  Biso   1.000  C
  C823     1.0000 0.57600  0.99676  0.20971  Biso   1.000  C
  N470     1.0000 0.75441  0.86370  0.34873  Biso   1.000  N
  N471     1.0000 0.75438  0.86378  0.34873  Biso   1.000  N
  H745     1.0000 0.60494  0.93829  0.38609  Biso   1.000  H
  H746     1.0000 0.60483  0.93835  0.38616  Biso   1.000  H
  H747     1.0000 0.60491  0.93835  0.38616  Biso   1.000  H
  O269     1.0000 0.91300  0.79873  0.40093  Biso   1.000  O
  C824     1.0000 0.84535  0.62896  0.06091  Biso   1.000  C
  C825     1.0000 0.84525  0.62903  0.06091  Biso   1.000  C
  C826     1.0000 0.84532  0.62903  0.06091  Biso   1.000  C
  H748     1.0000 0.60660  0.78449  0.96397  Biso   1.000  H
  H749     1.0000 0.59503  0.90001  0.92353  Biso   1.000  H
  H750     1.0000 0.60670  0.78441  0.96397  Biso   1.000  H
  H751     1.0000 0.59505  0.89992  0.92360  Biso   1.000  H
  H752     1.0000 0.60663  0.78441  0.96397  Biso   1.000  H
  H753     1.0000 0.59506  0.89993  0.92353  Biso   1.000  H
  N472     1.0000 0.65849  0.84567  0.03950  Biso   1.000  N
  N473     1.0000 0.65846  0.84573  0.03957  Biso   1.000  N
  N474     1.0000 0.65846  0.84575  0.03950  Biso   1.000  N
  N475     1.0000 0.63199  0.91960  0.15683  Biso   1.000  N
  H754     1.0000 0.52311  0.97508  0.25220  Biso   1.000  H
  H755     1.0000 0.52308  0.97514  0.25227  Biso   1.000  H
  H756     1.0000 0.52309  0.97516  0.25220  Biso   1.000  H
  N476     1.0000 0.63196  0.91968  0.15683  Biso   1.000  N
  H757     1.0000 0.54175  0.05987  0.16921  Biso   1.000  H
  H758     1.0000 0.54172  0.05994  0.16921  Biso   1.000  H
  H759     1.0000 0.54165  0.05994  0.16921  Biso   1.000  H
  C827     1.0000 0.75210  0.76836  0.33485  Biso   1.000  C
  C828     1.0000 0.75208  0.76843  0.33485  Biso   1.000  C
  C829     1.0000 0.75215  0.76843  0.33485  Biso   1.000  C
  N477     1.0000 0.79301  0.70552  0.11441  Biso   1.000  N
  H760     1.0000 0.90723  0.58277  0.08800  Biso   1.000  H
  H761     1.0000 0.80118  0.58912  0.06392  Biso   1.000  H
  N478     1.0000 0.79294  0.70552  0.11441  Biso   1.000  N
  H762     1.0000 0.90712  0.58283  0.08807  Biso   1.000  H
  H763     1.0000 0.90720  0.58284  0.08800  Biso   1.000  H
  H764     1.0000 0.90719  0.58283  0.08807  Biso   1.000  H
  C830     1.0000 0.68468  0.76052  0.11503  Biso   1.000  C
  C831     1.0000 0.62592  0.93771  0.06550  Biso   1.000  C
  C832     1.0000 0.62584  0.93770  0.06556  Biso   1.000  C
  C833     1.0000 0.62585  0.93771  0.06550  Biso   1.000  C
  C834     1.0000 0.62591  0.93770  0.06556  Biso   1.000  C
  C835     1.0000 0.65730  0.81237  0.19760  Biso   1.000  C
  C836     1.0000 0.65726  0.81243  0.19767  Biso   1.000  C
  C837     1.0000 0.65727  0.81245  0.19760  Biso   1.000  C
  C838     1.0000 0.65733  0.81243  0.19767  Biso   1.000  C
  N479     1.0000 0.75182  0.77053  0.23934  Biso   1.000  N
  H765     1.0000 0.69082  0.75541  0.36960  Biso   1.000  H
  H766     1.0000 0.81202  0.71262  0.35749  Biso   1.000  H
  N480     1.0000 0.75175  0.77053  0.23934  Biso   1.000  N
  H767     1.0000 0.69074  0.75539  0.36967  Biso   1.000  H
  H768     1.0000 0.81201  0.71260  0.35756  Biso   1.000  H
  H769     1.0000 0.69079  0.75547  0.36967  Biso   1.000  H
  C839     1.0000 0.82730  0.70562  0.19234  Biso   1.000  C
  C840     1.0000 0.82723  0.70562  0.19234  Biso   1.000  C
  H770     1.0000 0.64544  0.71447  0.12091  Biso   1.000  H
  H771     1.0000 0.64534  0.71454  0.12091  Biso   1.000  H
  H772     1.0000 0.64541  0.71454  0.12091  Biso   1.000  H
  O270     1.0000 0.59690  0.02037  0.01569  Biso   1.000  O
  O271     1.0000 0.59693  0.02043  0.01576  Biso   1.000  O
  O272     1.0000 0.59687  0.02045  0.01569  Biso   1.000  O
  O273     1.0000 0.59689  0.02036  0.01576  Biso   1.000  O
  H773     1.0000 0.59972  0.79732  0.23941  Biso   1.000  H
  H774     1.0000 0.59965  0.79732  0.23941  Biso   1.000  H
  O274     1.0000 0.91223  0.65469  0.21635  Biso   1.000  O
  O275     1.0000 0.91216  0.65469  0.21635  Biso   1.000  O
  O276     1.0000 0.91221  0.65477  0.21635  Biso   1.000  O
