data_image0
_cell_length_a       21.644
_cell_length_b       19.782
_cell_length_c       23.27
_cell_angle_alpha    90
_cell_angle_beta     105.7
_cell_angle_gamma    90

_symmetry_space_group_name_H-M    "P 1"
_symmetry_int_tables_number       1

loop_
  _symmetry_equiv_pos_as_xyz
  'x, y, z'

loop_
  _atom_site_label
  _atom_site_occupancy
  _atom_site_fract_x
  _atom_site_fract_y
  _atom_site_fract_z
  _atom_site_thermal_displace_type
  _atom_site_B_iso_or_equiv
  _atom_site_type_symbol
  C1       1.0000 0.51954  0.67501  0.66160  Biso   1.000  C
  C2       1.0000 0.46456  0.66232  0.68668  Biso   1.000  C
  N1       1.0000 0.57226  0.69720  0.69240  Biso   1.000  N
  H1       1.0000 0.51456  0.66591  0.62048  Biso   1.000  H
  C3       1.0000 0.40686  0.63922  0.64986  Biso   1.000  C
  C4       1.0000 0.46924  0.67521  0.74677  Biso   1.000  C
  C5       1.0000 0.62276  0.70539  0.66160  Biso   1.000  C
  C6       1.0000 0.35433  0.62709  0.67195  Biso   1.000  C
  H2       1.0000 0.40327  0.63138  0.60879  Biso   1.000  H
  C7       1.0000 0.41663  0.66202  0.77016  Biso   1.000  C
  H3       1.0000 0.50795  0.69290  0.77199  Biso   1.000  H
  C8       1.0000 0.64937  0.77702  0.67209  Biso   1.000  C
  C9       1.0000 0.67593  0.65373  0.68619  Biso   1.000  C
  H4       1.0000 0.60414  0.69770  0.61776  Biso   1.000  H
  C10      1.0000 0.29444  0.59670  0.63347  Biso   1.000  C
  C11      1.0000 0.35956  0.63891  0.73168  Biso   1.000  C
  C12      1.0000 0.42514  0.67041  0.83435  Biso   1.000  C
  N2       1.0000 0.59864  0.82509  0.64477  Biso   1.000  N
  H5       1.0000 0.66456  0.78582  0.71588  Biso   1.000  H
  C13      1.0000 0.70564  0.78592  0.64428  Biso   1.000  C
  C14      1.0000 0.73086  0.66262  0.65776  Biso   1.000  C
  H6       1.0000 0.69224  0.65929  0.72985  Biso   1.000  H
  H7       1.0000 0.65837  0.60752  0.67807  Biso   1.000  H
  N3       1.0000 0.28945  0.57492  0.58218  Biso   1.000  N
  H8       1.0000 0.25813  0.59392  0.64888  Biso   1.000  H
  H9       1.0000 0.32354  0.63103  0.74668  Biso   1.000  H
  N4       1.0000 0.38224  0.65292  0.85966  Biso   1.000  N
  H10      1.0000 0.46394  0.68962  0.85797  Biso   1.000  H
  C15      1.0000 0.58184  0.86690  0.67816  Biso   1.000  C
  H11      1.0000 0.68964  0.78162  0.60040  Biso   1.000  H
  H12      1.0000 0.72384  0.83182  0.65347  Biso   1.000  H
  C16      1.0000 0.75736  0.73430  0.66736  Biso   1.000  C
  H13      1.0000 0.71554  0.65322  0.61446  Biso   1.000  H
  H14      1.0000 0.76543  0.63002  0.67557  Biso   1.000  H
  C17      1.0000 0.22808  0.54241  0.55098  Biso   1.000  C
  C18      1.0000 0.39694  0.66191  0.92448  Biso   1.000  C
  C19      1.0000 0.53235  0.91912  0.65526  Biso   1.000  C
  H15      1.0000 0.60164  0.86493  0.71985  Biso   1.000  H
  H16      1.0000 0.77686  0.74189  0.71057  Biso   1.000  H
  H17      1.0000 0.79145  0.73981  0.64669  Biso   1.000  H
  C20      1.0000 0.23887  0.46861  0.53728  Biso   1.000  C
  C21      1.0000 0.19836  0.58199  0.49219  Biso   1.000  C
  H18      1.0000 0.19805  0.54459  0.57687  Biso   1.000  H
  H19      1.0000 0.44134  0.68062  0.93957  Biso   1.000  H
  C22      1.0000 0.39393  0.59271  0.95385  Biso   1.000  C
  C23      1.0000 0.34972  0.71100  0.93907  Biso   1.000  C
  C24      1.0000 0.49524  0.91791  0.59647  Biso   1.000  C
  C25      1.0000 0.52262  0.96952  0.69235  Biso   1.000  C
  C26      1.0000 0.17924  0.43509  0.49969  Biso   1.000  C
  H20      1.0000 0.27283  0.46618  0.51616  Biso   1.000  H
  H21      1.0000 0.25404  0.44348  0.57527  Biso   1.000  H
  C27      1.0000 0.13886  0.54641  0.45617  Biso   1.000  C
  N5       1.0000 0.18224  0.64902  0.50857  Biso   1.000  N
  H22      1.0000 0.23035  0.58538  0.46827  Biso   1.000  H
  H23      1.0000 0.42653  0.56223  0.94537  Biso   1.000  H
  H24      1.0000 0.35112  0.57219  0.93675  Biso   1.000  H
  C28      1.0000 0.40581  0.60019  0.02072  Biso   1.000  C
  N6       1.0000 0.35472  0.77641  0.91211  Biso   1.000  N
  H25      1.0000 0.30511  0.69300  0.92296  Biso   1.000  H
  C29      1.0000 0.36419  0.71878  0.00710  Biso   1.000  C
  C30      1.0000 0.45193  0.96982  0.57388  Biso   1.000  C
  H26      1.0000 0.49935  0.88131  0.57138  Biso   1.000  H
  C31      1.0000 0.47967  0.02270  0.67209  Biso   1.000  C
  H27      1.0000 0.54585  0.96820  0.73329  Biso   1.000  H
  C32      1.0000 0.15127  0.47361  0.44358  Biso   1.000  C
  H28      1.0000 0.18975  0.38869  0.48960  Biso   1.000  H
  H29      1.0000 0.14715  0.43191  0.52277  Biso   1.000  H
  H30      1.0000 0.12205  0.57052  0.41778  Biso   1.000  H
  H31      1.0000 0.10568  0.54823  0.47809  Biso   1.000  H
  C33      1.0000 0.20748  0.70018  0.49148  Biso   1.000  C
  H32      1.0000 0.40060  0.55561  0.03822  Biso   1.000  H
  H33      1.0000 0.45059  0.61531  0.03822  Biso   1.000  H
  C34      1.0000 0.36160  0.64902  0.03630  Biso   1.000  C
  C35      1.0000 0.30513  0.79881  0.87506  Biso   1.000  C
  H34      1.0000 0.33241  0.74952  0.01679  Biso   1.000  H
  H35      1.0000 0.40738  0.73890  0.02309  Biso   1.000  H
  C36      1.0000 0.41714  0.96841  0.51018  Biso   1.000  C
  C37      1.0000 0.44367  0.02078  0.61169  Biso   1.000  C
  C38      1.0000 0.47074  0.07840  0.70950  Biso   1.000  C
  H36      1.0000 0.11047  0.45213  0.42148  Biso   1.000  H
  H37      1.0000 0.18119  0.47179  0.41809  Biso   1.000  H
  C39      1.0000 0.19157  0.77111  0.50460  Biso   1.000  C
  H38      1.0000 0.23797  0.69331  0.46938  Biso   1.000  H
  H39      1.0000 0.37299  0.65438  0.08022  Biso   1.000  H
  H40      1.0000 0.31728  0.63123  0.02309  Biso   1.000  H
  C40      1.0000 0.30323  0.86493  0.84457  Biso   1.000  C
  H41      1.0000 0.26722  0.77212  0.86627  Biso   1.000  H
  N7       1.0000 0.38107  0.01451  0.48179  Biso   1.000  N
  H42      1.0000 0.42236  0.92923  0.48826  Biso   1.000  H
  H43      1.0000 0.41306  0.05530  0.59669  Biso   1.000  H
  N8       1.0000 0.50342  0.08240  0.76436  Biso   1.000  N
  H44      1.0000 0.44013  0.11258  0.69307  Biso   1.000  H
  C41      1.0000 0.15215  0.78202  0.54250  Biso   1.000  C
  C42      1.0000 0.21686  0.82469  0.48050  Biso   1.000  C
  C43      1.0000 0.24586  0.88591  0.80699  Biso   1.000  C
  C44      1.0000 0.35665  0.90542  0.85506  Biso   1.000  C
  C45      1.0000 0.35265  0.00602  0.41858  Biso   1.000  C
  H45      1.0000 0.37337  0.05111  0.50027  Biso   1.000  H
  C46      1.0000 0.49094  0.13942  0.79895  Biso   1.000  C
  C47      1.0000 0.13775  0.84718  0.55670  Biso   1.000  C
  H46      1.0000 0.13504  0.74452  0.55866  Biso   1.000  H
  H47      1.0000 0.24415  0.81680  0.45536  Biso   1.000  H
  C48      1.0000 0.20165  0.89172  0.49366  Biso   1.000  C
  C49      1.0000 0.24024  0.94930  0.77878  Biso   1.000  C
  H48      1.0000 0.20945  0.85709  0.79998  Biso   1.000  H
  C50      1.0000 0.35304  0.96992  0.82855  Biso   1.000  C
  H49      1.0000 0.39621  0.88990  0.88037  Biso   1.000  H
  C51      1.0000 0.27946  0.00511  0.40729  Biso   1.000  C
  H50      1.0000 0.36739  0.96229  0.40510  Biso   1.000  H
  C52      1.0000 0.37387  0.06501  0.38559  Biso   1.000  C
  C53      1.0000 0.47015  0.11288  0.85247  Biso   1.000  C
  H51      1.0000 0.45601  0.16798  0.77355  Biso   1.000  H
  C54      1.0000 0.55252  0.18158  0.82038  Biso   1.000  C
  C55      1.0000 0.16326  0.90203  0.53098  Biso   1.000  C
  C56      1.0000 0.09773  0.85831  0.59607  Biso   1.000  C
  C57      1.0000 0.22698  0.94930  0.46907  Biso   1.000  C
  C58      1.0000 0.17876  0.97290  0.73958  Biso   1.000  C
  C59      1.0000 0.29451  0.99019  0.78935  Biso   1.000  C
  C60      1.0000 0.40994  0.01319  0.84435  Biso   1.000  C
  N9       1.0000 0.26065  0.94460  0.43188  Biso   1.000  N
  C61      1.0000 0.24798  0.00359  0.33988  Biso   1.000  C
  H52      1.0000 0.26487  0.04580  0.42559  Biso   1.000  H
  H53      1.0000 0.42107  0.06309  0.39220  Biso   1.000  H
  H54      1.0000 0.36336  0.10818  0.40220  Biso   1.000  H
  C62      1.0000 0.34088  0.06278  0.31779  Biso   1.000  C
  N10      1.0000 0.41016  0.07512  0.83127  Biso   1.000  N
  C63      1.0000 0.46070  0.16859  0.89386  Biso   1.000  C
  H55      1.0000 0.50403  0.08139  0.87555  Biso   1.000  H
  H56      1.0000 0.58833  0.15201  0.84167  Biso   1.000  H
  H57      1.0000 0.56383  0.20119  0.78538  Biso   1.000  H
  C64      1.0000 0.54414  0.23820  0.86176  Biso   1.000  C
  H58      1.0000 0.15354  0.94692  0.54000  Biso   1.000  H
  N11      1.0000 0.08135  0.91710  0.60883  Biso   1.000  N
  H59      1.0000 0.08304  0.82019  0.61339  Biso   1.000  H
  H60      1.0000 0.21787  0.99323  0.48130  Biso   1.000  H
  N12      1.0000 0.12635  0.94242  0.73525  Biso   1.000  N
  H61      1.0000 0.17833  0.01269  0.71668  Biso   1.000  H
  H62      1.0000 0.29184  0.03261  0.76967  Biso   1.000  H
  H63      1.0000 0.44931  0.99343  0.86596  Biso   1.000  H
  H64      1.0000 0.25936  0.96072  0.32328  Biso   1.000  H
  C65      1.0000 0.26848  0.06218  0.30761  Biso   1.000  C
  H65      1.0000 0.20077  0.00470  0.33261  Biso   1.000  H
  H66      1.0000 0.35357  0.10282  0.29819  Biso   1.000  H
  H67      1.0000 0.35448  0.02179  0.30020  Biso   1.000  H
  C66      1.0000 0.52283  0.21161  0.91555  Biso   1.000  C
  H68      1.0000 0.44961  0.14862  0.92876  Biso   1.000  H
  H69      1.0000 0.42483  0.19801  0.87265  Biso   1.000  H
  H70      1.0000 0.51174  0.27050  0.83917  Biso   1.000  H
  H71      1.0000 0.58521  0.26281  0.87636  Biso   1.000  H
  C67      1.0000 0.03843  0.92190  0.64807  Biso   1.000  C
  C68      1.0000 0.06774  0.97260  0.69767  Biso   1.000  C
  H72      1.0000 0.25467  0.10510  0.32207  Biso   1.000  H
  H73      1.0000 0.24729  0.05849  0.26431  Biso   1.000  H
  H74      1.0000 0.51473  0.25013  0.93966  Biso   1.000  H
  H75      1.0000 0.55742  0.18350  0.94108  Biso   1.000  H
  H76      1.0000 0.03407  0.87660  0.66579  Biso   1.000  H
  C69      1.0000 0.97346  0.94591  0.60977  Biso   1.000  C
  C70      1.0000 0.02142  0.98701  0.73427  Biso   1.000  C
  H77      1.0000 0.07833  0.01562  0.67977  Biso   1.000  H
  H78      1.0000 0.95464  0.91103  0.57968  Biso   1.000  H
  H79      1.0000 0.97916  0.98772  0.58839  Biso   1.000  H
  C71      1.0000 0.92776  0.95971  0.64816  Biso   1.000  C
  H80      1.0000 0.01505  0.94530  0.75556  Biso   1.000  H
  C72      1.0000 0.95594  0.01168  0.69548  Biso   1.000  C
  H81      1.0000 0.03994  0.02179  0.76458  Biso   1.000  H
  H82      1.0000 0.88625  0.97629  0.62267  Biso   1.000  H
  H83      1.0000 0.91975  0.91730  0.66749  Biso   1.000  H
  H84      1.0000 0.92643  0.01931  0.72079  Biso   1.000  H
  H85      1.0000 0.96144  0.05520  0.67628  Biso   1.000  H
  C73      1.0000 0.48036  0.67501  0.33841  Biso   1.000  C
  N13      1.0000 0.42768  0.69720  0.30756  Biso   1.000  N
  C74      1.0000 0.53538  0.66232  0.31328  Biso   1.000  C
  H86      1.0000 0.48538  0.66591  0.37948  Biso   1.000  H
  C75      1.0000 0.37719  0.70539  0.33841  Biso   1.000  C
  C76      1.0000 0.53069  0.67521  0.25319  Biso   1.000  C
  C77      1.0000 0.59308  0.63922  0.35011  Biso   1.000  C
  C78      1.0000 0.32396  0.65373  0.31377  Biso   1.000  C
  C79      1.0000 0.35056  0.77702  0.32787  Biso   1.000  C
  H87      1.0000 0.39575  0.69770  0.38220  Biso   1.000  H
  C80      1.0000 0.58330  0.66202  0.22980  Biso   1.000  C
  H88      1.0000 0.49198  0.69290  0.22797  Biso   1.000  H
  H89      1.0000 0.59666  0.63138  0.39117  Biso   1.000  H
  C81      1.0000 0.64560  0.62709  0.32801  Biso   1.000  C
  C82      1.0000 0.26907  0.66262  0.34220  Biso   1.000  C
  H90      1.0000 0.30770  0.65929  0.27011  Biso   1.000  H
  H91      1.0000 0.34157  0.60752  0.32189  Biso   1.000  H
  C83      1.0000 0.29429  0.78592  0.35569  Biso   1.000  C
  N14      1.0000 0.40125  0.82509  0.35519  Biso   1.000  N
  H92      1.0000 0.33537  0.78582  0.28408  Biso   1.000  H
  C84      1.0000 0.64038  0.63891  0.26828  Biso   1.000  C
  C85      1.0000 0.57479  0.67041  0.16561  Biso   1.000  C
  C86      1.0000 0.70549  0.59670  0.36649  Biso   1.000  C
  C87      1.0000 0.24258  0.73430  0.33261  Biso   1.000  C
  H93      1.0000 0.28440  0.65322  0.38550  Biso   1.000  H
  H94      1.0000 0.23446  0.63002  0.32439  Biso   1.000  H
  H95      1.0000 0.31025  0.78162  0.39957  Biso   1.000  H
  H96      1.0000 0.27609  0.83182  0.34649  Biso   1.000  H
  C88      1.0000 0.41810  0.86690  0.32180  Biso   1.000  C
  H97      1.0000 0.67639  0.63103  0.25328  Biso   1.000  H
  N15      1.0000 0.61770  0.65292  0.14030  Biso   1.000  N
  H98      1.0000 0.53600  0.68962  0.14200  Biso   1.000  H
  N16      1.0000 0.71048  0.57492  0.41778  Biso   1.000  N
  H99      1.0000 0.74176  0.59392  0.35109  Biso   1.000  H
  H100     1.0000 0.22308  0.74189  0.28940  Biso   1.000  H
  H101     1.0000 0.20849  0.73981  0.35327  Biso   1.000  H
  C89      1.0000 0.46759  0.91912  0.34470  Biso   1.000  C
  H102     1.0000 0.39830  0.86493  0.28011  Biso   1.000  H
  C90      1.0000 0.60300  0.66191  0.07548  Biso   1.000  C
  C91      1.0000 0.77186  0.54241  0.44898  Biso   1.000  C
  C92      1.0000 0.47727  0.96952  0.30761  Biso   1.000  C
  C93      1.0000 0.50465  0.91791  0.40349  Biso   1.000  C
  H103     1.0000 0.55860  0.68062  0.06040  Biso   1.000  H
  C94      1.0000 0.60600  0.59271  0.04611  Biso   1.000  C
  C95      1.0000 0.65018  0.71100  0.06089  Biso   1.000  C
  H104     1.0000 0.80189  0.54459  0.42309  Biso   1.000  H
  C96      1.0000 0.76106  0.46861  0.46269  Biso   1.000  C
  C97      1.0000 0.80158  0.58199  0.50777  Biso   1.000  C
  H105     1.0000 0.45408  0.96820  0.26667  Biso   1.000  H
  C98      1.0000 0.52026  0.02270  0.32787  Biso   1.000  C
  C99      1.0000 0.54796  0.96982  0.42608  Biso   1.000  C
  H106     1.0000 0.50059  0.88131  0.42858  Biso   1.000  H
  H107     1.0000 0.57340  0.56223  0.05459  Biso   1.000  H
  H108     1.0000 0.64882  0.57219  0.06321  Biso   1.000  H
  C100     1.0000 0.59413  0.60019  0.97924  Biso   1.000  C
  N17      1.0000 0.64522  0.77641  0.08785  Biso   1.000  N
  H109     1.0000 0.69478  0.69300  0.07700  Biso   1.000  H
  C101     1.0000 0.63574  0.71878  0.99286  Biso   1.000  C
  H110     1.0000 0.72706  0.46618  0.48380  Biso   1.000  H
  H111     1.0000 0.74585  0.44348  0.42470  Biso   1.000  H
  C102     1.0000 0.82065  0.43509  0.50027  Biso   1.000  C
  N18      1.0000 0.81765  0.64902  0.49139  Biso   1.000  N
  C103     1.0000 0.86108  0.54641  0.54379  Biso   1.000  C
  H112     1.0000 0.76954  0.58538  0.53170  Biso   1.000  H
  C104     1.0000 0.55627  0.02078  0.38827  Biso   1.000  C
  C105     1.0000 0.52916  0.07840  0.29047  Biso   1.000  C
  C106     1.0000 0.58275  0.96841  0.48978  Biso   1.000  C
  H113     1.0000 0.59934  0.55561  0.96174  Biso   1.000  H
  H114     1.0000 0.54930  0.61531  0.96174  Biso   1.000  H
  C107     1.0000 0.63834  0.64902  0.96366  Biso   1.000  C
  C108     1.0000 0.69481  0.79881  0.12490  Biso   1.000  C
  H115     1.0000 0.66753  0.74952  0.98317  Biso   1.000  H
  H116     1.0000 0.59252  0.73890  0.97688  Biso   1.000  H
  H117     1.0000 0.81014  0.38869  0.51036  Biso   1.000  H
  H118     1.0000 0.85275  0.43191  0.47719  Biso   1.000  H
  C109     1.0000 0.84866  0.47361  0.55638  Biso   1.000  C
  C110     1.0000 0.79245  0.70018  0.50849  Biso   1.000  C
  H119     1.0000 0.87784  0.57052  0.58218  Biso   1.000  H
  H120     1.0000 0.89425  0.54823  0.52188  Biso   1.000  H
  H121     1.0000 0.58688  0.05530  0.40327  Biso   1.000  H
  N19      1.0000 0.49647  0.08240  0.23561  Biso   1.000  N
  H122     1.0000 0.55976  0.11258  0.30689  Biso   1.000  H
  H123     1.0000 0.57758  0.92923  0.51170  Biso   1.000  H
  N20      1.0000 0.61887  0.01451  0.51817  Biso   1.000  N
  H124     1.0000 0.62695  0.65438  0.91974  Biso   1.000  H
  H125     1.0000 0.68266  0.63123  0.97688  Biso   1.000  H
  C111     1.0000 0.69670  0.86493  0.15539  Biso   1.000  C
  H126     1.0000 0.73267  0.77212  0.13369  Biso   1.000  H
  H127     1.0000 0.88947  0.45213  0.57848  Biso   1.000  H
  H128     1.0000 0.81875  0.47179  0.58187  Biso   1.000  H
  C112     1.0000 0.80836  0.77111  0.49536  Biso   1.000  C
  H129     1.0000 0.76197  0.69331  0.53058  Biso   1.000  H
  C113     1.0000 0.50900  0.13942  0.20101  Biso   1.000  C
  C114     1.0000 0.64724  0.00602  0.58138  Biso   1.000  C
  H130     1.0000 0.62657  0.05111  0.49969  Biso   1.000  H
  C115     1.0000 0.64329  0.90542  0.14490  Biso   1.000  C
  C116     1.0000 0.75407  0.88591  0.19298  Biso   1.000  C
  C117     1.0000 0.84774  0.78202  0.45746  Biso   1.000  C
  C118     1.0000 0.78304  0.82469  0.51947  Biso   1.000  C
  H131     1.0000 0.54388  0.16798  0.22641  Biso   1.000  H
  C119     1.0000 0.44737  0.18158  0.17958  Biso   1.000  C
  C120     1.0000 0.52979  0.11288  0.14749  Biso   1.000  C
  H132     1.0000 0.63254  0.96229  0.59486  Biso   1.000  H
  C121     1.0000 0.62607  0.06501  0.61437  Biso   1.000  C
  C122     1.0000 0.72043  0.00511  0.59267  Biso   1.000  C
  C123     1.0000 0.64689  0.96992  0.17141  Biso   1.000  C
  H133     1.0000 0.60368  0.88990  0.11959  Biso   1.000  H
  C124     1.0000 0.75969  0.94930  0.22119  Biso   1.000  C
  H134     1.0000 0.79049  0.85709  0.19998  Biso   1.000  H
  C125     1.0000 0.86214  0.84718  0.44327  Biso   1.000  C
  H135     1.0000 0.86485  0.74452  0.44130  Biso   1.000  H
  C126     1.0000 0.79829  0.89172  0.50630  Biso   1.000  C
  H136     1.0000 0.75574  0.81680  0.54460  Biso   1.000  H
  H137     1.0000 0.41160  0.15201  0.15829  Biso   1.000  H
  H138     1.0000 0.43606  0.20119  0.21458  Biso   1.000  H
  C127     1.0000 0.45580  0.23820  0.13820  Biso   1.000  C
  N21      1.0000 0.58978  0.07512  0.16869  Biso   1.000  N
  C128     1.0000 0.53919  0.16859  0.10611  Biso   1.000  C
  H139     1.0000 0.49591  0.08139  0.12441  Biso   1.000  H
  H140     1.0000 0.57887  0.06309  0.60776  Biso   1.000  H
  H141     1.0000 0.63653  0.10818  0.59776  Biso   1.000  H
  C129     1.0000 0.65905  0.06278  0.68218  Biso   1.000  C
  N22      1.0000 0.73924  0.94460  0.56808  Biso   1.000  N
  C130     1.0000 0.75196  0.00359  0.66008  Biso   1.000  C
  H142     1.0000 0.73507  0.04580  0.57437  Biso   1.000  H
  C131     1.0000 0.59000  0.01319  0.15561  Biso   1.000  C
  C132     1.0000 0.70538  0.99019  0.21061  Biso   1.000  C
  C133     1.0000 0.82118  0.97290  0.26038  Biso   1.000  C
  C134     1.0000 0.83668  0.90203  0.46898  Biso   1.000  C
  C135     1.0000 0.90216  0.85831  0.40390  Biso   1.000  C
  C136     1.0000 0.77296  0.94930  0.53089  Biso   1.000  C
  H143     1.0000 0.48819  0.27050  0.16079  Biso   1.000  H
  H144     1.0000 0.41468  0.26281  0.12361  Biso   1.000  H
  C137     1.0000 0.47711  0.21161  0.08441  Biso   1.000  C
  H145     1.0000 0.55028  0.14862  0.07120  Biso   1.000  H
  H146     1.0000 0.57511  0.19801  0.12731  Biso   1.000  H
  H147     1.0000 0.64637  0.10282  0.70177  Biso   1.000  H
  H148     1.0000 0.64546  0.02179  0.69976  Biso   1.000  H
  C138     1.0000 0.73146  0.06218  0.69235  Biso   1.000  C
  H149     1.0000 0.74053  0.96072  0.67669  Biso   1.000  H
  H150     1.0000 0.79912  0.00470  0.66736  Biso   1.000  H
  H151     1.0000 0.55058  0.99343  0.13401  Biso   1.000  H
  H152     1.0000 0.70810  0.03261  0.23029  Biso   1.000  H
  N23      1.0000 0.87358  0.94242  0.26471  Biso   1.000  N
  H153     1.0000 0.82156  0.01269  0.28328  Biso   1.000  H
  H154     1.0000 0.84635  0.94692  0.45996  Biso   1.000  H
  N24      1.0000 0.91859  0.91710  0.39113  Biso   1.000  N
  H155     1.0000 0.91685  0.82019  0.38658  Biso   1.000  H
  H156     1.0000 0.78206  0.99323  0.51866  Biso   1.000  H
  H157     1.0000 0.48520  0.25013  0.06031  Biso   1.000  H
  H158     1.0000 0.44247  0.18350  0.05888  Biso   1.000  H
  H159     1.0000 0.74527  0.10510  0.67789  Biso   1.000  H
  H160     1.0000 0.75265  0.05849  0.73565  Biso   1.000  H
  C139     1.0000 0.93220  0.97260  0.30230  Biso   1.000  C
  C140     1.0000 0.96146  0.92190  0.35189  Biso   1.000  C
  C141     1.0000 0.97847  0.98701  0.26569  Biso   1.000  C
  H161     1.0000 0.92156  0.01562  0.32020  Biso   1.000  H
  H162     1.0000 0.96587  0.87660  0.33417  Biso   1.000  H
  C142     1.0000 0.02647  0.94591  0.39019  Biso   1.000  C
  H163     1.0000 0.98489  0.94530  0.24440  Biso   1.000  H
  H164     1.0000 0.96000  0.02179  0.23538  Biso   1.000  H
  C143     1.0000 0.04395  0.01168  0.30448  Biso   1.000  C
  H165     1.0000 0.04525  0.91103  0.42028  Biso   1.000  H
  H166     1.0000 0.02077  0.98772  0.41157  Biso   1.000  H
  C144     1.0000 0.07218  0.95971  0.35180  Biso   1.000  C
  H167     1.0000 0.07346  0.01931  0.27917  Biso   1.000  H
  H168     1.0000 0.03849  0.05520  0.32368  Biso   1.000  H
  H169     1.0000 0.11369  0.97629  0.37729  Biso   1.000  H
  H170     1.0000 0.08019  0.91730  0.33247  Biso   1.000  H
  C145     1.0000 0.47843  0.48701  0.76565  Biso   1.000  C
  C146     1.0000 0.43212  0.47260  0.80226  Biso   1.000  C
  C147     1.0000 0.54393  0.51173  0.80449  Biso   1.000  C
  H171     1.0000 0.45993  0.52179  0.73539  Biso   1.000  H
  H172     1.0000 0.48485  0.44530  0.74436  Biso   1.000  H
  N25      1.0000 0.37356  0.44242  0.76471  Biso   1.000  N
  C148     1.0000 0.46142  0.42190  0.85185  Biso   1.000  C
  H173     1.0000 0.42152  0.51562  0.82016  Biso   1.000  H
  C149     1.0000 0.57214  0.45971  0.85176  Biso   1.000  C
  H174     1.0000 0.57343  0.51931  0.77918  Biso   1.000  H
  H175     1.0000 0.53842  0.55520  0.82368  Biso   1.000  H
  C150     1.0000 0.32115  0.47290  0.76038  Biso   1.000  C
  N26      1.0000 0.41852  0.41710  0.89113  Biso   1.000  N
  H176     1.0000 0.46584  0.37660  0.83417  Biso   1.000  H
  C151     1.0000 0.52644  0.44591  0.89015  Biso   1.000  C
  H177     1.0000 0.61361  0.47629  0.87725  Biso   1.000  H
  H178     1.0000 0.58011  0.41730  0.83248  Biso   1.000  H
  C152     1.0000 0.25967  0.44930  0.72119  Biso   1.000  C
  H179     1.0000 0.32153  0.51269  0.78328  Biso   1.000  H
  C153     1.0000 0.40212  0.35831  0.90385  Biso   1.000  C
  H180     1.0000 0.54523  0.41098  0.92028  Biso   1.000  H
  H181     1.0000 0.52075  0.48772  0.91158  Biso   1.000  H
  C154     1.0000 0.25405  0.38591  0.69298  Biso   1.000  C
  C155     1.0000 0.20534  0.49019  0.71057  Biso   1.000  C
  C156     1.0000 0.36212  0.34718  0.94327  Biso   1.000  C
  H182     1.0000 0.41682  0.32019  0.88658  Biso   1.000  H
  C157     1.0000 0.19663  0.36493  0.65539  Biso   1.000  C
  H183     1.0000 0.29046  0.35709  0.69999  Biso   1.000  H
  C158     1.0000 0.14686  0.46992  0.67137  Biso   1.000  C
  H184     1.0000 0.20802  0.53261  0.73025  Biso   1.000  H
  C159     1.0000 0.33661  0.40198  0.96898  Biso   1.000  C
  C160     1.0000 0.34772  0.28202  0.95747  Biso   1.000  C
  C161     1.0000 0.19473  0.29881  0.62486  Biso   1.000  C
  C162     1.0000 0.14325  0.40542  0.64486  Biso   1.000  C
  C163     1.0000 0.08996  0.51319  0.65557  Biso   1.000  C
  H185     1.0000 0.34632  0.44692  0.95997  Biso   1.000  H
  C164     1.0000 0.29831  0.39172  0.00630  Biso   1.000  C
  C165     1.0000 0.30834  0.27111  0.99536  Biso   1.000  C
  H186     1.0000 0.36481  0.24452  0.94126  Biso   1.000  H
  N27      1.0000 0.14520  0.27641  0.58785  Biso   1.000  N
  H187     1.0000 0.23264  0.27212  0.63370  Biso   1.000  H
  H188     1.0000 0.10365  0.38990  0.61959  Biso   1.000  H
  N28      1.0000 0.08976  0.57512  0.66870  Biso   1.000  N
  H189     1.0000 0.05055  0.49343  0.63397  Biso   1.000  H
  C166     1.0000 0.28312  0.32469  0.01951  Biso   1.000  C
  C167     1.0000 0.27298  0.44930  0.03090  Biso   1.000  C
  C168     1.0000 0.29247  0.20018  0.00849  Biso   1.000  C
  C169     1.0000 0.15015  0.21100  0.56089  Biso   1.000  C
  C170     1.0000 0.02976  0.61293  0.64749  Biso   1.000  C
  H190     1.0000 0.25581  0.31680  0.04460  Biso   1.000  H
  N29      1.0000 0.23927  0.44460  0.06813  Biso   1.000  N
  H191     1.0000 0.28210  0.49323  0.01871  Biso   1.000  H
  N30      1.0000 0.31761  0.14902  0.99135  Biso   1.000  N
  H192     1.0000 0.26199  0.19331  0.03059  Biso   1.000  H
  C171     1.0000 0.13576  0.21878  0.49286  Biso   1.000  C
  C172     1.0000 0.10297  0.16191  0.57549  Biso   1.000  C
  H193     1.0000 0.19474  0.19300  0.57696  Biso   1.000  H
  C173     1.0000 0.00896  0.63942  0.70097  Biso   1.000  C
  C174     1.0000 0.03915  0.66859  0.60607  Biso   1.000  C
  H194     1.0000 0.99587  0.58139  0.62437  Biso   1.000  H
  C175     1.0000 0.22051  0.50511  0.09272  Biso   1.000  C
  C176     1.0000 0.30161  0.08199  0.00782  Biso   1.000  C
  C177     1.0000 0.13836  0.14902  0.46367  Biso   1.000  C
  H195     1.0000 0.16755  0.24952  0.48317  Biso   1.000  H
  H196     1.0000 0.09258  0.23890  0.47688  Biso   1.000  H
  C178     1.0000 0.10597  0.09271  0.54607  Biso   1.000  C
  N31      1.0000 0.11766  0.15292  0.64026  Biso   1.000  N
  H197     1.0000 0.05857  0.18062  0.56040  Biso   1.000  H
  H198     1.0000 0.04384  0.66803  0.72637  Biso   1.000  H
  N32      1.0000 0.99643  0.58240  0.73556  Biso   1.000  N
  C179     1.0000 0.94734  0.68163  0.67959  Biso   1.000  C
  H199     1.0000 0.05025  0.64862  0.57116  Biso   1.000  H
  H200     1.0000 0.07507  0.69801  0.62727  Biso   1.000  H
  C180     1.0000 0.97707  0.71161  0.58437  Biso   1.000  C
  C181     1.0000 0.14726  0.50602  0.08138  Biso   1.000  C
  C182     1.0000 0.25198  0.50359  0.16008  Biso   1.000  C
  H201     1.0000 0.23510  0.54580  0.07442  Biso   1.000  H
  C183     1.0000 0.27184  0.04241  0.94898  Biso   1.000  C
  C184     1.0000 0.36110  0.04641  0.04380  Biso   1.000  C
  H202     1.0000 0.26961  0.08538  0.03170  Biso   1.000  H
  C185     1.0000 0.09416  0.10019  0.47929  Biso   1.000  C
  H203     1.0000 0.12698  0.15438  0.41979  Biso   1.000  H
  H204     1.0000 0.18268  0.13118  0.47688  Biso   1.000  H
  H205     1.0000 0.07338  0.06218  0.55460  Biso   1.000  H
  H206     1.0000 0.14873  0.07219  0.56317  Biso   1.000  H
  C186     1.0000 0.07476  0.17041  0.66557  Biso   1.000  C
  C187     1.0000 0.02913  0.57840  0.79047  Biso   1.000  C
  H207     1.0000 0.91153  0.65201  0.65829  Biso   1.000  H
  H208     1.0000 0.93604  0.70119  0.71458  Biso   1.000  H
  C188     1.0000 0.95576  0.73820  0.63816  Biso   1.000  C
  H209     1.0000 0.98517  0.75013  0.56027  Biso   1.000  H
  H210     1.0000 0.94244  0.68350  0.55888  Biso   1.000  H
  N33      1.0000 0.11891  0.51451  0.01822  Biso   1.000  N
  H211     1.0000 0.13258  0.46229  0.09491  Biso   1.000  H
  C189     1.0000 0.12610  0.56501  0.11442  Biso   1.000  C
  C190     1.0000 0.23149  0.56223  0.19240  Biso   1.000  C
  H212     1.0000 0.24060  0.46072  0.17669  Biso   1.000  H
  H213     1.0000 0.29921  0.50470  0.16740  Biso   1.000  H
  N34      1.0000 0.21041  0.07492  0.91778  Biso   1.000  N
  H214     1.0000 0.30181  0.04459  0.92305  Biso   1.000  H
  C191     1.0000 0.26103  0.96861  0.96264  Biso   1.000  C
  C192     1.0000 0.34868  0.97361  0.05639  Biso   1.000  C
  H215     1.0000 0.37791  0.07052  0.08219  Biso   1.000  H
  H216     1.0000 0.39429  0.04823  0.02193  Biso   1.000  H
  H217     1.0000 0.09937  0.05561  0.46179  Biso   1.000  H
  H218     1.0000 0.04938  0.11531  0.46179  Biso   1.000  H
  C193     1.0000 0.08322  0.16202  0.72976  Biso   1.000  C
  H219     1.0000 0.03596  0.18962  0.64196  Biso   1.000  H
  C194     1.0000 0.02024  0.52270  0.82788  Biso   1.000  C
  H220     1.0000 0.05972  0.61263  0.80685  Biso   1.000  H
  H221     1.0000 0.98817  0.77050  0.66079  Biso   1.000  H
  H222     1.0000 0.91464  0.76281  0.62356  Biso   1.000  H
  C195     1.0000 0.08273  0.46841  0.98978  Biso   1.000  C
  H223     1.0000 0.12653  0.55111  0.99965  Biso   1.000  H
  H224     1.0000 0.07890  0.56309  0.10781  Biso   1.000  H
  H225     1.0000 0.13661  0.60823  0.09781  Biso   1.000  H
  C196     1.0000 0.15908  0.56278  0.18218  Biso   1.000  C
  H226     1.0000 0.24529  0.60510  0.17789  Biso   1.000  H
  H227     1.0000 0.25268  0.55849  0.23570  Biso   1.000  H
  C197     1.0000 0.20541  0.09670  0.86645  Biso   1.000  C
  H228     1.0000 0.22702  0.96623  0.98376  Biso   1.000  H
  H229     1.0000 0.24582  0.94353  0.92466  Biso   1.000  H
  C198     1.0000 0.32068  0.93509  0.00032  Biso   1.000  C
  H230     1.0000 0.38949  0.95213  0.07848  Biso   1.000  H
  H231     1.0000 0.31878  0.97179  0.08192  Biso   1.000  H
  C199     1.0000 0.03066  0.17521  0.75315  Biso   1.000  C
  C200     1.0000 0.14035  0.13891  0.76829  Biso   1.000  C
  C201     1.0000 0.05624  0.52083  0.88828  Biso   1.000  C
  C202     1.0000 0.97723  0.46952  0.80757  Biso   1.000  C
  C203     1.0000 0.04793  0.46982  0.92608  Biso   1.000  C
  H232     1.0000 0.07760  0.42923  0.01170  Biso   1.000  H
  H233     1.0000 0.14640  0.60282  0.20182  Biso   1.000  H
  H234     1.0000 0.14549  0.52179  0.19981  Biso   1.000  H
  C204     1.0000 0.14552  0.12709  0.82797  Biso   1.000  C
  H235     1.0000 0.24174  0.09392  0.85109  Biso   1.000  H
  H236     1.0000 0.35271  0.93191  0.97715  Biso   1.000  H
  H237     1.0000 0.31017  0.88869  0.01041  Biso   1.000  H
  C205     1.0000 0.03535  0.16232  0.81328  Biso   1.000  C
  H238     1.0000 0.99196  0.19290  0.72798  Biso   1.000  H
  H239     1.0000 0.17632  0.13098  0.75329  Biso   1.000  H
  H240     1.0000 0.08685  0.55530  0.90327  Biso   1.000  H
  C206     1.0000 0.96755  0.41912  0.84466  Biso   1.000  C
  H241     1.0000 0.95406  0.46820  0.76668  Biso   1.000  H
  C207     1.0000 0.00462  0.41791  0.90345  Biso   1.000  C
  C208     1.0000 0.09304  0.13922  0.85006  Biso   1.000  C
  C209     1.0000 0.98032  0.17501  0.83837  Biso   1.000  C
  C210     1.0000 0.91802  0.36690  0.82176  Biso   1.000  C
  H242     1.0000 0.00052  0.38131  0.92858  Biso   1.000  H
  H243     1.0000 0.09664  0.13138  0.89118  Biso   1.000  H
  N35      1.0000 0.92765  0.19720  0.80757  Biso   1.000  N
  H244     1.0000 0.98535  0.16591  0.87948  Biso   1.000  H
  N36      1.0000 0.90122  0.32509  0.85520  Biso   1.000  N
  H245     1.0000 0.89822  0.36493  0.78007  Biso   1.000  H
  C211     1.0000 0.87715  0.20539  0.83837  Biso   1.000  C
  C212     1.0000 0.85054  0.27702  0.82788  Biso   1.000  C
  C213     1.0000 0.82393  0.15373  0.81377  Biso   1.000  C
  H246     1.0000 0.89571  0.19770  0.88216  Biso   1.000  H
  H247     1.0000 0.83535  0.28582  0.78409  Biso   1.000  H
  C214     1.0000 0.79422  0.28592  0.85569  Biso   1.000  C
  C215     1.0000 0.76903  0.16262  0.84216  Biso   1.000  C
  H248     1.0000 0.80766  0.15929  0.77007  Biso   1.000  H
  H249     1.0000 0.84153  0.10752  0.82185  Biso   1.000  H
  H250     1.0000 0.81022  0.28162  0.89957  Biso   1.000  H
  H251     1.0000 0.77601  0.33182  0.84645  Biso   1.000  H
  C216     1.0000 0.74254  0.23430  0.83257  Biso   1.000  C
  H252     1.0000 0.78431  0.15322  0.88546  Biso   1.000  H
  H253     1.0000 0.73442  0.13002  0.82435  Biso   1.000  H
  H254     1.0000 0.72304  0.24189  0.78935  Biso   1.000  H
  H255     1.0000 0.70842  0.23981  0.85328  Biso   1.000  H
  C217     1.0000 0.52150  0.48701  0.23431  Biso   1.000  C
  C218     1.0000 0.45596  0.51173  0.19548  Biso   1.000  C
  C219     1.0000 0.56778  0.47260  0.19771  Biso   1.000  C
  H256     1.0000 0.53997  0.52179  0.26458  Biso   1.000  H
  H257     1.0000 0.51509  0.44530  0.25560  Biso   1.000  H
  C220     1.0000 0.42780  0.45971  0.14820  Biso   1.000  C
  H258     1.0000 0.42646  0.51931  0.22079  Biso   1.000  H
  H259     1.0000 0.46147  0.55520  0.17628  Biso   1.000  H
  C221     1.0000 0.53852  0.42190  0.14811  Biso   1.000  C
  N37      1.0000 0.62638  0.44242  0.23525  Biso   1.000  N
  H260     1.0000 0.57837  0.51562  0.17981  Biso   1.000  H
  C222     1.0000 0.47350  0.44591  0.10981  Biso   1.000  C
  H261     1.0000 0.38628  0.47629  0.12271  Biso   1.000  H
  H262     1.0000 0.41978  0.41730  0.16749  Biso   1.000  H
  N38      1.0000 0.58138  0.41710  0.10883  Biso   1.000  N
  H263     1.0000 0.53410  0.37660  0.16579  Biso   1.000  H
  C223     1.0000 0.67878  0.47290  0.23958  Biso   1.000  C
  H264     1.0000 0.45471  0.41098  0.07968  Biso   1.000  H
  H265     1.0000 0.47919  0.48772  0.08839  Biso   1.000  H
  C224     1.0000 0.59782  0.35831  0.09611  Biso   1.000  C
  H266     1.0000 0.67836  0.51269  0.21668  Biso   1.000  H
  C225     1.0000 0.74027  0.44930  0.27877  Biso   1.000  C
  C226     1.0000 0.63777  0.34718  0.05669  Biso   1.000  C
  H267     1.0000 0.58307  0.32019  0.11338  Biso   1.000  H
  C227     1.0000 0.79460  0.49019  0.28940  Biso   1.000  C
  C228     1.0000 0.74589  0.38591  0.30698  Biso   1.000  C
  C229     1.0000 0.66328  0.40198  0.03098  Biso   1.000  C
  C230     1.0000 0.65222  0.28202  0.04250  Biso   1.000  C
  H268     1.0000 0.79187  0.53261  0.26971  Biso   1.000  H
  C231     1.0000 0.85308  0.46992  0.32859  Biso   1.000  C
  C232     1.0000 0.80326  0.36493  0.34457  Biso   1.000  C
  H269     1.0000 0.70948  0.35709  0.29998  Biso   1.000  H
  H270     1.0000 0.65362  0.44692  0.04000  Biso   1.000  H
  C233     1.0000 0.70163  0.39172  0.99366  Biso   1.000  C
  H271     1.0000 0.63508  0.24452  0.05870  Biso   1.000  H
  C234     1.0000 0.69160  0.27111  0.00460  Biso   1.000  C
  C235     1.0000 0.85668  0.40542  0.35510  Biso   1.000  C
  C236     1.0000 0.90998  0.51319  0.34439  Biso   1.000  C
  C237     1.0000 0.80516  0.29881  0.37510  Biso   1.000  C
  C238     1.0000 0.71682  0.32469  0.98045  Biso   1.000  C
  C239     1.0000 0.72691  0.44930  0.96907  Biso   1.000  C
  C240     1.0000 0.70742  0.20018  0.99147  Biso   1.000  C
  H272     1.0000 0.89628  0.38990  0.38037  Biso   1.000  H
  N39      1.0000 0.91018  0.57512  0.33127  Biso   1.000  N
  H273     1.0000 0.94939  0.49343  0.36600  Biso   1.000  H
  N40      1.0000 0.85474  0.27641  0.41211  Biso   1.000  N
  H274     1.0000 0.76725  0.27212  0.36626  Biso   1.000  H
  H275     1.0000 0.74413  0.31680  0.95536  Biso   1.000  H
  N41      1.0000 0.76062  0.44460  0.93184  Biso   1.000  N
  H276     1.0000 0.71784  0.49323  0.98125  Biso   1.000  H
  N42      1.0000 0.68233  0.14902  0.00862  Biso   1.000  N
  H277     1.0000 0.73795  0.19331  0.96938  Biso   1.000  H
  C241     1.0000 0.97017  0.61293  0.35247  Biso   1.000  C
  C242     1.0000 0.84974  0.21100  0.43907  Biso   1.000  C
  C243     1.0000 0.77943  0.50511  0.90724  Biso   1.000  C
  C244     1.0000 0.69832  0.08199  0.99214  Biso   1.000  C
  C245     1.0000 0.99098  0.63942  0.29899  Biso   1.000  C
  C246     1.0000 0.96079  0.66859  0.39390  Biso   1.000  C
  H278     1.0000 0.00407  0.58139  0.37559  Biso   1.000  H
  C247     1.0000 0.89696  0.16191  0.42447  Biso   1.000  C
  C248     1.0000 0.86417  0.21878  0.50710  Biso   1.000  C
  H279     1.0000 0.80519  0.19300  0.42300  Biso   1.000  H
  C249     1.0000 0.85263  0.50602  0.91858  Biso   1.000  C
  C250     1.0000 0.74796  0.50359  0.83988  Biso   1.000  C
  H280     1.0000 0.76484  0.54580  0.92554  Biso   1.000  H
  C251     1.0000 0.72810  0.04241  0.05098  Biso   1.000  C
  C252     1.0000 0.63884  0.04641  0.95616  Biso   1.000  C
  H281     1.0000 0.73032  0.08538  0.96826  Biso   1.000  H
  H282     1.0000 0.95610  0.66803  0.27359  Biso   1.000  H
  N43      1.0000 0.00346  0.58240  0.26440  Biso   1.000  N
  C253     1.0000 0.05255  0.68163  0.32038  Biso   1.000  C
  H283     1.0000 0.94969  0.64862  0.42880  Biso   1.000  H
  H284     1.0000 0.92487  0.69801  0.37269  Biso   1.000  H
  C254     1.0000 0.02287  0.71161  0.41559  Biso   1.000  C
  N44      1.0000 0.88228  0.15292  0.35970  Biso   1.000  N
  H285     1.0000 0.94136  0.18062  0.43956  Biso   1.000  H
  C255     1.0000 0.89397  0.09271  0.45389  Biso   1.000  C
  C256     1.0000 0.86158  0.14902  0.53630  Biso   1.000  C
  H286     1.0000 0.83234  0.24952  0.51679  Biso   1.000  H
  H287     1.0000 0.90735  0.23890  0.52308  Biso   1.000  H
  N45      1.0000 0.88103  0.51451  0.98174  Biso   1.000  N
  H288     1.0000 0.86731  0.46229  0.90505  Biso   1.000  H
  C257     1.0000 0.87384  0.56501  0.88555  Biso   1.000  C
  C258     1.0000 0.76845  0.56223  0.80756  Biso   1.000  C
  H289     1.0000 0.75934  0.46072  0.82327  Biso   1.000  H
  H290     1.0000 0.70073  0.50470  0.83256  Biso   1.000  H
  N46      1.0000 0.78948  0.07492  0.08218  Biso   1.000  N
  H291     1.0000 0.69808  0.04459  0.07691  Biso   1.000  H
  C259     1.0000 0.73891  0.96861  0.03732  Biso   1.000  C
  C260     1.0000 0.65125  0.97361  0.94358  Biso   1.000  C
  H292     1.0000 0.62203  0.07052  0.91777  Biso   1.000  H
  H293     1.0000 0.60560  0.04823  0.97804  Biso   1.000  H
  C261     1.0000 0.97076  0.57840  0.20949  Biso   1.000  C
  H294     1.0000 0.08836  0.65201  0.34167  Biso   1.000  H
  H295     1.0000 0.06390  0.70119  0.28538  Biso   1.000  H
  C262     1.0000 0.04418  0.73820  0.36180  Biso   1.000  C
  H296     1.0000 0.01477  0.75013  0.43970  Biso   1.000  H
  H297     1.0000 0.05745  0.68350  0.44108  Biso   1.000  H
  C263     1.0000 0.92518  0.17041  0.33439  Biso   1.000  C
  H298     1.0000 0.92656  0.06218  0.44537  Biso   1.000  H
  C264     1.0000 0.90578  0.10019  0.52067  Biso   1.000  C
  H299     1.0000 0.85116  0.07219  0.43679  Biso   1.000  H
  H300     1.0000 0.87296  0.15438  0.58018  Biso   1.000  H
  H301     1.0000 0.81726  0.13118  0.52308  Biso   1.000  H
  C265     1.0000 0.91721  0.46841  0.01018  Biso   1.000  C
  H302     1.0000 0.87340  0.55111  0.00031  Biso   1.000  H
  H303     1.0000 0.92104  0.56309  0.89215  Biso   1.000  H
  H304     1.0000 0.86333  0.60823  0.90215  Biso   1.000  H
  C266     1.0000 0.84086  0.56278  0.81778  Biso   1.000  C
  H305     1.0000 0.75465  0.60510  0.82207  Biso   1.000  H
  H306     1.0000 0.74725  0.55849  0.76426  Biso   1.000  H
  C267     1.0000 0.79448  0.09670  0.13352  Biso   1.000  C
  C268     1.0000 0.67921  0.93509  0.99964  Biso   1.000  C
  H307     1.0000 0.77292  0.96623  0.01620  Biso   1.000  H
  H308     1.0000 0.75407  0.94353  0.07531  Biso   1.000  H
  H309     1.0000 0.61045  0.95213  0.92148  Biso   1.000  H
  H310     1.0000 0.68111  0.97179  0.91804  Biso   1.000  H
  C269     1.0000 0.97970  0.52270  0.17208  Biso   1.000  C
  H311     1.0000 0.94017  0.61263  0.19311  Biso   1.000  H
  H312     1.0000 0.01177  0.77050  0.33917  Biso   1.000  H
  H313     1.0000 0.08530  0.76281  0.37640  Biso   1.000  H
  C270     1.0000 0.91667  0.16202  0.27020  Biso   1.000  C
  H314     1.0000 0.96398  0.18962  0.35801  Biso   1.000  H
  H315     1.0000 0.90056  0.05561  0.53817  Biso   1.000  H
  H316     1.0000 0.95055  0.11531  0.53817  Biso   1.000  H
  C271     1.0000 0.95201  0.46982  0.07388  Biso   1.000  C
  H317     1.0000 0.92234  0.42923  0.98826  Biso   1.000  H
  H318     1.0000 0.85354  0.60282  0.79814  Biso   1.000  H
  H319     1.0000 0.85444  0.52179  0.80015  Biso   1.000  H
  C272     1.0000 0.85437  0.12709  0.17199  Biso   1.000  C
  H320     1.0000 0.75821  0.09392  0.14892  Biso   1.000  H
  H321     1.0000 0.68972  0.88869  0.98955  Biso   1.000  H
  H322     1.0000 0.64718  0.93191  0.02281  Biso   1.000  H
  C273     1.0000 0.94369  0.52083  0.11169  Biso   1.000  C
  C274     1.0000 0.02271  0.46952  0.19239  Biso   1.000  C
  C275     1.0000 0.85958  0.13891  0.23168  Biso   1.000  C
  C276     1.0000 0.96928  0.17521  0.24681  Biso   1.000  C
  C277     1.0000 0.99527  0.41791  0.09651  Biso   1.000  C
  C278     1.0000 0.90690  0.13922  0.14990  Biso   1.000  C
  H323     1.0000 0.91309  0.55530  0.09669  Biso   1.000  H
  C279     1.0000 0.03238  0.41912  0.15530  Biso   1.000  C
  H324     1.0000 0.04588  0.46820  0.23328  Biso   1.000  H
  H325     1.0000 0.82357  0.13098  0.24668  Biso   1.000  H
  C280     1.0000 0.96459  0.16232  0.18668  Biso   1.000  C
  H326     1.0000 0.00798  0.19290  0.27199  Biso   1.000  H
  H327     1.0000 0.99937  0.38131  0.07138  Biso   1.000  H
  H328     1.0000 0.90330  0.13138  0.10879  Biso   1.000  H
  C281     1.0000 0.08187  0.36690  0.17820  Biso   1.000  C
  C282     1.0000 0.01957  0.17501  0.16159  Biso   1.000  C
  N47      1.0000 0.09867  0.32509  0.14476  Biso   1.000  N
  H329     1.0000 0.10167  0.36493  0.21989  Biso   1.000  H
  N48      1.0000 0.07228  0.19720  0.19239  Biso   1.000  N
  H330     1.0000 0.01458  0.16591  0.12048  Biso   1.000  H
  C283     1.0000 0.14940  0.27702  0.17208  Biso   1.000  C
  C284     1.0000 0.12278  0.20539  0.16159  Biso   1.000  C
  H331     1.0000 0.16459  0.28582  0.21588  Biso   1.000  H
  C285     1.0000 0.20567  0.28592  0.14427  Biso   1.000  C
  C286     1.0000 0.17600  0.15373  0.18619  Biso   1.000  C
  H332     1.0000 0.10418  0.19770  0.11780  Biso   1.000  H
  H333     1.0000 0.18971  0.28162  0.10039  Biso   1.000  H
  H334     1.0000 0.22388  0.33182  0.15351  Biso   1.000  H
  C287     1.0000 0.25740  0.23430  0.16740  Biso   1.000  C
  C288     1.0000 0.23090  0.16262  0.15780  Biso   1.000  C
  H335     1.0000 0.19227  0.15929  0.22989  Biso   1.000  H
  H336     1.0000 0.15841  0.10752  0.17811  Biso   1.000  H
  H337     1.0000 0.27690  0.24189  0.21061  Biso   1.000  H
  H338     1.0000 0.29147  0.23981  0.14668  Biso   1.000  H
  H339     1.0000 0.21558  0.15322  0.11450  Biso   1.000  H
  H340     1.0000 0.26547  0.13002  0.17561  Biso   1.000  H
  Ne1      1.0000 0.84495  0.34494  0.17099  Biso   1.000  Ne
  He1      1.0000 0.95439  0.34921  0.26702  Biso   1.000  He
  He2      1.0000 0.74414  0.26871  0.19237  Biso   1.000  He
  He3      1.0000 0.79191  0.48374  0.13597  Biso   1.000  He
  He4      1.0000 0.87351  0.29381  0.07161  Biso   1.000  He
  Ar1      1.0000 0.83869  0.34608  0.16425  Biso   1.000  Ar
  Ne2      1.0000 0.15498  0.34494  0.82898  Biso   1.000  Ne
  He5      1.0000 0.12651  0.29396  0.92810  Biso   1.000  He
  He6      1.0000 0.20715  0.48146  0.86352  Biso   1.000  He
  He7      1.0000 0.25966  0.26544  0.80634  Biso   1.000  He
  He8      1.0000 0.04653  0.34921  0.73383  Biso   1.000  He
  Ar2      1.0000 0.16110  0.34607  0.83560  Biso   1.000  Ar
  Ne3      1.0000 0.34493  0.84494  0.67098  Biso   1.000  Ne
  He9      1.0000 0.45434  0.84920  0.76699  Biso   1.000  He
  He10     1.0000 0.24541  0.76981  0.69194  Biso   1.000  He
  He11     1.0000 0.29824  0.96689  0.63936  Biso   1.000  He
  He12     1.0000 0.37353  0.79380  0.57161  Biso   1.000  He
  Ar3      1.0000 0.34489  0.84570  0.67043  Biso   1.000  Ar
  Ne4      1.0000 0.65500  0.84494  0.32899  Biso   1.000  Ne
  He13     1.0000 0.62635  0.79379  0.42838  Biso   1.000  He
  He14     1.0000 0.70717  0.98141  0.36354  Biso   1.000  He
  He15     1.0000 0.75969  0.76544  0.30634  Biso   1.000  He
  He16     1.0000 0.54657  0.84921  0.23387  Biso   1.000  He
  Ar4      1.0000 0.66125  0.84610  0.33573  Biso   1.000  Ar
