data_image0
_cell_length_a       13.447
_cell_length_b       20.407
_cell_length_c       12.409
_cell_angle_alpha    90
_cell_angle_beta     103.68
_cell_angle_gamma    90

_symmetry_space_group_name_H-M    "P 1"
_symmetry_int_tables_number       1

loop_
  _symmetry_equiv_pos_as_xyz
  'x, y, z'

loop_
  _atom_site_label
  _atom_site_occupancy
  _atom_site_fract_x
  _atom_site_fract_y
  _atom_site_fract_z
  _atom_site_thermal_displace_type
  _atom_site_B_iso_or_equiv
  _atom_site_type_symbol
  O1       1.0000 0.27039  0.01186  0.84366  Biso   1.000  O
  C1       1.0000 0.26500  0.06708  0.88132  Biso   1.000  C
  C2       1.0000 0.26492  0.06708  0.88132  Biso   1.000  C
  C3       1.0000 0.26500  0.06713  0.88132  Biso   1.000  C
  C4       1.0000 0.26492  0.06713  0.88132  Biso   1.000  C
  N1       1.0000 0.21282  0.11844  0.82931  Biso   1.000  N
  N2       1.0000 0.21289  0.11844  0.82931  Biso   1.000  N
  N3       1.0000 0.31718  0.08688  0.98549  Biso   1.000  N
  O2       1.0000 0.27033  0.01181  0.84374  Biso   1.000  O
  O3       1.0000 0.27031  0.01181  0.84366  Biso   1.000  O
  N4       1.0000 0.31718  0.08693  0.98549  Biso   1.000  N
  O4       1.0000 0.27033  0.01186  0.84374  Biso   1.000  O
  O5       1.0000 0.27031  0.01186  0.84366  Biso   1.000  O
  N5       1.0000 0.31711  0.08688  0.98549  Biso   1.000  N
  O6       1.0000 0.27039  0.01181  0.84366  Biso   1.000  O
  N6       1.0000 0.31711  0.08693  0.98549  Biso   1.000  N
  C5       1.0000 0.15862  0.11550  0.71386  Biso   1.000  C
  C6       1.0000 0.15864  0.11550  0.71394  Biso   1.000  C
  C7       1.0000 0.22695  0.17759  0.89301  Biso   1.000  C
  C8       1.0000 0.22695  0.17764  0.89301  Biso   1.000  C
  C9       1.0000 0.30100  0.15549  0.00299  Biso   1.000  C
  C10      1.0000 0.30100  0.15553  0.00299  Biso   1.000  C
  C11      1.0000 0.39122  0.04670  0.05964  Biso   1.000  C
  C12      1.0000 0.39120  0.04670  0.05955  Biso   1.000  C
  H1       1.0000 0.17113  0.15558  0.67712  Biso   1.000  H
  H2       1.0000 0.18495  0.07919  0.67845  Biso   1.000  H
  N7       1.0000 0.04864  0.10722  0.70092  Biso   1.000  N
  H3       1.0000 0.18493  0.07919  0.67836  Biso   1.000  H
  H4       1.0000 0.17113  0.15563  0.67712  Biso   1.000  H
  H5       1.0000 0.18488  0.07919  0.67845  Biso   1.000  H
  H6       1.0000 0.17120  0.15558  0.67712  Biso   1.000  H
  H7       1.0000 0.17120  0.15563  0.67712  Biso   1.000  H
  H8       1.0000 0.25514  0.21321  0.85627  Biso   1.000  H
  N8       1.0000 0.13560  0.19792  0.93174  Biso   1.000  N
  N9       1.0000 0.13551  0.19792  0.93166  Biso   1.000  N
  H9       1.0000 0.25507  0.21321  0.85627  Biso   1.000  H
  N10      1.0000 0.13552  0.19792  0.93174  Biso   1.000  N
  N11      1.0000 0.13558  0.19792  0.93166  Biso   1.000  N
  H10      1.0000 0.36519  0.18028  0.01841  Biso   1.000  H
  N12      1.0000 0.24267  0.16730  0.08568  Biso   1.000  N
  H11      1.0000 0.36519  0.18033  0.01841  Biso   1.000  H
  N13      1.0000 0.24274  0.16730  0.08568  Biso   1.000  N
  H12      1.0000 0.41376  0.01230  0.01709  Biso   1.000  H
  H13      1.0000 0.45028  0.07341  0.09240  Biso   1.000  H
  N14      1.0000 0.35250  0.01740  0.14697  Biso   1.000  N
  H14      1.0000 0.41384  0.01230  0.01709  Biso   1.000  H
  H15      1.0000 0.45035  0.07341  0.09240  Biso   1.000  H
  C13      1.0000 0.00165  0.04988  0.66451  Biso   1.000  C
  C14      1.0000 0.00165  0.04993  0.66451  Biso   1.000  C
  C15      1.0000 0.00157  0.04988  0.66451  Biso   1.000  C
  C16      1.0000 0.00157  0.04993  0.66451  Biso   1.000  C
  C17      1.0000 0.98031  0.16240  0.69114  Biso   1.000  C
  C18      1.0000 0.98030  0.16240  0.69105  Biso   1.000  C
  C19      1.0000 0.98039  0.16240  0.69114  Biso   1.000  C
  C20      1.0000 0.98037  0.16240  0.69105  Biso   1.000  C
  C21      1.0000 0.05068  0.23350  0.86091  Biso   1.000  C
  C22      1.0000 0.05061  0.23350  0.86091  Biso   1.000  C
  C23      1.0000 0.15000  0.19719  0.04578  Biso   1.000  C
  C24      1.0000 0.28383  0.16298  0.20577  Biso   1.000  C
  C25      1.0000 0.28375  0.16298  0.20577  Biso   1.000  C
  C26      1.0000 0.28383  0.16303  0.20577  Biso   1.000  C
  C27      1.0000 0.28375  0.16303  0.20577  Biso   1.000  C
  C28      1.0000 0.32380  0.95359  0.14191  Biso   1.000  C
  C29      1.0000 0.35552  0.04748  0.25487  Biso   1.000  C
  C30      1.0000 0.35545  0.04748  0.25487  Biso   1.000  C
  C31      1.0000 0.35552  0.04753  0.25487  Biso   1.000  C
  C32      1.0000 0.35545  0.04753  0.25487  Biso   1.000  C
  N15      1.0000 0.89776  0.06160  0.63523  Biso   1.000  N
  N16      1.0000 0.89775  0.06160  0.63515  Biso   1.000  N
  O7       1.0000 0.04204  0.99784  0.65912  Biso   1.000  O
  O8       1.0000 0.04197  0.99784  0.65912  Biso   1.000  O
  C33      1.0000 0.87323  0.12991  0.64718  Biso   1.000  C
  H16      1.0000 0.99468  0.19508  0.63905  Biso   1.000  H
  N17      1.0000 0.97443  0.19189  0.79572  Biso   1.000  N
  H17      1.0000 0.99458  0.19508  0.63897  Biso   1.000  H
  H18      1.0000 0.99468  0.19513  0.63905  Biso   1.000  H
  H19      1.0000 0.99458  0.19513  0.63897  Biso   1.000  H
  N18      1.0000 0.97451  0.19189  0.79572  Biso   1.000  N
  H20      1.0000 0.99466  0.19508  0.63897  Biso   1.000  H
  H21      1.0000 0.99466  0.19513  0.63897  Biso   1.000  H
  H22      1.0000 0.07722  0.26192  0.81181  Biso   1.000  H
  H23      1.0000 0.01897  0.26099  0.90711  Biso   1.000  H
  H24      1.0000 0.01890  0.26099  0.90711  Biso   1.000  H
  H25      1.0000 0.07730  0.26192  0.81181  Biso   1.000  H
  O9       1.0000 0.09110  0.21772  0.09688  Biso   1.000  O
  H26      1.0000 0.35429  0.17768  0.22369  Biso   1.000  H
  H27      1.0000 0.24507  0.19199  0.24252  Biso   1.000  H
  N19      1.0000 0.27947  0.09801  0.24749  Biso   1.000  N
  H28      1.0000 0.24505  0.19199  0.24243  Biso   1.000  H
  H29      1.0000 0.35429  0.17773  0.22369  Biso   1.000  H
  H30      1.0000 0.24514  0.19199  0.24252  Biso   1.000  H
  N20      1.0000 0.27954  0.09801  0.24749  Biso   1.000  N
  H31      1.0000 0.24512  0.19199  0.24243  Biso   1.000  H
  N21      1.0000 0.30204  0.93772  0.24152  Biso   1.000  N
  O10      1.0000 0.31813  0.91679  0.06411  Biso   1.000  O
  N22      1.0000 0.30195  0.93772  0.24144  Biso   1.000  N
  O11      1.0000 0.31805  0.91679  0.06411  Biso   1.000  O
  N23      1.0000 0.30204  0.93777  0.24152  Biso   1.000  N
  N24      1.0000 0.30195  0.93777  0.24144  Biso   1.000  N
  N25      1.0000 0.30202  0.93772  0.24144  Biso   1.000  N
  N26      1.0000 0.30202  0.93777  0.24144  Biso   1.000  N
  C34      1.0000 0.32280  0.99211  0.31791  Biso   1.000  C
  H32      1.0000 0.42419  0.06331  0.29079  Biso   1.000  H
  H33      1.0000 0.42427  0.06331  0.29079  Biso   1.000  H
  C35      1.0000 0.82396  0.01318  0.58058  Biso   1.000  C
  C36      1.0000 0.82389  0.01318  0.58058  Biso   1.000  C
  C37      1.0000 0.82396  0.01323  0.58058  Biso   1.000  C
  C38      1.0000 0.82389  0.01323  0.58058  Biso   1.000  C
  H34      1.0000 0.83517  0.14931  0.57742  Biso   1.000  H
  N27      1.0000 0.82442  0.14201  0.73874  Biso   1.000  N
  H35      1.0000 0.83510  0.14931  0.57742  Biso   1.000  H
  N28      1.0000 0.82440  0.14201  0.73866  Biso   1.000  N
  N29      1.0000 0.82450  0.14201  0.73874  Biso   1.000  N
  N30      1.0000 0.82448  0.14201  0.73866  Biso   1.000  N
  C39      1.0000 0.88321  0.17719  0.82069  Biso   1.000  C
  C40      1.0000 0.88328  0.17719  0.82069  Biso   1.000  C
  C41      1.0000 0.21003  0.08090  0.30821  Biso   1.000  C
  C42      1.0000 0.20995  0.08090  0.30821  Biso   1.000  C
  C43      1.0000 0.28286  0.87068  0.26848  Biso   1.000  C
  C44      1.0000 0.28286  0.87073  0.26848  Biso   1.000  C
  C45      1.0000 0.28293  0.87068  0.26848  Biso   1.000  C
  C46      1.0000 0.28293  0.87073  0.26848  Biso   1.000  C
  N31      1.0000 0.23108  0.01847  0.34710  Biso   1.000  N
  N32      1.0000 0.23116  0.01847  0.34710  Biso   1.000  N
  H36      1.0000 0.37593  0.98099  0.38418  Biso   1.000  H
  H37      1.0000 0.37586  0.98099  0.38418  Biso   1.000  H
  H38      1.0000 0.85931  0.98001  0.54798  Biso   1.000  H
  N33      1.0000 0.76895  0.98153  0.65290  Biso   1.000  N
  H39      1.0000 0.85939  0.98001  0.54798  Biso   1.000  H
  H40      1.0000 0.77490  0.03430  0.52069  Biso   1.000  H
  H41      1.0000 0.77498  0.03430  0.52069  Biso   1.000  H
  C47      1.0000 0.71717  0.12932  0.73153  Biso   1.000  C
  C48      1.0000 0.71708  0.12932  0.73144  Biso   1.000  C
  C49      1.0000 0.71715  0.12932  0.73144  Biso   1.000  C
  O12      1.0000 0.85968  0.19503  0.90744  Biso   1.000  O
  O13      1.0000 0.85958  0.19503  0.90736  Biso   1.000  O
  O14      1.0000 0.85968  0.19508  0.90744  Biso   1.000  O
  O15      1.0000 0.85958  0.19508  0.90736  Biso   1.000  O
  O16      1.0000 0.85966  0.19503  0.90736  Biso   1.000  O
  O17      1.0000 0.85966  0.19508  0.90736  Biso   1.000  O
  O18      1.0000 0.14088  0.11560  0.32396  Biso   1.000  O
  H42      1.0000 0.32178  0.86108  0.34321  Biso   1.000  H
  H43      1.0000 0.30682  0.84157  0.21813  Biso   1.000  H
  N34      1.0000 0.17561  0.85799  0.26126  Biso   1.000  N
  H44      1.0000 0.30681  0.84157  0.21805  Biso   1.000  H
  N35      1.0000 0.17554  0.85799  0.26126  Biso   1.000  N
  H45      1.0000 0.32178  0.86113  0.34321  Biso   1.000  H
  H46      1.0000 0.30682  0.84162  0.21813  Biso   1.000  H
  H47      1.0000 0.30681  0.84162  0.21805  Biso   1.000  H
  H48      1.0000 0.32185  0.86108  0.34321  Biso   1.000  H
  H49      1.0000 0.32185  0.86113  0.34321  Biso   1.000  H
  C50      1.0000 0.17607  0.98682  0.41943  Biso   1.000  C
  C51      1.0000 0.17605  0.98682  0.41934  Biso   1.000  C
  C52      1.0000 0.17614  0.98682  0.41943  Biso   1.000  C
  C53      1.0000 0.17613  0.98682  0.41934  Biso   1.000  C
  C54      1.0000 0.79001  0.91910  0.69180  Biso   1.000  C
  C55      1.0000 0.79008  0.91910  0.69180  Biso   1.000  C
  C56      1.0000 0.67723  0.00789  0.68209  Biso   1.000  C
  H50      1.0000 0.67826  0.13892  0.65680  Biso   1.000  H
  H51      1.0000 0.69321  0.15843  0.78187  Biso   1.000  H
  N36      1.0000 0.69799  0.06228  0.75848  Biso   1.000  N
  H52      1.0000 0.67818  0.13892  0.65680  Biso   1.000  H
  H53      1.0000 0.69328  0.15843  0.78187  Biso   1.000  H
  N37      1.0000 0.69807  0.06228  0.75848  Biso   1.000  N
  C57      1.0000 0.12681  0.87009  0.35283  Biso   1.000  C
  C58      1.0000 0.11683  0.82281  0.17932  Biso   1.000  C
  C59      1.0000 0.12679  0.87009  0.35274  Biso   1.000  C
  C60      1.0000 0.11673  0.82281  0.17923  Biso   1.000  C
  C61      1.0000 0.11681  0.82281  0.17923  Biso   1.000  C
  H54      1.0000 0.22513  0.96570  0.47931  Biso   1.000  H
  N38      1.0000 0.10227  0.93840  0.36477  Biso   1.000  N
  H55      1.0000 0.22504  0.96570  0.47923  Biso   1.000  H
  N39      1.0000 0.10234  0.93840  0.36477  Biso   1.000  N
  H56      1.0000 0.22511  0.96570  0.47923  Biso   1.000  H
  H57      1.0000 0.14072  0.01999  0.45202  Biso   1.000  H
  H58      1.0000 0.14070  0.01999  0.45194  Biso   1.000  H
  N40      1.0000 0.72056  0.90199  0.75251  Biso   1.000  N
  O19      1.0000 0.85915  0.88440  0.67604  Biso   1.000  O
  N41      1.0000 0.72049  0.90199  0.75251  Biso   1.000  N
  O20      1.0000 0.85913  0.88440  0.67596  Biso   1.000  O
  C62      1.0000 0.64451  0.95252  0.74513  Biso   1.000  C
  C63      1.0000 0.64449  0.95252  0.74505  Biso   1.000  C
  C64      1.0000 0.64459  0.95252  0.74513  Biso   1.000  C
  C65      1.0000 0.64457  0.95252  0.74505  Biso   1.000  C
  H59      1.0000 0.62410  0.01901  0.61583  Biso   1.000  H
  H60      1.0000 0.62417  0.01901  0.61583  Biso   1.000  H
  C66      1.0000 0.67623  0.04641  0.85809  Biso   1.000  C
  H61      1.0000 0.16486  0.85069  0.42258  Biso   1.000  H
  C67      1.0000 0.01972  0.83760  0.30887  Biso   1.000  C
  C68      1.0000 0.01964  0.83760  0.30887  Biso   1.000  C
  H62      1.0000 0.16493  0.85069  0.42258  Biso   1.000  H
  N42      1.0000 0.02560  0.80811  0.20428  Biso   1.000  N
  O21      1.0000 0.14036  0.80497  0.09256  Biso   1.000  O
  O22      1.0000 0.14043  0.80497  0.09256  Biso   1.000  O
  C69      1.0000 0.99839  0.95012  0.33549  Biso   1.000  C
  C70      1.0000 0.99846  0.95012  0.33549  Biso   1.000  C
  C71      1.0000 0.71621  0.83702  0.79423  Biso   1.000  C
  C72      1.0000 0.71619  0.83702  0.79415  Biso   1.000  C
  C73      1.0000 0.71628  0.83702  0.79423  Biso   1.000  C
  C74      1.0000 0.71626  0.83702  0.79415  Biso   1.000  C
  H63      1.0000 0.57584  0.93669  0.70922  Biso   1.000  H
  N43      1.0000 0.64754  0.98260  0.85303  Biso   1.000  N
  N44      1.0000 0.64752  0.98260  0.85295  Biso   1.000  N
  N45      1.0000 0.64754  0.98265  0.85303  Biso   1.000  N
  N46      1.0000 0.64752  0.98265  0.85295  Biso   1.000  N
  N47      1.0000 0.64761  0.98260  0.85303  Biso   1.000  N
  N48      1.0000 0.64761  0.98265  0.85303  Biso   1.000  N
  O23      1.0000 0.68190  0.08321  0.93589  Biso   1.000  O
  O24      1.0000 0.68190  0.08326  0.93589  Biso   1.000  O
  O25      1.0000 0.68198  0.08321  0.93589  Biso   1.000  O
  O26      1.0000 0.68198  0.08326  0.93589  Biso   1.000  O
  N49      1.0000 0.95140  0.89278  0.29908  Biso   1.000  N
  N50      1.0000 0.95147  0.89278  0.29908  Biso   1.000  N
  N51      1.0000 0.95140  0.89283  0.29908  Biso   1.000  N
  N52      1.0000 0.95147  0.89283  0.29908  Biso   1.000  N
  H64      1.0000 0.00536  0.80492  0.36095  Biso   1.000  H
  H65      1.0000 0.00543  0.80492  0.36095  Biso   1.000  H
  C75      1.0000 0.94935  0.76650  0.13909  Biso   1.000  C
  C76      1.0000 0.94942  0.76650  0.13909  Biso   1.000  C
  O27      1.0000 0.95799  0.00216  0.34088  Biso   1.000  O
  O28      1.0000 0.95807  0.00216  0.34088  Biso   1.000  O
  H66      1.0000 0.64574  0.82232  0.77631  Biso   1.000  H
  H67      1.0000 0.75496  0.80801  0.75749  Biso   1.000  H
  N53      1.0000 0.75736  0.83270  0.91433  Biso   1.000  N
  H68      1.0000 0.75489  0.80801  0.75749  Biso   1.000  H
  N54      1.0000 0.75735  0.83270  0.91424  Biso   1.000  N
  C77      1.0000 0.60881  0.95330  0.94037  Biso   1.000  C
  C78      1.0000 0.60889  0.95330  0.94037  Biso   1.000  C
  C79      1.0000 0.84139  0.88450  0.28606  Biso   1.000  C
  C80      1.0000 0.84147  0.88450  0.28606  Biso   1.000  C
  N55      1.0000 0.86443  0.80208  0.06826  Biso   1.000  N
  N56      1.0000 0.86451  0.80208  0.06826  Biso   1.000  N
  H69      1.0000 0.92281  0.73808  0.18819  Biso   1.000  H
  H70      1.0000 0.98106  0.73901  0.09289  Biso   1.000  H
  H71      1.0000 0.98114  0.73901  0.09289  Biso   1.000  H
  H72      1.0000 0.92281  0.73813  0.18819  Biso   1.000  H
  C81      1.0000 0.85003  0.80281  0.95422  Biso   1.000  C
  C82      1.0000 0.69904  0.84451  0.99702  Biso   1.000  C
  C83      1.0000 0.85001  0.80281  0.95414  Biso   1.000  C
  C84      1.0000 0.85011  0.80281  0.95422  Biso   1.000  C
  C85      1.0000 0.69911  0.84451  0.99702  Biso   1.000  C
  H73      1.0000 0.58627  0.98770  0.98292  Biso   1.000  H
  H74      1.0000 0.54976  0.92659  0.90761  Biso   1.000  H
  H75      1.0000 0.58620  0.98770  0.98292  Biso   1.000  H
  N57      1.0000 0.68285  0.91312  0.01452  Biso   1.000  N
  N58      1.0000 0.68293  0.91312  0.01452  Biso   1.000  N
  N59      1.0000 0.78721  0.88156  0.17069  Biso   1.000  N
  H76      1.0000 0.82891  0.84442  0.32289  Biso   1.000  H
  H77      1.0000 0.81508  0.92081  0.32156  Biso   1.000  H
  H78      1.0000 0.81516  0.92081  0.32156  Biso   1.000  H
  C86      1.0000 0.77309  0.82241  0.10699  Biso   1.000  C
  C87      1.0000 0.77316  0.82241  0.10699  Biso   1.000  C
  O29      1.0000 0.90893  0.78228  0.90313  Biso   1.000  O
  O30      1.0000 0.90892  0.78228  0.90305  Biso   1.000  O
  O31      1.0000 0.90901  0.78228  0.90313  Biso   1.000  O
  H79      1.0000 0.63484  0.81972  0.98159  Biso   1.000  H
  C88      1.0000 0.73504  0.93292  0.11869  Biso   1.000  C
  C89      1.0000 0.73511  0.93292  0.11869  Biso   1.000  C
  H80      1.0000 0.74489  0.78679  0.14374  Biso   1.000  H
  H81      1.0000 0.74495  0.78679  0.14365  Biso   1.000  H
  H82      1.0000 0.74487  0.78679  0.14365  Biso   1.000  H
  O32      1.0000 0.72970  0.98819  0.15626  Biso   1.000  O
  O33      1.0000 0.27039  0.01186  0.84366  Biso   1.000  O
  C90      1.0000 0.26492  0.06708  0.88132  Biso   1.000  C
  C91      1.0000 0.26500  0.06708  0.88132  Biso   1.000  C
  C92      1.0000 0.26492  0.06713  0.88132  Biso   1.000  C
  C93      1.0000 0.26500  0.06713  0.88132  Biso   1.000  C
  N60      1.0000 0.21282  0.11844  0.82931  Biso   1.000  N
  N61      1.0000 0.21289  0.11844  0.82931  Biso   1.000  N
  N62      1.0000 0.31718  0.08688  0.98549  Biso   1.000  N
  N63      1.0000 0.31718  0.08693  0.98549  Biso   1.000  N
  O34      1.0000 0.27033  0.01181  0.84374  Biso   1.000  O
  O35      1.0000 0.27033  0.01186  0.84374  Biso   1.000  O
  O36      1.0000 0.27031  0.01181  0.84366  Biso   1.000  O
  O37      1.0000 0.27031  0.01186  0.84366  Biso   1.000  O
  N64      1.0000 0.31711  0.08688  0.98549  Biso   1.000  N
  O38      1.0000 0.27039  0.01181  0.84366  Biso   1.000  O
  N65      1.0000 0.31711  0.08693  0.98549  Biso   1.000  N
  C94      1.0000 0.15862  0.11550  0.71386  Biso   1.000  C
  C95      1.0000 0.15864  0.11550  0.71394  Biso   1.000  C
  C96      1.0000 0.22695  0.17759  0.89301  Biso   1.000  C
  C97      1.0000 0.22695  0.17764  0.89301  Biso   1.000  C
  C98      1.0000 0.30100  0.15549  0.00299  Biso   1.000  C
  C99      1.0000 0.30100  0.15553  0.00299  Biso   1.000  C
  C100     1.0000 0.39122  0.04670  0.05964  Biso   1.000  C
  C101     1.0000 0.39120  0.04670  0.05955  Biso   1.000  C
  H83      1.0000 0.17113  0.15558  0.67712  Biso   1.000  H
  N66      1.0000 0.04864  0.10722  0.70092  Biso   1.000  N
  H84      1.0000 0.18495  0.07919  0.67845  Biso   1.000  H
  H85      1.0000 0.17113  0.15563  0.67712  Biso   1.000  H
  H86      1.0000 0.18493  0.07919  0.67836  Biso   1.000  H
  H87      1.0000 0.18488  0.07919  0.67845  Biso   1.000  H
  H88      1.0000 0.17120  0.15558  0.67712  Biso   1.000  H
  H89      1.0000 0.17120  0.15563  0.67712  Biso   1.000  H
  H90      1.0000 0.25514  0.21321  0.85627  Biso   1.000  H
  N67      1.0000 0.13560  0.19792  0.93174  Biso   1.000  N
  N68      1.0000 0.13551  0.19792  0.93166  Biso   1.000  N
  H91      1.0000 0.25507  0.21321  0.85627  Biso   1.000  H
  N69      1.0000 0.13552  0.19792  0.93174  Biso   1.000  N
  N70      1.0000 0.13558  0.19792  0.93166  Biso   1.000  N
  H92      1.0000 0.36519  0.18028  0.01841  Biso   1.000  H
  N71      1.0000 0.24267  0.16730  0.08568  Biso   1.000  N
  H93      1.0000 0.36519  0.18033  0.01841  Biso   1.000  H
  N72      1.0000 0.24274  0.16730  0.08568  Biso   1.000  N
  H94      1.0000 0.41376  0.01230  0.01709  Biso   1.000  H
  H95      1.0000 0.45028  0.07341  0.09240  Biso   1.000  H
  N73      1.0000 0.35250  0.01740  0.14697  Biso   1.000  N
  H96      1.0000 0.41384  0.01230  0.01709  Biso   1.000  H
  H97      1.0000 0.45035  0.07341  0.09240  Biso   1.000  H
  C102     1.0000 0.00165  0.04988  0.66451  Biso   1.000  C
  C103     1.0000 0.00165  0.04993  0.66451  Biso   1.000  C
  C104     1.0000 0.98031  0.16240  0.69114  Biso   1.000  C
  C105     1.0000 0.98030  0.16240  0.69105  Biso   1.000  C
  C106     1.0000 0.98039  0.16240  0.69114  Biso   1.000  C
  C107     1.0000 0.98037  0.16240  0.69105  Biso   1.000  C
  C108     1.0000 0.00157  0.04988  0.66451  Biso   1.000  C
  C109     1.0000 0.00157  0.04993  0.66451  Biso   1.000  C
  C110     1.0000 0.05068  0.23350  0.86091  Biso   1.000  C
  C111     1.0000 0.05061  0.23350  0.86091  Biso   1.000  C
  C112     1.0000 0.15000  0.19719  0.04578  Biso   1.000  C
  C113     1.0000 0.28383  0.16298  0.20577  Biso   1.000  C
  C114     1.0000 0.28375  0.16298  0.20577  Biso   1.000  C
  C115     1.0000 0.28383  0.16303  0.20577  Biso   1.000  C
  C116     1.0000 0.28375  0.16303  0.20577  Biso   1.000  C
  C117     1.0000 0.32380  0.95359  0.14191  Biso   1.000  C
  C118     1.0000 0.35552  0.04748  0.25487  Biso   1.000  C
  C119     1.0000 0.35545  0.04748  0.25487  Biso   1.000  C
  C120     1.0000 0.35552  0.04753  0.25487  Biso   1.000  C
  C121     1.0000 0.35545  0.04753  0.25487  Biso   1.000  C
  N74      1.0000 0.89776  0.06160  0.63523  Biso   1.000  N
  N75      1.0000 0.89775  0.06160  0.63515  Biso   1.000  N
  O39      1.0000 0.04204  0.99784  0.65912  Biso   1.000  O
  O40      1.0000 0.04197  0.99784  0.65912  Biso   1.000  O
  C122     1.0000 0.87323  0.12991  0.64718  Biso   1.000  C
  H98      1.0000 0.99468  0.19508  0.63905  Biso   1.000  H
  N76      1.0000 0.97443  0.19189  0.79572  Biso   1.000  N
  H99      1.0000 0.99458  0.19508  0.63897  Biso   1.000  H
  H100     1.0000 0.99468  0.19513  0.63905  Biso   1.000  H
  H101     1.0000 0.99458  0.19513  0.63897  Biso   1.000  H
  N77      1.0000 0.97451  0.19189  0.79572  Biso   1.000  N
  H102     1.0000 0.99466  0.19508  0.63897  Biso   1.000  H
  H103     1.0000 0.99466  0.19513  0.63897  Biso   1.000  H
  H104     1.0000 0.07722  0.26192  0.81181  Biso   1.000  H
  H105     1.0000 0.01897  0.26099  0.90711  Biso   1.000  H
  H106     1.0000 0.01890  0.26099  0.90711  Biso   1.000  H
  H107     1.0000 0.07730  0.26192  0.81181  Biso   1.000  H
  O41      1.0000 0.09110  0.21772  0.09688  Biso   1.000  O
  H108     1.0000 0.35429  0.17768  0.22369  Biso   1.000  H
  H109     1.0000 0.24507  0.19199  0.24252  Biso   1.000  H
  N78      1.0000 0.27947  0.09801  0.24749  Biso   1.000  N
  H110     1.0000 0.24505  0.19199  0.24243  Biso   1.000  H
  H111     1.0000 0.35429  0.17773  0.22369  Biso   1.000  H
  H112     1.0000 0.24514  0.19199  0.24252  Biso   1.000  H
  N79      1.0000 0.27954  0.09801  0.24749  Biso   1.000  N
  H113     1.0000 0.24512  0.19199  0.24243  Biso   1.000  H
  N80      1.0000 0.30204  0.93772  0.24152  Biso   1.000  N
  O42      1.0000 0.31813  0.91679  0.06411  Biso   1.000  O
  N81      1.0000 0.30195  0.93772  0.24144  Biso   1.000  N
  O43      1.0000 0.31805  0.91679  0.06411  Biso   1.000  O
  N82      1.0000 0.30204  0.93777  0.24152  Biso   1.000  N
  N83      1.0000 0.30195  0.93777  0.24144  Biso   1.000  N
  N84      1.0000 0.30202  0.93772  0.24144  Biso   1.000  N
  N85      1.0000 0.30202  0.93777  0.24144  Biso   1.000  N
  C123     1.0000 0.32280  0.99211  0.31791  Biso   1.000  C
  H114     1.0000 0.42419  0.06331  0.29079  Biso   1.000  H
  H115     1.0000 0.42427  0.06331  0.29079  Biso   1.000  H
  C124     1.0000 0.82396  0.01318  0.58058  Biso   1.000  C
  C125     1.0000 0.82389  0.01318  0.58058  Biso   1.000  C
  C126     1.0000 0.82396  0.01323  0.58058  Biso   1.000  C
  C127     1.0000 0.82389  0.01323  0.58058  Biso   1.000  C
  H116     1.0000 0.83517  0.14931  0.57742  Biso   1.000  H
  N86      1.0000 0.82442  0.14201  0.73874  Biso   1.000  N
  H117     1.0000 0.83510  0.14931  0.57742  Biso   1.000  H
  N87      1.0000 0.82440  0.14201  0.73866  Biso   1.000  N
  N88      1.0000 0.82450  0.14201  0.73874  Biso   1.000  N
  N89      1.0000 0.82448  0.14201  0.73866  Biso   1.000  N
  C128     1.0000 0.88321  0.17719  0.82069  Biso   1.000  C
  C129     1.0000 0.88328  0.17719  0.82069  Biso   1.000  C
  C130     1.0000 0.21003  0.08090  0.30821  Biso   1.000  C
  C131     1.0000 0.20995  0.08090  0.30821  Biso   1.000  C
  C132     1.0000 0.28286  0.87068  0.26848  Biso   1.000  C
  C133     1.0000 0.28286  0.87073  0.26848  Biso   1.000  C
  C134     1.0000 0.28293  0.87068  0.26848  Biso   1.000  C
  C135     1.0000 0.28293  0.87073  0.26848  Biso   1.000  C
  N90      1.0000 0.23108  0.01847  0.34710  Biso   1.000  N
  N91      1.0000 0.23116  0.01847  0.34710  Biso   1.000  N
  H118     1.0000 0.37593  0.98099  0.38418  Biso   1.000  H
  H119     1.0000 0.37586  0.98099  0.38418  Biso   1.000  H
  H120     1.0000 0.85931  0.98001  0.54798  Biso   1.000  H
  N92      1.0000 0.76895  0.98153  0.65290  Biso   1.000  N
  H121     1.0000 0.85939  0.98001  0.54798  Biso   1.000  H
  H122     1.0000 0.77490  0.03430  0.52069  Biso   1.000  H
  H123     1.0000 0.77498  0.03430  0.52069  Biso   1.000  H
  C136     1.0000 0.71717  0.12932  0.73153  Biso   1.000  C
  C137     1.0000 0.71708  0.12932  0.73144  Biso   1.000  C
  C138     1.0000 0.71715  0.12932  0.73144  Biso   1.000  C
  O44      1.0000 0.85968  0.19503  0.90744  Biso   1.000  O
  O45      1.0000 0.85958  0.19503  0.90736  Biso   1.000  O
  O46      1.0000 0.85968  0.19508  0.90744  Biso   1.000  O
  O47      1.0000 0.85958  0.19508  0.90736  Biso   1.000  O
  O48      1.0000 0.85966  0.19503  0.90736  Biso   1.000  O
  O49      1.0000 0.85966  0.19508  0.90736  Biso   1.000  O
  O50      1.0000 0.14088  0.11560  0.32396  Biso   1.000  O
  H124     1.0000 0.32178  0.86108  0.34321  Biso   1.000  H
  H125     1.0000 0.30682  0.84157  0.21813  Biso   1.000  H
  N93      1.0000 0.17561  0.85799  0.26126  Biso   1.000  N
  H126     1.0000 0.30681  0.84157  0.21805  Biso   1.000  H
  N94      1.0000 0.17554  0.85799  0.26126  Biso   1.000  N
  H127     1.0000 0.32178  0.86113  0.34321  Biso   1.000  H
  H128     1.0000 0.30682  0.84162  0.21813  Biso   1.000  H
  H129     1.0000 0.30681  0.84162  0.21805  Biso   1.000  H
  H130     1.0000 0.32185  0.86108  0.34321  Biso   1.000  H
  H131     1.0000 0.32185  0.86113  0.34321  Biso   1.000  H
  C139     1.0000 0.17607  0.98682  0.41943  Biso   1.000  C
  C140     1.0000 0.17605  0.98682  0.41934  Biso   1.000  C
  C141     1.0000 0.17614  0.98682  0.41943  Biso   1.000  C
  C142     1.0000 0.17613  0.98682  0.41934  Biso   1.000  C
  C143     1.0000 0.79001  0.91910  0.69180  Biso   1.000  C
  C144     1.0000 0.79008  0.91910  0.69180  Biso   1.000  C
  C145     1.0000 0.67723  0.00789  0.68209  Biso   1.000  C
  H132     1.0000 0.67826  0.13892  0.65680  Biso   1.000  H
  H133     1.0000 0.69321  0.15843  0.78187  Biso   1.000  H
  N95      1.0000 0.69799  0.06228  0.75848  Biso   1.000  N
  H134     1.0000 0.67818  0.13892  0.65680  Biso   1.000  H
  H135     1.0000 0.69328  0.15843  0.78187  Biso   1.000  H
  N96      1.0000 0.69807  0.06228  0.75848  Biso   1.000  N
  C146     1.0000 0.12681  0.87009  0.35283  Biso   1.000  C
  C147     1.0000 0.11683  0.82281  0.17932  Biso   1.000  C
  C148     1.0000 0.12679  0.87009  0.35274  Biso   1.000  C
  C149     1.0000 0.11673  0.82281  0.17923  Biso   1.000  C
  C150     1.0000 0.11681  0.82281  0.17923  Biso   1.000  C
  H136     1.0000 0.22513  0.96570  0.47931  Biso   1.000  H
  N97      1.0000 0.10227  0.93840  0.36477  Biso   1.000  N
  H137     1.0000 0.22504  0.96570  0.47923  Biso   1.000  H
  N98      1.0000 0.10234  0.93840  0.36477  Biso   1.000  N
  H138     1.0000 0.22511  0.96570  0.47923  Biso   1.000  H
  H139     1.0000 0.14072  0.01999  0.45202  Biso   1.000  H
  H140     1.0000 0.14070  0.01999  0.45194  Biso   1.000  H
  N99      1.0000 0.72056  0.90199  0.75251  Biso   1.000  N
  O51      1.0000 0.85915  0.88440  0.67604  Biso   1.000  O
  N100     1.0000 0.72049  0.90199  0.75251  Biso   1.000  N
  O52      1.0000 0.85913  0.88440  0.67596  Biso   1.000  O
  C151     1.0000 0.64451  0.95252  0.74513  Biso   1.000  C
  C152     1.0000 0.64449  0.95252  0.74505  Biso   1.000  C
  C153     1.0000 0.64459  0.95252  0.74513  Biso   1.000  C
  C154     1.0000 0.64457  0.95252  0.74505  Biso   1.000  C
  H141     1.0000 0.62410  0.01901  0.61583  Biso   1.000  H
  H142     1.0000 0.62417  0.01901  0.61583  Biso   1.000  H
  C155     1.0000 0.67623  0.04641  0.85809  Biso   1.000  C
  H143     1.0000 0.16486  0.85069  0.42258  Biso   1.000  H
  C156     1.0000 0.01972  0.83760  0.30887  Biso   1.000  C
  C157     1.0000 0.01964  0.83760  0.30887  Biso   1.000  C
  H144     1.0000 0.16493  0.85069  0.42258  Biso   1.000  H
  N101     1.0000 0.02560  0.80811  0.20428  Biso   1.000  N
  O53      1.0000 0.14036  0.80497  0.09256  Biso   1.000  O
  O54      1.0000 0.14043  0.80497  0.09256  Biso   1.000  O
  C158     1.0000 0.99839  0.95012  0.33549  Biso   1.000  C
  C159     1.0000 0.99846  0.95012  0.33549  Biso   1.000  C
  C160     1.0000 0.71621  0.83702  0.79423  Biso   1.000  C
  C161     1.0000 0.71619  0.83702  0.79415  Biso   1.000  C
  C162     1.0000 0.71628  0.83702  0.79423  Biso   1.000  C
  C163     1.0000 0.71626  0.83702  0.79415  Biso   1.000  C
  H145     1.0000 0.57584  0.93669  0.70922  Biso   1.000  H
  N102     1.0000 0.64754  0.98260  0.85303  Biso   1.000  N
  N103     1.0000 0.64752  0.98260  0.85295  Biso   1.000  N
  N104     1.0000 0.64754  0.98265  0.85303  Biso   1.000  N
  N105     1.0000 0.64752  0.98265  0.85295  Biso   1.000  N
  N106     1.0000 0.64761  0.98260  0.85303  Biso   1.000  N
  N107     1.0000 0.64761  0.98265  0.85303  Biso   1.000  N
  O55      1.0000 0.68190  0.08321  0.93589  Biso   1.000  O
  O56      1.0000 0.68190  0.08326  0.93589  Biso   1.000  O
  O57      1.0000 0.68198  0.08321  0.93589  Biso   1.000  O
  O58      1.0000 0.68198  0.08326  0.93589  Biso   1.000  O
  N108     1.0000 0.95140  0.89278  0.29908  Biso   1.000  N
  N109     1.0000 0.95147  0.89278  0.29908  Biso   1.000  N
  N110     1.0000 0.95140  0.89283  0.29908  Biso   1.000  N
  N111     1.0000 0.95147  0.89283  0.29908  Biso   1.000  N
  H146     1.0000 0.00536  0.80492  0.36095  Biso   1.000  H
  H147     1.0000 0.00543  0.80492  0.36095  Biso   1.000  H
  C164     1.0000 0.94935  0.76650  0.13909  Biso   1.000  C
  C165     1.0000 0.94942  0.76650  0.13909  Biso   1.000  C
  O59      1.0000 0.95799  0.00216  0.34088  Biso   1.000  O
  O60      1.0000 0.95807  0.00216  0.34088  Biso   1.000  O
  H148     1.0000 0.64574  0.82232  0.77631  Biso   1.000  H
  H149     1.0000 0.75496  0.80801  0.75749  Biso   1.000  H
  N112     1.0000 0.75736  0.83270  0.91433  Biso   1.000  N
  H150     1.0000 0.75489  0.80801  0.75749  Biso   1.000  H
  N113     1.0000 0.75735  0.83270  0.91424  Biso   1.000  N
  C166     1.0000 0.60881  0.95330  0.94037  Biso   1.000  C
  C167     1.0000 0.60889  0.95330  0.94037  Biso   1.000  C
  C168     1.0000 0.84139  0.88450  0.28606  Biso   1.000  C
  C169     1.0000 0.84147  0.88450  0.28606  Biso   1.000  C
  N114     1.0000 0.86443  0.80208  0.06826  Biso   1.000  N
  N115     1.0000 0.86451  0.80208  0.06826  Biso   1.000  N
  H151     1.0000 0.92281  0.73808  0.18819  Biso   1.000  H
  H152     1.0000 0.98106  0.73901  0.09289  Biso   1.000  H
  H153     1.0000 0.98114  0.73901  0.09289  Biso   1.000  H
  H154     1.0000 0.92281  0.73813  0.18819  Biso   1.000  H
  C170     1.0000 0.85003  0.80281  0.95422  Biso   1.000  C
  C171     1.0000 0.69904  0.84451  0.99702  Biso   1.000  C
  C172     1.0000 0.85001  0.80281  0.95414  Biso   1.000  C
  C173     1.0000 0.85011  0.80281  0.95422  Biso   1.000  C
  C174     1.0000 0.69911  0.84451  0.99702  Biso   1.000  C
  H155     1.0000 0.58627  0.98770  0.98292  Biso   1.000  H
  H156     1.0000 0.54976  0.92659  0.90761  Biso   1.000  H
  H157     1.0000 0.58620  0.98770  0.98292  Biso   1.000  H
  N116     1.0000 0.68285  0.91312  0.01452  Biso   1.000  N
  N117     1.0000 0.68293  0.91312  0.01452  Biso   1.000  N
  N118     1.0000 0.78721  0.88156  0.17069  Biso   1.000  N
  H158     1.0000 0.82891  0.84442  0.32289  Biso   1.000  H
  H159     1.0000 0.81508  0.92081  0.32156  Biso   1.000  H
  H160     1.0000 0.81516  0.92081  0.32156  Biso   1.000  H
  C175     1.0000 0.77309  0.82241  0.10699  Biso   1.000  C
  C176     1.0000 0.77316  0.82241  0.10699  Biso   1.000  C
  O61      1.0000 0.90893  0.78228  0.90313  Biso   1.000  O
  O62      1.0000 0.90892  0.78228  0.90305  Biso   1.000  O
  O63      1.0000 0.90901  0.78228  0.90313  Biso   1.000  O
  H161     1.0000 0.63484  0.81972  0.98159  Biso   1.000  H
  C177     1.0000 0.73504  0.93292  0.11869  Biso   1.000  C
  C178     1.0000 0.73511  0.93292  0.11869  Biso   1.000  C
  H162     1.0000 0.74489  0.78679  0.14374  Biso   1.000  H
  H163     1.0000 0.74495  0.78679  0.14365  Biso   1.000  H
  H164     1.0000 0.74487  0.78679  0.14365  Biso   1.000  H
  O64      1.0000 0.72970  0.98819  0.15626  Biso   1.000  O
  O65      1.0000 0.27039  0.01186  0.84366  Biso   1.000  O
  C179     1.0000 0.26500  0.06708  0.88132  Biso   1.000  C
  C180     1.0000 0.26492  0.06708  0.88132  Biso   1.000  C
  C181     1.0000 0.26500  0.06713  0.88132  Biso   1.000  C
  C182     1.0000 0.26492  0.06713  0.88132  Biso   1.000  C
  N119     1.0000 0.21282  0.11844  0.82931  Biso   1.000  N
  N120     1.0000 0.21289  0.11844  0.82931  Biso   1.000  N
  N121     1.0000 0.31718  0.08688  0.98549  Biso   1.000  N
  N122     1.0000 0.31718  0.08693  0.98549  Biso   1.000  N
  O66      1.0000 0.27033  0.01181  0.84374  Biso   1.000  O
  O67      1.0000 0.27031  0.01181  0.84366  Biso   1.000  O
  O68      1.0000 0.27033  0.01186  0.84374  Biso   1.000  O
  O69      1.0000 0.27031  0.01186  0.84366  Biso   1.000  O
  N123     1.0000 0.31711  0.08688  0.98549  Biso   1.000  N
  O70      1.0000 0.27039  0.01181  0.84366  Biso   1.000  O
  N124     1.0000 0.31711  0.08693  0.98549  Biso   1.000  N
  C183     1.0000 0.15862  0.11550  0.71386  Biso   1.000  C
  C184     1.0000 0.15864  0.11550  0.71394  Biso   1.000  C
  C185     1.0000 0.22695  0.17759  0.89301  Biso   1.000  C
  C186     1.0000 0.22695  0.17764  0.89301  Biso   1.000  C
  C187     1.0000 0.30100  0.15549  0.00299  Biso   1.000  C
  C188     1.0000 0.30100  0.15553  0.00299  Biso   1.000  C
  C189     1.0000 0.39122  0.04670  0.05964  Biso   1.000  C
  C190     1.0000 0.39120  0.04670  0.05955  Biso   1.000  C
  N125     1.0000 0.04864  0.10722  0.70092  Biso   1.000  N
  H165     1.0000 0.17113  0.15558  0.67712  Biso   1.000  H
  H166     1.0000 0.18493  0.07919  0.67836  Biso   1.000  H
  H167     1.0000 0.17113  0.15563  0.67712  Biso   1.000  H
  H168     1.0000 0.18495  0.07919  0.67845  Biso   1.000  H
  H169     1.0000 0.18488  0.07919  0.67845  Biso   1.000  H
  H170     1.0000 0.17120  0.15558  0.67712  Biso   1.000  H
  H171     1.0000 0.17120  0.15563  0.67712  Biso   1.000  H
  H172     1.0000 0.25514  0.21321  0.85627  Biso   1.000  H
  N126     1.0000 0.13560  0.19792  0.93174  Biso   1.000  N
  N127     1.0000 0.13551  0.19792  0.93166  Biso   1.000  N
  H173     1.0000 0.25507  0.21321  0.85627  Biso   1.000  H
  N128     1.0000 0.13552  0.19792  0.93174  Biso   1.000  N
  N129     1.0000 0.13558  0.19792  0.93166  Biso   1.000  N
  H174     1.0000 0.36519  0.18028  0.01841  Biso   1.000  H
  N130     1.0000 0.24267  0.16730  0.08568  Biso   1.000  N
  H175     1.0000 0.36519  0.18033  0.01841  Biso   1.000  H
  N131     1.0000 0.24274  0.16730  0.08568  Biso   1.000  N
  H176     1.0000 0.41376  0.01230  0.01709  Biso   1.000  H
  H177     1.0000 0.45028  0.07341  0.09240  Biso   1.000  H
  N132     1.0000 0.35250  0.01740  0.14697  Biso   1.000  N
  H178     1.0000 0.41384  0.01230  0.01709  Biso   1.000  H
  H179     1.0000 0.45035  0.07341  0.09240  Biso   1.000  H
  C191     1.0000 0.00165  0.04988  0.66451  Biso   1.000  C
  C192     1.0000 0.00165  0.04993  0.66451  Biso   1.000  C
  C193     1.0000 0.98031  0.16240  0.69114  Biso   1.000  C
  C194     1.0000 0.98030  0.16240  0.69105  Biso   1.000  C
  C195     1.0000 0.98039  0.16240  0.69114  Biso   1.000  C
  C196     1.0000 0.98037  0.16240  0.69105  Biso   1.000  C
  C197     1.0000 0.00157  0.04988  0.66451  Biso   1.000  C
  C198     1.0000 0.00157  0.04993  0.66451  Biso   1.000  C
  C199     1.0000 0.05061  0.23350  0.86091  Biso   1.000  C
  C200     1.0000 0.05068  0.23350  0.86091  Biso   1.000  C
  C201     1.0000 0.15000  0.19719  0.04578  Biso   1.000  C
  C202     1.0000 0.28383  0.16298  0.20577  Biso   1.000  C
  C203     1.0000 0.28375  0.16298  0.20577  Biso   1.000  C
  C204     1.0000 0.28383  0.16303  0.20577  Biso   1.000  C
  C205     1.0000 0.28375  0.16303  0.20577  Biso   1.000  C
  C206     1.0000 0.32380  0.95359  0.14191  Biso   1.000  C
  C207     1.0000 0.35552  0.04748  0.25487  Biso   1.000  C
  C208     1.0000 0.35545  0.04748  0.25487  Biso   1.000  C
  C209     1.0000 0.35552  0.04753  0.25487  Biso   1.000  C
  C210     1.0000 0.35545  0.04753  0.25487  Biso   1.000  C
  N133     1.0000 0.89776  0.06160  0.63523  Biso   1.000  N
  N134     1.0000 0.89775  0.06160  0.63515  Biso   1.000  N
  O71      1.0000 0.04204  0.99784  0.65912  Biso   1.000  O
  O72      1.0000 0.04197  0.99784  0.65912  Biso   1.000  O
  C211     1.0000 0.87323  0.12991  0.64718  Biso   1.000  C
  H180     1.0000 0.99468  0.19508  0.63905  Biso   1.000  H
  N135     1.0000 0.97443  0.19189  0.79572  Biso   1.000  N
  H181     1.0000 0.99458  0.19508  0.63897  Biso   1.000  H
  H182     1.0000 0.99468  0.19513  0.63905  Biso   1.000  H
  H183     1.0000 0.99458  0.19513  0.63897  Biso   1.000  H
  N136     1.0000 0.97451  0.19189  0.79572  Biso   1.000  N
  H184     1.0000 0.99466  0.19508  0.63897  Biso   1.000  H
  H185     1.0000 0.99466  0.19513  0.63897  Biso   1.000  H
  H186     1.0000 0.07722  0.26192  0.81181  Biso   1.000  H
  H187     1.0000 0.01897  0.26099  0.90711  Biso   1.000  H
  H188     1.0000 0.01890  0.26099  0.90711  Biso   1.000  H
  H189     1.0000 0.07730  0.26192  0.81181  Biso   1.000  H
  O73      1.0000 0.09110  0.21772  0.09688  Biso   1.000  O
  H190     1.0000 0.35429  0.17768  0.22369  Biso   1.000  H
  H191     1.0000 0.24507  0.19199  0.24252  Biso   1.000  H
  N137     1.0000 0.27947  0.09801  0.24749  Biso   1.000  N
  H192     1.0000 0.24505  0.19199  0.24243  Biso   1.000  H
  H193     1.0000 0.35429  0.17773  0.22369  Biso   1.000  H
  H194     1.0000 0.24514  0.19199  0.24252  Biso   1.000  H
  N138     1.0000 0.27954  0.09801  0.24749  Biso   1.000  N
  H195     1.0000 0.24512  0.19199  0.24243  Biso   1.000  H
  N139     1.0000 0.30204  0.93772  0.24152  Biso   1.000  N
  O74      1.0000 0.31813  0.91679  0.06411  Biso   1.000  O
  N140     1.0000 0.30195  0.93772  0.24144  Biso   1.000  N
  O75      1.0000 0.31805  0.91679  0.06411  Biso   1.000  O
  N141     1.0000 0.30204  0.93777  0.24152  Biso   1.000  N
  N142     1.0000 0.30195  0.93777  0.24144  Biso   1.000  N
  N143     1.0000 0.30202  0.93772  0.24144  Biso   1.000  N
  N144     1.0000 0.30202  0.93777  0.24144  Biso   1.000  N
  C212     1.0000 0.32280  0.99211  0.31791  Biso   1.000  C
  H196     1.0000 0.42419  0.06331  0.29079  Biso   1.000  H
  H197     1.0000 0.42427  0.06331  0.29079  Biso   1.000  H
  C213     1.0000 0.82396  0.01318  0.58058  Biso   1.000  C
  C214     1.0000 0.82389  0.01318  0.58058  Biso   1.000  C
  C215     1.0000 0.82396  0.01323  0.58058  Biso   1.000  C
  C216     1.0000 0.82389  0.01323  0.58058  Biso   1.000  C
  H198     1.0000 0.83517  0.14931  0.57742  Biso   1.000  H
  N145     1.0000 0.82442  0.14201  0.73874  Biso   1.000  N
  H199     1.0000 0.83510  0.14931  0.57742  Biso   1.000  H
  N146     1.0000 0.82440  0.14201  0.73866  Biso   1.000  N
  N147     1.0000 0.82450  0.14201  0.73874  Biso   1.000  N
  N148     1.0000 0.82448  0.14201  0.73866  Biso   1.000  N
  C217     1.0000 0.88321  0.17719  0.82069  Biso   1.000  C
  C218     1.0000 0.88328  0.17719  0.82069  Biso   1.000  C
  C219     1.0000 0.21003  0.08090  0.30821  Biso   1.000  C
  C220     1.0000 0.20995  0.08090  0.30821  Biso   1.000  C
  C221     1.0000 0.28286  0.87068  0.26848  Biso   1.000  C
  C222     1.0000 0.28286  0.87073  0.26848  Biso   1.000  C
  C223     1.0000 0.28293  0.87068  0.26848  Biso   1.000  C
  C224     1.0000 0.28293  0.87073  0.26848  Biso   1.000  C
  N149     1.0000 0.23108  0.01847  0.34710  Biso   1.000  N
  N150     1.0000 0.23116  0.01847  0.34710  Biso   1.000  N
  H200     1.0000 0.37593  0.98099  0.38418  Biso   1.000  H
  H201     1.0000 0.37586  0.98099  0.38418  Biso   1.000  H
  H202     1.0000 0.85931  0.98001  0.54798  Biso   1.000  H
  N151     1.0000 0.76895  0.98153  0.65290  Biso   1.000  N
  H203     1.0000 0.85939  0.98001  0.54798  Biso   1.000  H
  H204     1.0000 0.77490  0.03430  0.52069  Biso   1.000  H
  H205     1.0000 0.77498  0.03430  0.52069  Biso   1.000  H
  C225     1.0000 0.71717  0.12932  0.73153  Biso   1.000  C
  C226     1.0000 0.71708  0.12932  0.73144  Biso   1.000  C
  C227     1.0000 0.71715  0.12932  0.73144  Biso   1.000  C
  O76      1.0000 0.85968  0.19503  0.90744  Biso   1.000  O
  O77      1.0000 0.85958  0.19503  0.90736  Biso   1.000  O
  O78      1.0000 0.85968  0.19508  0.90744  Biso   1.000  O
  O79      1.0000 0.85958  0.19508  0.90736  Biso   1.000  O
  O80      1.0000 0.85966  0.19503  0.90736  Biso   1.000  O
  O81      1.0000 0.85966  0.19508  0.90736  Biso   1.000  O
  O82      1.0000 0.14088  0.11560  0.32396  Biso   1.000  O
  H206     1.0000 0.32178  0.86108  0.34321  Biso   1.000  H
  H207     1.0000 0.30682  0.84157  0.21813  Biso   1.000  H
  N152     1.0000 0.17561  0.85799  0.26126  Biso   1.000  N
  H208     1.0000 0.30681  0.84157  0.21805  Biso   1.000  H
  N153     1.0000 0.17554  0.85799  0.26126  Biso   1.000  N
  H209     1.0000 0.32178  0.86113  0.34321  Biso   1.000  H
  H210     1.0000 0.30682  0.84162  0.21813  Biso   1.000  H
  H211     1.0000 0.30681  0.84162  0.21805  Biso   1.000  H
  H212     1.0000 0.32185  0.86108  0.34321  Biso   1.000  H
  H213     1.0000 0.32185  0.86113  0.34321  Biso   1.000  H
  C228     1.0000 0.17607  0.98682  0.41943  Biso   1.000  C
  C229     1.0000 0.17605  0.98682  0.41934  Biso   1.000  C
  C230     1.0000 0.17614  0.98682  0.41943  Biso   1.000  C
  C231     1.0000 0.17613  0.98682  0.41934  Biso   1.000  C
  C232     1.0000 0.79001  0.91910  0.69180  Biso   1.000  C
  C233     1.0000 0.79008  0.91910  0.69180  Biso   1.000  C
  C234     1.0000 0.67723  0.00789  0.68209  Biso   1.000  C
  H214     1.0000 0.67826  0.13892  0.65680  Biso   1.000  H
  H215     1.0000 0.69321  0.15843  0.78187  Biso   1.000  H
  N154     1.0000 0.69799  0.06228  0.75848  Biso   1.000  N
  H216     1.0000 0.67818  0.13892  0.65680  Biso   1.000  H
  H217     1.0000 0.69328  0.15843  0.78187  Biso   1.000  H
  N155     1.0000 0.69807  0.06228  0.75848  Biso   1.000  N
  C235     1.0000 0.12681  0.87009  0.35283  Biso   1.000  C
  C236     1.0000 0.11683  0.82281  0.17932  Biso   1.000  C
  C237     1.0000 0.12679  0.87009  0.35274  Biso   1.000  C
  C238     1.0000 0.11673  0.82281  0.17923  Biso   1.000  C
  C239     1.0000 0.11681  0.82281  0.17923  Biso   1.000  C
  H218     1.0000 0.22513  0.96570  0.47931  Biso   1.000  H
  N156     1.0000 0.10227  0.93840  0.36477  Biso   1.000  N
  H219     1.0000 0.22504  0.96570  0.47923  Biso   1.000  H
  N157     1.0000 0.10234  0.93840  0.36477  Biso   1.000  N
  H220     1.0000 0.22511  0.96570  0.47923  Biso   1.000  H
  H221     1.0000 0.14072  0.01999  0.45202  Biso   1.000  H
  H222     1.0000 0.14070  0.01999  0.45194  Biso   1.000  H
  N158     1.0000 0.72056  0.90199  0.75251  Biso   1.000  N
  O83      1.0000 0.85915  0.88440  0.67604  Biso   1.000  O
  N159     1.0000 0.72049  0.90199  0.75251  Biso   1.000  N
  O84      1.0000 0.85913  0.88440  0.67596  Biso   1.000  O
  C240     1.0000 0.64451  0.95252  0.74513  Biso   1.000  C
  C241     1.0000 0.64449  0.95252  0.74505  Biso   1.000  C
  C242     1.0000 0.64459  0.95252  0.74513  Biso   1.000  C
  C243     1.0000 0.64457  0.95252  0.74505  Biso   1.000  C
  H223     1.0000 0.62410  0.01901  0.61583  Biso   1.000  H
  H224     1.0000 0.62417  0.01901  0.61583  Biso   1.000  H
  C244     1.0000 0.67623  0.04641  0.85809  Biso   1.000  C
  H225     1.0000 0.16486  0.85069  0.42258  Biso   1.000  H
  C245     1.0000 0.01972  0.83760  0.30887  Biso   1.000  C
  C246     1.0000 0.01964  0.83760  0.30887  Biso   1.000  C
  H226     1.0000 0.16493  0.85069  0.42258  Biso   1.000  H
  N160     1.0000 0.02560  0.80811  0.20428  Biso   1.000  N
  O85      1.0000 0.14036  0.80497  0.09256  Biso   1.000  O
  O86      1.0000 0.14043  0.80497  0.09256  Biso   1.000  O
  C247     1.0000 0.99839  0.95012  0.33549  Biso   1.000  C
  C248     1.0000 0.99846  0.95012  0.33549  Biso   1.000  C
  C249     1.0000 0.71621  0.83702  0.79423  Biso   1.000  C
  C250     1.0000 0.71619  0.83702  0.79415  Biso   1.000  C
  C251     1.0000 0.71628  0.83702  0.79423  Biso   1.000  C
  C252     1.0000 0.71626  0.83702  0.79415  Biso   1.000  C
  H227     1.0000 0.57584  0.93669  0.70922  Biso   1.000  H
  N161     1.0000 0.64754  0.98260  0.85303  Biso   1.000  N
  N162     1.0000 0.64752  0.98260  0.85295  Biso   1.000  N
  N163     1.0000 0.64754  0.98265  0.85303  Biso   1.000  N
  N164     1.0000 0.64752  0.98265  0.85295  Biso   1.000  N
  N165     1.0000 0.64761  0.98260  0.85303  Biso   1.000  N
  N166     1.0000 0.64761  0.98265  0.85303  Biso   1.000  N
  O87      1.0000 0.68190  0.08321  0.93589  Biso   1.000  O
  O88      1.0000 0.68190  0.08326  0.93589  Biso   1.000  O
  O89      1.0000 0.68198  0.08321  0.93589  Biso   1.000  O
  O90      1.0000 0.68198  0.08326  0.93589  Biso   1.000  O
  N167     1.0000 0.95140  0.89278  0.29908  Biso   1.000  N
  N168     1.0000 0.95147  0.89278  0.29908  Biso   1.000  N
  N169     1.0000 0.95140  0.89283  0.29908  Biso   1.000  N
  N170     1.0000 0.95147  0.89283  0.29908  Biso   1.000  N
  H228     1.0000 0.00536  0.80492  0.36095  Biso   1.000  H
  H229     1.0000 0.00543  0.80492  0.36095  Biso   1.000  H
  C253     1.0000 0.94935  0.76650  0.13909  Biso   1.000  C
  C254     1.0000 0.94942  0.76650  0.13909  Biso   1.000  C
  O91      1.0000 0.95799  0.00216  0.34088  Biso   1.000  O
  O92      1.0000 0.95807  0.00216  0.34088  Biso   1.000  O
  H230     1.0000 0.64574  0.82232  0.77631  Biso   1.000  H
  H231     1.0000 0.75496  0.80801  0.75749  Biso   1.000  H
  N171     1.0000 0.75736  0.83270  0.91433  Biso   1.000  N
  H232     1.0000 0.75489  0.80801  0.75749  Biso   1.000  H
  N172     1.0000 0.75735  0.83270  0.91424  Biso   1.000  N
  C255     1.0000 0.60881  0.95330  0.94037  Biso   1.000  C
  C256     1.0000 0.60889  0.95330  0.94037  Biso   1.000  C
  C257     1.0000 0.84139  0.88450  0.28606  Biso   1.000  C
  C258     1.0000 0.84147  0.88450  0.28606  Biso   1.000  C
  N173     1.0000 0.86443  0.80208  0.06826  Biso   1.000  N
  N174     1.0000 0.86451  0.80208  0.06826  Biso   1.000  N
  H233     1.0000 0.92281  0.73808  0.18819  Biso   1.000  H
  H234     1.0000 0.98106  0.73901  0.09289  Biso   1.000  H
  H235     1.0000 0.98114  0.73901  0.09289  Biso   1.000  H
  H236     1.0000 0.92281  0.73813  0.18819  Biso   1.000  H
  C259     1.0000 0.85003  0.80281  0.95422  Biso   1.000  C
  C260     1.0000 0.69904  0.84451  0.99702  Biso   1.000  C
  C261     1.0000 0.85001  0.80281  0.95414  Biso   1.000  C
  C262     1.0000 0.85011  0.80281  0.95422  Biso   1.000  C
  C263     1.0000 0.69911  0.84451  0.99702  Biso   1.000  C
  H237     1.0000 0.58627  0.98770  0.98292  Biso   1.000  H
  H238     1.0000 0.54976  0.92659  0.90761  Biso   1.000  H
  H239     1.0000 0.58620  0.98770  0.98292  Biso   1.000  H
  N175     1.0000 0.68285  0.91312  0.01452  Biso   1.000  N
  N176     1.0000 0.68293  0.91312  0.01452  Biso   1.000  N
  N177     1.0000 0.78721  0.88156  0.17069  Biso   1.000  N
  H240     1.0000 0.82891  0.84442  0.32289  Biso   1.000  H
  H241     1.0000 0.81508  0.92081  0.32156  Biso   1.000  H
  H242     1.0000 0.81516  0.92081  0.32156  Biso   1.000  H
  C264     1.0000 0.77309  0.82241  0.10699  Biso   1.000  C
  C265     1.0000 0.77316  0.82241  0.10699  Biso   1.000  C
  O93      1.0000 0.90893  0.78228  0.90313  Biso   1.000  O
  O94      1.0000 0.90892  0.78228  0.90305  Biso   1.000  O
  O95      1.0000 0.90901  0.78228  0.90313  Biso   1.000  O
  H243     1.0000 0.63484  0.81972  0.98159  Biso   1.000  H
  C266     1.0000 0.73504  0.93292  0.11869  Biso   1.000  C
  C267     1.0000 0.73511  0.93292  0.11869  Biso   1.000  C
  H244     1.0000 0.74489  0.78679  0.14374  Biso   1.000  H
  H245     1.0000 0.74495  0.78679  0.14365  Biso   1.000  H
  H246     1.0000 0.74487  0.78679  0.14365  Biso   1.000  H
  O96      1.0000 0.72970  0.98819  0.15626  Biso   1.000  O
  O97      1.0000 0.27039  0.01186  0.84366  Biso   1.000  O
  C268     1.0000 0.26500  0.06708  0.88132  Biso   1.000  C
  C269     1.0000 0.26492  0.06708  0.88132  Biso   1.000  C
  C270     1.0000 0.26500  0.06713  0.88132  Biso   1.000  C
  C271     1.0000 0.26492  0.06713  0.88132  Biso   1.000  C
  N178     1.0000 0.21282  0.11844  0.82931  Biso   1.000  N
  N179     1.0000 0.21289  0.11844  0.82931  Biso   1.000  N
  N180     1.0000 0.31718  0.08688  0.98549  Biso   1.000  N
  O98      1.0000 0.27033  0.01181  0.84374  Biso   1.000  O
  O99      1.0000 0.27031  0.01181  0.84366  Biso   1.000  O
  N181     1.0000 0.31718  0.08693  0.98549  Biso   1.000  N
  O100     1.0000 0.27033  0.01186  0.84374  Biso   1.000  O
  O101     1.0000 0.27031  0.01186  0.84366  Biso   1.000  O
  N182     1.0000 0.31711  0.08688  0.98549  Biso   1.000  N
  O102     1.0000 0.27039  0.01181  0.84366  Biso   1.000  O
  N183     1.0000 0.31711  0.08693  0.98549  Biso   1.000  N
  C272     1.0000 0.15862  0.11550  0.71386  Biso   1.000  C
  C273     1.0000 0.15864  0.11550  0.71394  Biso   1.000  C
  C274     1.0000 0.22695  0.17759  0.89301  Biso   1.000  C
  C275     1.0000 0.22695  0.17764  0.89301  Biso   1.000  C
  C276     1.0000 0.30100  0.15549  0.00299  Biso   1.000  C
  C277     1.0000 0.30100  0.15553  0.00299  Biso   1.000  C
  C278     1.0000 0.39122  0.04670  0.05964  Biso   1.000  C
  C279     1.0000 0.39120  0.04670  0.05955  Biso   1.000  C
  N184     1.0000 0.04864  0.10722  0.70092  Biso   1.000  N
  H247     1.0000 0.18493  0.07919  0.67836  Biso   1.000  H
  H248     1.0000 0.17113  0.15558  0.67712  Biso   1.000  H
  H249     1.0000 0.18495  0.07919  0.67845  Biso   1.000  H
  H250     1.0000 0.17113  0.15563  0.67712  Biso   1.000  H
  H251     1.0000 0.18488  0.07919  0.67845  Biso   1.000  H
  H252     1.0000 0.17120  0.15558  0.67712  Biso   1.000  H
  H253     1.0000 0.17120  0.15563  0.67712  Biso   1.000  H
  H254     1.0000 0.25514  0.21321  0.85627  Biso   1.000  H
  N185     1.0000 0.13560  0.19792  0.93174  Biso   1.000  N
  N186     1.0000 0.13551  0.19792  0.93166  Biso   1.000  N
  H255     1.0000 0.25507  0.21321  0.85627  Biso   1.000  H
  N187     1.0000 0.13552  0.19792  0.93174  Biso   1.000  N
  N188     1.0000 0.13558  0.19792  0.93166  Biso   1.000  N
  H256     1.0000 0.36519  0.18028  0.01841  Biso   1.000  H
  N189     1.0000 0.24267  0.16730  0.08568  Biso   1.000  N
  H257     1.0000 0.36519  0.18033  0.01841  Biso   1.000  H
  N190     1.0000 0.24274  0.16730  0.08568  Biso   1.000  N
  H258     1.0000 0.41376  0.01230  0.01709  Biso   1.000  H
  H259     1.0000 0.45028  0.07341  0.09240  Biso   1.000  H
  N191     1.0000 0.35250  0.01740  0.14697  Biso   1.000  N
  H260     1.0000 0.41384  0.01230  0.01709  Biso   1.000  H
  H261     1.0000 0.45035  0.07341  0.09240  Biso   1.000  H
  C280     1.0000 0.98031  0.16240  0.69114  Biso   1.000  C
  C281     1.0000 0.98030  0.16240  0.69105  Biso   1.000  C
  C282     1.0000 0.98039  0.16240  0.69114  Biso   1.000  C
  C283     1.0000 0.98037  0.16240  0.69105  Biso   1.000  C
  C284     1.0000 0.00165  0.04988  0.66451  Biso   1.000  C
  C285     1.0000 0.00165  0.04993  0.66451  Biso   1.000  C
  C286     1.0000 0.00157  0.04988  0.66451  Biso   1.000  C
  C287     1.0000 0.00157  0.04993  0.66451  Biso   1.000  C
  C288     1.0000 0.05061  0.23350  0.86091  Biso   1.000  C
  C289     1.0000 0.05068  0.23350  0.86091  Biso   1.000  C
  C290     1.0000 0.15000  0.19719  0.04578  Biso   1.000  C
  C291     1.0000 0.28383  0.16298  0.20577  Biso   1.000  C
  C292     1.0000 0.28375  0.16298  0.20577  Biso   1.000  C
  C293     1.0000 0.28383  0.16303  0.20577  Biso   1.000  C
  C294     1.0000 0.28375  0.16303  0.20577  Biso   1.000  C
  C295     1.0000 0.32380  0.95359  0.14191  Biso   1.000  C
  C296     1.0000 0.35552  0.04748  0.25487  Biso   1.000  C
  C297     1.0000 0.35545  0.04748  0.25487  Biso   1.000  C
  C298     1.0000 0.35552  0.04753  0.25487  Biso   1.000  C
  C299     1.0000 0.35545  0.04753  0.25487  Biso   1.000  C
  C300     1.0000 0.87323  0.12991  0.64718  Biso   1.000  C
  H262     1.0000 0.99468  0.19508  0.63905  Biso   1.000  H
  N192     1.0000 0.97443  0.19189  0.79572  Biso   1.000  N
  H263     1.0000 0.99458  0.19508  0.63897  Biso   1.000  H
  H264     1.0000 0.99468  0.19513  0.63905  Biso   1.000  H
  H265     1.0000 0.99458  0.19513  0.63897  Biso   1.000  H
  N193     1.0000 0.97451  0.19189  0.79572  Biso   1.000  N
  H266     1.0000 0.99466  0.19508  0.63897  Biso   1.000  H
  H267     1.0000 0.99466  0.19513  0.63897  Biso   1.000  H
  N194     1.0000 0.89776  0.06160  0.63523  Biso   1.000  N
  N195     1.0000 0.89775  0.06160  0.63515  Biso   1.000  N
  O103     1.0000 0.04204  0.99784  0.65912  Biso   1.000  O
  O104     1.0000 0.04197  0.99784  0.65912  Biso   1.000  O
  H268     1.0000 0.07722  0.26192  0.81181  Biso   1.000  H
  H269     1.0000 0.01897  0.26099  0.90711  Biso   1.000  H
  H270     1.0000 0.01890  0.26099  0.90711  Biso   1.000  H
  H271     1.0000 0.07730  0.26192  0.81181  Biso   1.000  H
  O105     1.0000 0.09110  0.21772  0.09688  Biso   1.000  O
  H272     1.0000 0.35429  0.17768  0.22369  Biso   1.000  H
  H273     1.0000 0.24507  0.19199  0.24252  Biso   1.000  H
  N196     1.0000 0.27947  0.09801  0.24749  Biso   1.000  N
  H274     1.0000 0.24505  0.19199  0.24243  Biso   1.000  H
  H275     1.0000 0.35429  0.17773  0.22369  Biso   1.000  H
  H276     1.0000 0.24514  0.19199  0.24252  Biso   1.000  H
  N197     1.0000 0.27954  0.09801  0.24749  Biso   1.000  N
  H277     1.0000 0.24512  0.19199  0.24243  Biso   1.000  H
  N198     1.0000 0.30204  0.93772  0.24152  Biso   1.000  N
  O106     1.0000 0.31813  0.91679  0.06411  Biso   1.000  O
  N199     1.0000 0.30195  0.93772  0.24144  Biso   1.000  N
  O107     1.0000 0.31805  0.91679  0.06411  Biso   1.000  O
  N200     1.0000 0.30204  0.93777  0.24152  Biso   1.000  N
  N201     1.0000 0.30195  0.93777  0.24144  Biso   1.000  N
  N202     1.0000 0.30202  0.93772  0.24144  Biso   1.000  N
  N203     1.0000 0.30202  0.93777  0.24144  Biso   1.000  N
  C301     1.0000 0.32280  0.99211  0.31791  Biso   1.000  C
  H278     1.0000 0.42419  0.06331  0.29079  Biso   1.000  H
  H279     1.0000 0.42427  0.06331  0.29079  Biso   1.000  H
  H280     1.0000 0.83517  0.14931  0.57742  Biso   1.000  H
  N204     1.0000 0.82442  0.14201  0.73874  Biso   1.000  N
  H281     1.0000 0.83510  0.14931  0.57742  Biso   1.000  H
  N205     1.0000 0.82440  0.14201  0.73866  Biso   1.000  N
  N206     1.0000 0.82450  0.14201  0.73874  Biso   1.000  N
  N207     1.0000 0.82448  0.14201  0.73866  Biso   1.000  N
  C302     1.0000 0.88321  0.17719  0.82069  Biso   1.000  C
  C303     1.0000 0.88328  0.17719  0.82069  Biso   1.000  C
  C304     1.0000 0.82396  0.01318  0.58058  Biso   1.000  C
  C305     1.0000 0.82389  0.01318  0.58058  Biso   1.000  C
  C306     1.0000 0.82396  0.01323  0.58058  Biso   1.000  C
  C307     1.0000 0.82389  0.01323  0.58058  Biso   1.000  C
  C308     1.0000 0.21003  0.08090  0.30821  Biso   1.000  C
  C309     1.0000 0.20995  0.08090  0.30821  Biso   1.000  C
  C310     1.0000 0.28286  0.87068  0.26848  Biso   1.000  C
  C311     1.0000 0.28286  0.87073  0.26848  Biso   1.000  C
  C312     1.0000 0.28293  0.87068  0.26848  Biso   1.000  C
  C313     1.0000 0.28293  0.87073  0.26848  Biso   1.000  C
  N208     1.0000 0.23108  0.01847  0.34710  Biso   1.000  N
  N209     1.0000 0.23116  0.01847  0.34710  Biso   1.000  N
  H282     1.0000 0.37593  0.98099  0.38418  Biso   1.000  H
  H283     1.0000 0.37586  0.98099  0.38418  Biso   1.000  H
  C314     1.0000 0.71717  0.12932  0.73153  Biso   1.000  C
  C315     1.0000 0.71708  0.12932  0.73144  Biso   1.000  C
  C316     1.0000 0.71715  0.12932  0.73144  Biso   1.000  C
  O108     1.0000 0.85968  0.19503  0.90744  Biso   1.000  O
  O109     1.0000 0.85958  0.19503  0.90736  Biso   1.000  O
  O110     1.0000 0.85968  0.19508  0.90744  Biso   1.000  O
  O111     1.0000 0.85958  0.19508  0.90736  Biso   1.000  O
  O112     1.0000 0.85966  0.19503  0.90736  Biso   1.000  O
  O113     1.0000 0.85966  0.19508  0.90736  Biso   1.000  O
  H284     1.0000 0.85931  0.98001  0.54798  Biso   1.000  H
  N210     1.0000 0.76895  0.98153  0.65290  Biso   1.000  N
  H285     1.0000 0.85939  0.98001  0.54798  Biso   1.000  H
  H286     1.0000 0.77490  0.03430  0.52069  Biso   1.000  H
  H287     1.0000 0.77498  0.03430  0.52069  Biso   1.000  H
  O114     1.0000 0.14088  0.11560  0.32396  Biso   1.000  O
  H288     1.0000 0.32178  0.86108  0.34321  Biso   1.000  H
  H289     1.0000 0.30682  0.84157  0.21813  Biso   1.000  H
  N211     1.0000 0.17561  0.85799  0.26126  Biso   1.000  N
  H290     1.0000 0.30681  0.84157  0.21805  Biso   1.000  H
  N212     1.0000 0.17554  0.85799  0.26126  Biso   1.000  N
  H291     1.0000 0.32178  0.86113  0.34321  Biso   1.000  H
  H292     1.0000 0.30682  0.84162  0.21813  Biso   1.000  H
  H293     1.0000 0.30681  0.84162  0.21805  Biso   1.000  H
  H294     1.0000 0.32185  0.86108  0.34321  Biso   1.000  H
  H295     1.0000 0.32185  0.86113  0.34321  Biso   1.000  H
  C317     1.0000 0.17607  0.98682  0.41943  Biso   1.000  C
  C318     1.0000 0.17605  0.98682  0.41934  Biso   1.000  C
  C319     1.0000 0.17614  0.98682  0.41943  Biso   1.000  C
  C320     1.0000 0.17613  0.98682  0.41934  Biso   1.000  C
  H296     1.0000 0.67826  0.13892  0.65680  Biso   1.000  H
  H297     1.0000 0.69321  0.15843  0.78187  Biso   1.000  H
  N213     1.0000 0.69799  0.06228  0.75848  Biso   1.000  N
  H298     1.0000 0.67818  0.13892  0.65680  Biso   1.000  H
  H299     1.0000 0.69328  0.15843  0.78187  Biso   1.000  H
  N214     1.0000 0.69807  0.06228  0.75848  Biso   1.000  N
  C321     1.0000 0.79001  0.91910  0.69180  Biso   1.000  C
  C322     1.0000 0.79008  0.91910  0.69180  Biso   1.000  C
  C323     1.0000 0.67723  0.00789  0.68209  Biso   1.000  C
  C324     1.0000 0.12681  0.87009  0.35283  Biso   1.000  C
  C325     1.0000 0.11683  0.82281  0.17932  Biso   1.000  C
  C326     1.0000 0.12679  0.87009  0.35274  Biso   1.000  C
  C327     1.0000 0.11673  0.82281  0.17923  Biso   1.000  C
  C328     1.0000 0.11681  0.82281  0.17923  Biso   1.000  C
  H300     1.0000 0.22513  0.96570  0.47931  Biso   1.000  H
  N215     1.0000 0.10227  0.93840  0.36477  Biso   1.000  N
  H301     1.0000 0.22504  0.96570  0.47923  Biso   1.000  H
  N216     1.0000 0.10234  0.93840  0.36477  Biso   1.000  N
  H302     1.0000 0.22511  0.96570  0.47923  Biso   1.000  H
  H303     1.0000 0.14072  0.01999  0.45202  Biso   1.000  H
  H304     1.0000 0.14070  0.01999  0.45194  Biso   1.000  H
  C329     1.0000 0.67623  0.04641  0.85809  Biso   1.000  C
  N217     1.0000 0.72056  0.90199  0.75251  Biso   1.000  N
  O115     1.0000 0.85915  0.88440  0.67604  Biso   1.000  O
  N218     1.0000 0.72049  0.90199  0.75251  Biso   1.000  N
  O116     1.0000 0.85913  0.88440  0.67596  Biso   1.000  O
  C330     1.0000 0.64451  0.95252  0.74513  Biso   1.000  C
  C331     1.0000 0.64449  0.95252  0.74505  Biso   1.000  C
  C332     1.0000 0.64459  0.95252  0.74513  Biso   1.000  C
  C333     1.0000 0.64457  0.95252  0.74505  Biso   1.000  C
  H305     1.0000 0.62410  0.01901  0.61583  Biso   1.000  H
  H306     1.0000 0.62417  0.01901  0.61583  Biso   1.000  H
  H307     1.0000 0.16486  0.85069  0.42258  Biso   1.000  H
  C334     1.0000 0.01972  0.83760  0.30887  Biso   1.000  C
  C335     1.0000 0.01964  0.83760  0.30887  Biso   1.000  C
  H308     1.0000 0.16493  0.85069  0.42258  Biso   1.000  H
  N219     1.0000 0.02560  0.80811  0.20428  Biso   1.000  N
  O117     1.0000 0.14036  0.80497  0.09256  Biso   1.000  O
  O118     1.0000 0.14043  0.80497  0.09256  Biso   1.000  O
  C336     1.0000 0.99839  0.95012  0.33549  Biso   1.000  C
  C337     1.0000 0.99846  0.95012  0.33549  Biso   1.000  C
  N220     1.0000 0.64754  0.98260  0.85303  Biso   1.000  N
  N221     1.0000 0.64752  0.98260  0.85295  Biso   1.000  N
  N222     1.0000 0.64754  0.98265  0.85303  Biso   1.000  N
  N223     1.0000 0.64752  0.98265  0.85295  Biso   1.000  N
  N224     1.0000 0.64761  0.98260  0.85303  Biso   1.000  N
  N225     1.0000 0.64761  0.98265  0.85303  Biso   1.000  N
  O119     1.0000 0.68190  0.08321  0.93589  Biso   1.000  O
  O120     1.0000 0.68190  0.08326  0.93589  Biso   1.000  O
  O121     1.0000 0.68198  0.08321  0.93589  Biso   1.000  O
  O122     1.0000 0.68198  0.08326  0.93589  Biso   1.000  O
  C338     1.0000 0.71621  0.83702  0.79423  Biso   1.000  C
  C339     1.0000 0.71619  0.83702  0.79415  Biso   1.000  C
  C340     1.0000 0.71628  0.83702  0.79423  Biso   1.000  C
  C341     1.0000 0.71626  0.83702  0.79415  Biso   1.000  C
  H309     1.0000 0.57584  0.93669  0.70922  Biso   1.000  H
  N226     1.0000 0.95140  0.89278  0.29908  Biso   1.000  N
  N227     1.0000 0.95147  0.89278  0.29908  Biso   1.000  N
  N228     1.0000 0.95140  0.89283  0.29908  Biso   1.000  N
  N229     1.0000 0.95147  0.89283  0.29908  Biso   1.000  N
  H310     1.0000 0.00536  0.80492  0.36095  Biso   1.000  H
  H311     1.0000 0.00543  0.80492  0.36095  Biso   1.000  H
  C342     1.0000 0.94935  0.76650  0.13909  Biso   1.000  C
  C343     1.0000 0.94942  0.76650  0.13909  Biso   1.000  C
  O123     1.0000 0.95799  0.00216  0.34088  Biso   1.000  O
  O124     1.0000 0.95807  0.00216  0.34088  Biso   1.000  O
  C344     1.0000 0.60881  0.95330  0.94037  Biso   1.000  C
  C345     1.0000 0.60889  0.95330  0.94037  Biso   1.000  C
  H312     1.0000 0.64574  0.82232  0.77631  Biso   1.000  H
  H313     1.0000 0.75496  0.80801  0.75749  Biso   1.000  H
  N230     1.0000 0.75736  0.83270  0.91433  Biso   1.000  N
  H314     1.0000 0.75489  0.80801  0.75749  Biso   1.000  H
  N231     1.0000 0.75735  0.83270  0.91424  Biso   1.000  N
  C346     1.0000 0.84139  0.88450  0.28606  Biso   1.000  C
  C347     1.0000 0.84147  0.88450  0.28606  Biso   1.000  C
  N232     1.0000 0.86443  0.80208  0.06826  Biso   1.000  N
  N233     1.0000 0.86451  0.80208  0.06826  Biso   1.000  N
  H315     1.0000 0.92281  0.73808  0.18819  Biso   1.000  H
  H316     1.0000 0.98106  0.73901  0.09289  Biso   1.000  H
  H317     1.0000 0.98114  0.73901  0.09289  Biso   1.000  H
  H318     1.0000 0.92281  0.73813  0.18819  Biso   1.000  H
  H319     1.0000 0.58627  0.98770  0.98292  Biso   1.000  H
  H320     1.0000 0.54976  0.92659  0.90761  Biso   1.000  H
  H321     1.0000 0.58620  0.98770  0.98292  Biso   1.000  H
  N234     1.0000 0.68285  0.91312  0.01452  Biso   1.000  N
  N235     1.0000 0.68293  0.91312  0.01452  Biso   1.000  N
  C348     1.0000 0.85003  0.80281  0.95422  Biso   1.000  C
  C349     1.0000 0.69904  0.84451  0.99702  Biso   1.000  C
  C350     1.0000 0.85001  0.80281  0.95414  Biso   1.000  C
  C351     1.0000 0.85011  0.80281  0.95422  Biso   1.000  C
  C352     1.0000 0.69911  0.84451  0.99702  Biso   1.000  C
  N236     1.0000 0.78721  0.88156  0.17069  Biso   1.000  N
  H322     1.0000 0.82891  0.84442  0.32289  Biso   1.000  H
  H323     1.0000 0.81508  0.92081  0.32156  Biso   1.000  H
  H324     1.0000 0.81516  0.92081  0.32156  Biso   1.000  H
  C353     1.0000 0.77309  0.82241  0.10699  Biso   1.000  C
  C354     1.0000 0.77316  0.82241  0.10699  Biso   1.000  C
  C355     1.0000 0.73504  0.93292  0.11869  Biso   1.000  C
  C356     1.0000 0.73511  0.93292  0.11869  Biso   1.000  C
  O125     1.0000 0.90893  0.78228  0.90313  Biso   1.000  O
  O126     1.0000 0.90892  0.78228  0.90305  Biso   1.000  O
  O127     1.0000 0.90901  0.78228  0.90313  Biso   1.000  O
  H325     1.0000 0.63484  0.81972  0.98159  Biso   1.000  H
  H326     1.0000 0.74489  0.78679  0.14374  Biso   1.000  H
  H327     1.0000 0.74495  0.78679  0.14365  Biso   1.000  H
  H328     1.0000 0.74487  0.78679  0.14365  Biso   1.000  H
  O128     1.0000 0.72970  0.98819  0.15626  Biso   1.000  O
  O129     1.0000 0.27039  0.01186  0.84366  Biso   1.000  O
  C357     1.0000 0.26500  0.06708  0.88132  Biso   1.000  C
  C358     1.0000 0.26492  0.06708  0.88132  Biso   1.000  C
  C359     1.0000 0.26500  0.06713  0.88132  Biso   1.000  C
  C360     1.0000 0.26492  0.06713  0.88132  Biso   1.000  C
  N237     1.0000 0.21282  0.11844  0.82931  Biso   1.000  N
  N238     1.0000 0.21289  0.11844  0.82931  Biso   1.000  N
  N239     1.0000 0.31718  0.08688  0.98549  Biso   1.000  N
  O130     1.0000 0.27033  0.01181  0.84374  Biso   1.000  O
  O131     1.0000 0.27031  0.01181  0.84366  Biso   1.000  O
  N240     1.0000 0.31718  0.08693  0.98549  Biso   1.000  N
  O132     1.0000 0.27033  0.01186  0.84374  Biso   1.000  O
  O133     1.0000 0.27031  0.01186  0.84366  Biso   1.000  O
  N241     1.0000 0.31711  0.08688  0.98549  Biso   1.000  N
  O134     1.0000 0.27039  0.01181  0.84366  Biso   1.000  O
  N242     1.0000 0.31711  0.08693  0.98549  Biso   1.000  N
  C361     1.0000 0.15864  0.11550  0.71394  Biso   1.000  C
  C362     1.0000 0.15862  0.11550  0.71386  Biso   1.000  C
  C363     1.0000 0.22695  0.17759  0.89301  Biso   1.000  C
  C364     1.0000 0.22695  0.17764  0.89301  Biso   1.000  C
  C365     1.0000 0.30100  0.15549  0.00299  Biso   1.000  C
  C366     1.0000 0.30100  0.15553  0.00299  Biso   1.000  C
  C367     1.0000 0.39122  0.04670  0.05964  Biso   1.000  C
  C368     1.0000 0.39120  0.04670  0.05955  Biso   1.000  C
  N243     1.0000 0.04864  0.10722  0.70092  Biso   1.000  N
  H329     1.0000 0.17113  0.15558  0.67712  Biso   1.000  H
  H330     1.0000 0.18495  0.07919  0.67845  Biso   1.000  H
  H331     1.0000 0.18493  0.07919  0.67836  Biso   1.000  H
  H332     1.0000 0.17113  0.15563  0.67712  Biso   1.000  H
  H333     1.0000 0.18488  0.07919  0.67845  Biso   1.000  H
  H334     1.0000 0.17120  0.15558  0.67712  Biso   1.000  H
  H335     1.0000 0.17120  0.15563  0.67712  Biso   1.000  H
  N244     1.0000 0.13560  0.19792  0.93174  Biso   1.000  N
  N245     1.0000 0.13551  0.19792  0.93166  Biso   1.000  N
  N246     1.0000 0.13552  0.19792  0.93174  Biso   1.000  N
  N247     1.0000 0.13558  0.19792  0.93166  Biso   1.000  N
  H336     1.0000 0.25514  0.21321  0.85627  Biso   1.000  H
  H337     1.0000 0.25507  0.21321  0.85627  Biso   1.000  H
  H338     1.0000 0.36519  0.18028  0.01841  Biso   1.000  H
  N248     1.0000 0.24267  0.16730  0.08568  Biso   1.000  N
  H339     1.0000 0.36519  0.18033  0.01841  Biso   1.000  H
  N249     1.0000 0.24274  0.16730  0.08568  Biso   1.000  N
  H340     1.0000 0.41376  0.01230  0.01709  Biso   1.000  H
  H341     1.0000 0.45028  0.07341  0.09240  Biso   1.000  H
  N250     1.0000 0.35250  0.01740  0.14697  Biso   1.000  N
  H342     1.0000 0.41384  0.01230  0.01709  Biso   1.000  H
  H343     1.0000 0.45035  0.07341  0.09240  Biso   1.000  H
  C369     1.0000 0.98031  0.16240  0.69114  Biso   1.000  C
  C370     1.0000 0.98030  0.16240  0.69105  Biso   1.000  C
  C371     1.0000 0.98039  0.16240  0.69114  Biso   1.000  C
  C372     1.0000 0.98037  0.16240  0.69105  Biso   1.000  C
  C373     1.0000 0.00165  0.04988  0.66451  Biso   1.000  C
  C374     1.0000 0.00165  0.04993  0.66451  Biso   1.000  C
  C375     1.0000 0.00157  0.04988  0.66451  Biso   1.000  C
  C376     1.0000 0.00157  0.04993  0.66451  Biso   1.000  C
  C377     1.0000 0.05068  0.23350  0.86091  Biso   1.000  C
  C378     1.0000 0.05061  0.23350  0.86091  Biso   1.000  C
  C379     1.0000 0.15000  0.19719  0.04578  Biso   1.000  C
  C380     1.0000 0.28383  0.16298  0.20577  Biso   1.000  C
  C381     1.0000 0.28375  0.16298  0.20577  Biso   1.000  C
  C382     1.0000 0.28383  0.16303  0.20577  Biso   1.000  C
  C383     1.0000 0.28375  0.16303  0.20577  Biso   1.000  C
  C384     1.0000 0.32380  0.95359  0.14191  Biso   1.000  C
  C385     1.0000 0.35552  0.04748  0.25487  Biso   1.000  C
  C386     1.0000 0.35545  0.04748  0.25487  Biso   1.000  C
  C387     1.0000 0.35552  0.04753  0.25487  Biso   1.000  C
  C388     1.0000 0.35545  0.04753  0.25487  Biso   1.000  C
  C389     1.0000 0.87323  0.12991  0.64718  Biso   1.000  C
  H344     1.0000 0.99468  0.19508  0.63905  Biso   1.000  H
  N251     1.0000 0.97443  0.19189  0.79572  Biso   1.000  N
  H345     1.0000 0.99458  0.19508  0.63897  Biso   1.000  H
  H346     1.0000 0.99468  0.19513  0.63905  Biso   1.000  H
  H347     1.0000 0.99458  0.19513  0.63897  Biso   1.000  H
  N252     1.0000 0.97451  0.19189  0.79572  Biso   1.000  N
  H348     1.0000 0.99466  0.19508  0.63897  Biso   1.000  H
  H349     1.0000 0.99466  0.19513  0.63897  Biso   1.000  H
  N253     1.0000 0.89776  0.06160  0.63523  Biso   1.000  N
  N254     1.0000 0.89775  0.06160  0.63515  Biso   1.000  N
  O135     1.0000 0.04204  0.99784  0.65912  Biso   1.000  O
  O136     1.0000 0.04197  0.99784  0.65912  Biso   1.000  O
  H350     1.0000 0.07722  0.26192  0.81181  Biso   1.000  H
  H351     1.0000 0.01897  0.26099  0.90711  Biso   1.000  H
  H352     1.0000 0.01890  0.26099  0.90711  Biso   1.000  H
  H353     1.0000 0.07730  0.26192  0.81181  Biso   1.000  H
  O137     1.0000 0.09110  0.21772  0.09688  Biso   1.000  O
  H354     1.0000 0.35429  0.17768  0.22369  Biso   1.000  H
  H355     1.0000 0.24507  0.19199  0.24252  Biso   1.000  H
  N255     1.0000 0.27947  0.09801  0.24749  Biso   1.000  N
  H356     1.0000 0.24505  0.19199  0.24243  Biso   1.000  H
  H357     1.0000 0.35429  0.17773  0.22369  Biso   1.000  H
  H358     1.0000 0.24514  0.19199  0.24252  Biso   1.000  H
  N256     1.0000 0.27954  0.09801  0.24749  Biso   1.000  N
  H359     1.0000 0.24512  0.19199  0.24243  Biso   1.000  H
  N257     1.0000 0.30204  0.93772  0.24152  Biso   1.000  N
  O138     1.0000 0.31813  0.91679  0.06411  Biso   1.000  O
  N258     1.0000 0.30195  0.93772  0.24144  Biso   1.000  N
  O139     1.0000 0.31805  0.91679  0.06411  Biso   1.000  O
  N259     1.0000 0.30204  0.93777  0.24152  Biso   1.000  N
  N260     1.0000 0.30195  0.93777  0.24144  Biso   1.000  N
  N261     1.0000 0.30202  0.93772  0.24144  Biso   1.000  N
  N262     1.0000 0.30202  0.93777  0.24144  Biso   1.000  N
  C390     1.0000 0.32280  0.99211  0.31791  Biso   1.000  C
  H360     1.0000 0.42419  0.06331  0.29079  Biso   1.000  H
  H361     1.0000 0.42427  0.06331  0.29079  Biso   1.000  H
  H362     1.0000 0.83517  0.14931  0.57742  Biso   1.000  H
  N263     1.0000 0.82442  0.14201  0.73874  Biso   1.000  N
  H363     1.0000 0.83510  0.14931  0.57742  Biso   1.000  H
  N264     1.0000 0.82440  0.14201  0.73866  Biso   1.000  N
  N265     1.0000 0.82450  0.14201  0.73874  Biso   1.000  N
  N266     1.0000 0.82448  0.14201  0.73866  Biso   1.000  N
  C391     1.0000 0.88321  0.17719  0.82069  Biso   1.000  C
  C392     1.0000 0.88328  0.17719  0.82069  Biso   1.000  C
  C393     1.0000 0.82396  0.01318  0.58058  Biso   1.000  C
  C394     1.0000 0.82389  0.01318  0.58058  Biso   1.000  C
  C395     1.0000 0.82396  0.01323  0.58058  Biso   1.000  C
  C396     1.0000 0.82389  0.01323  0.58058  Biso   1.000  C
  C397     1.0000 0.21003  0.08090  0.30821  Biso   1.000  C
  C398     1.0000 0.20995  0.08090  0.30821  Biso   1.000  C
  C399     1.0000 0.28286  0.87068  0.26848  Biso   1.000  C
  C400     1.0000 0.28286  0.87073  0.26848  Biso   1.000  C
  C401     1.0000 0.28293  0.87068  0.26848  Biso   1.000  C
  C402     1.0000 0.28293  0.87073  0.26848  Biso   1.000  C
  N267     1.0000 0.23108  0.01847  0.34710  Biso   1.000  N
  N268     1.0000 0.23116  0.01847  0.34710  Biso   1.000  N
  H364     1.0000 0.37593  0.98099  0.38418  Biso   1.000  H
  H365     1.0000 0.37586  0.98099  0.38418  Biso   1.000  H
  C403     1.0000 0.71717  0.12932  0.73153  Biso   1.000  C
  C404     1.0000 0.71708  0.12932  0.73144  Biso   1.000  C
  C405     1.0000 0.71715  0.12932  0.73144  Biso   1.000  C
  O140     1.0000 0.85968  0.19503  0.90744  Biso   1.000  O
  O141     1.0000 0.85958  0.19503  0.90736  Biso   1.000  O
  O142     1.0000 0.85968  0.19508  0.90744  Biso   1.000  O
  O143     1.0000 0.85958  0.19508  0.90736  Biso   1.000  O
  O144     1.0000 0.85966  0.19503  0.90736  Biso   1.000  O
  O145     1.0000 0.85966  0.19508  0.90736  Biso   1.000  O
  H366     1.0000 0.85931  0.98001  0.54798  Biso   1.000  H
  N269     1.0000 0.76895  0.98153  0.65290  Biso   1.000  N
  H367     1.0000 0.85939  0.98001  0.54798  Biso   1.000  H
  H368     1.0000 0.77490  0.03430  0.52069  Biso   1.000  H
  H369     1.0000 0.77498  0.03430  0.52069  Biso   1.000  H
  O146     1.0000 0.14088  0.11560  0.32396  Biso   1.000  O
  H370     1.0000 0.32178  0.86108  0.34321  Biso   1.000  H
  H371     1.0000 0.30682  0.84157  0.21813  Biso   1.000  H
  N270     1.0000 0.17561  0.85799  0.26126  Biso   1.000  N
  H372     1.0000 0.30681  0.84157  0.21805  Biso   1.000  H
  N271     1.0000 0.17554  0.85799  0.26126  Biso   1.000  N
  H373     1.0000 0.32178  0.86113  0.34321  Biso   1.000  H
  H374     1.0000 0.30682  0.84162  0.21813  Biso   1.000  H
  H375     1.0000 0.30681  0.84162  0.21805  Biso   1.000  H
  H376     1.0000 0.32185  0.86108  0.34321  Biso   1.000  H
  H377     1.0000 0.32185  0.86113  0.34321  Biso   1.000  H
  C406     1.0000 0.17607  0.98682  0.41943  Biso   1.000  C
  C407     1.0000 0.17605  0.98682  0.41934  Biso   1.000  C
  C408     1.0000 0.17614  0.98682  0.41943  Biso   1.000  C
  C409     1.0000 0.17613  0.98682  0.41934  Biso   1.000  C
  H378     1.0000 0.67826  0.13892  0.65680  Biso   1.000  H
  H379     1.0000 0.69321  0.15843  0.78187  Biso   1.000  H
  N272     1.0000 0.69799  0.06228  0.75848  Biso   1.000  N
  H380     1.0000 0.67818  0.13892  0.65680  Biso   1.000  H
  H381     1.0000 0.69328  0.15843  0.78187  Biso   1.000  H
  N273     1.0000 0.69807  0.06228  0.75848  Biso   1.000  N
  C410     1.0000 0.79001  0.91910  0.69180  Biso   1.000  C
  C411     1.0000 0.79008  0.91910  0.69180  Biso   1.000  C
  C412     1.0000 0.67723  0.00789  0.68209  Biso   1.000  C
  C413     1.0000 0.12681  0.87009  0.35283  Biso   1.000  C
  C414     1.0000 0.11683  0.82281  0.17932  Biso   1.000  C
  C415     1.0000 0.12679  0.87009  0.35274  Biso   1.000  C
  C416     1.0000 0.11673  0.82281  0.17923  Biso   1.000  C
  C417     1.0000 0.11681  0.82281  0.17923  Biso   1.000  C
  H382     1.0000 0.22513  0.96570  0.47931  Biso   1.000  H
  N274     1.0000 0.10227  0.93840  0.36477  Biso   1.000  N
  H383     1.0000 0.22504  0.96570  0.47923  Biso   1.000  H
  N275     1.0000 0.10234  0.93840  0.36477  Biso   1.000  N
  H384     1.0000 0.22511  0.96570  0.47923  Biso   1.000  H
  H385     1.0000 0.14072  0.01999  0.45202  Biso   1.000  H
  H386     1.0000 0.14070  0.01999  0.45194  Biso   1.000  H
  C418     1.0000 0.67623  0.04641  0.85809  Biso   1.000  C
  N276     1.0000 0.72056  0.90199  0.75251  Biso   1.000  N
  O147     1.0000 0.85915  0.88440  0.67604  Biso   1.000  O
  N277     1.0000 0.72049  0.90199  0.75251  Biso   1.000  N
  O148     1.0000 0.85913  0.88440  0.67596  Biso   1.000  O
  C419     1.0000 0.64451  0.95252  0.74513  Biso   1.000  C
  C420     1.0000 0.64449  0.95252  0.74505  Biso   1.000  C
  C421     1.0000 0.64459  0.95252  0.74513  Biso   1.000  C
  C422     1.0000 0.64457  0.95252  0.74505  Biso   1.000  C
  H387     1.0000 0.62410  0.01901  0.61583  Biso   1.000  H
  H388     1.0000 0.62417  0.01901  0.61583  Biso   1.000  H
  H389     1.0000 0.16486  0.85069  0.42258  Biso   1.000  H
  C423     1.0000 0.01972  0.83760  0.30887  Biso   1.000  C
  C424     1.0000 0.01964  0.83760  0.30887  Biso   1.000  C
  H390     1.0000 0.16493  0.85069  0.42258  Biso   1.000  H
  N278     1.0000 0.02560  0.80811  0.20428  Biso   1.000  N
  O149     1.0000 0.14036  0.80497  0.09256  Biso   1.000  O
  O150     1.0000 0.14043  0.80497  0.09256  Biso   1.000  O
  C425     1.0000 0.99839  0.95012  0.33549  Biso   1.000  C
  C426     1.0000 0.99846  0.95012  0.33549  Biso   1.000  C
  N279     1.0000 0.64754  0.98260  0.85303  Biso   1.000  N
  N280     1.0000 0.64752  0.98260  0.85295  Biso   1.000  N
  N281     1.0000 0.64754  0.98265  0.85303  Biso   1.000  N
  N282     1.0000 0.64752  0.98265  0.85295  Biso   1.000  N
  N283     1.0000 0.64761  0.98260  0.85303  Biso   1.000  N
  N284     1.0000 0.64761  0.98265  0.85303  Biso   1.000  N
  O151     1.0000 0.68190  0.08321  0.93589  Biso   1.000  O
  O152     1.0000 0.68190  0.08326  0.93589  Biso   1.000  O
  O153     1.0000 0.68198  0.08321  0.93589  Biso   1.000  O
  O154     1.0000 0.68198  0.08326  0.93589  Biso   1.000  O
  C427     1.0000 0.71621  0.83702  0.79423  Biso   1.000  C
  C428     1.0000 0.71619  0.83702  0.79415  Biso   1.000  C
  C429     1.0000 0.71628  0.83702  0.79423  Biso   1.000  C
  C430     1.0000 0.71626  0.83702  0.79415  Biso   1.000  C
  H391     1.0000 0.57584  0.93669  0.70922  Biso   1.000  H
  N285     1.0000 0.95140  0.89278  0.29908  Biso   1.000  N
  N286     1.0000 0.95147  0.89278  0.29908  Biso   1.000  N
  N287     1.0000 0.95140  0.89283  0.29908  Biso   1.000  N
  N288     1.0000 0.95147  0.89283  0.29908  Biso   1.000  N
  H392     1.0000 0.00536  0.80492  0.36095  Biso   1.000  H
  H393     1.0000 0.00543  0.80492  0.36095  Biso   1.000  H
  C431     1.0000 0.94935  0.76650  0.13909  Biso   1.000  C
  C432     1.0000 0.94942  0.76650  0.13909  Biso   1.000  C
  O155     1.0000 0.95799  0.00216  0.34088  Biso   1.000  O
  O156     1.0000 0.95807  0.00216  0.34088  Biso   1.000  O
  C433     1.0000 0.60881  0.95330  0.94037  Biso   1.000  C
  C434     1.0000 0.60889  0.95330  0.94037  Biso   1.000  C
  H394     1.0000 0.64574  0.82232  0.77631  Biso   1.000  H
  H395     1.0000 0.75496  0.80801  0.75749  Biso   1.000  H
  N289     1.0000 0.75736  0.83270  0.91433  Biso   1.000  N
  H396     1.0000 0.75489  0.80801  0.75749  Biso   1.000  H
  N290     1.0000 0.75735  0.83270  0.91424  Biso   1.000  N
  C435     1.0000 0.84139  0.88450  0.28606  Biso   1.000  C
  C436     1.0000 0.84147  0.88450  0.28606  Biso   1.000  C
  N291     1.0000 0.86443  0.80208  0.06826  Biso   1.000  N
  N292     1.0000 0.86451  0.80208  0.06826  Biso   1.000  N
  H397     1.0000 0.92281  0.73808  0.18819  Biso   1.000  H
  H398     1.0000 0.98106  0.73901  0.09289  Biso   1.000  H
  H399     1.0000 0.98114  0.73901  0.09289  Biso   1.000  H
  H400     1.0000 0.92281  0.73813  0.18819  Biso   1.000  H
  H401     1.0000 0.58627  0.98770  0.98292  Biso   1.000  H
  H402     1.0000 0.54976  0.92659  0.90761  Biso   1.000  H
  H403     1.0000 0.58620  0.98770  0.98292  Biso   1.000  H
  N293     1.0000 0.68285  0.91312  0.01452  Biso   1.000  N
  N294     1.0000 0.68293  0.91312  0.01452  Biso   1.000  N
  C437     1.0000 0.85003  0.80281  0.95422  Biso   1.000  C
  C438     1.0000 0.69904  0.84451  0.99702  Biso   1.000  C
  C439     1.0000 0.85001  0.80281  0.95414  Biso   1.000  C
  C440     1.0000 0.85011  0.80281  0.95422  Biso   1.000  C
  C441     1.0000 0.69911  0.84451  0.99702  Biso   1.000  C
  N295     1.0000 0.78721  0.88156  0.17069  Biso   1.000  N
  H404     1.0000 0.82891  0.84442  0.32289  Biso   1.000  H
  H405     1.0000 0.81508  0.92081  0.32156  Biso   1.000  H
  H406     1.0000 0.81516  0.92081  0.32156  Biso   1.000  H
  C442     1.0000 0.77309  0.82241  0.10699  Biso   1.000  C
  C443     1.0000 0.77316  0.82241  0.10699  Biso   1.000  C
  C444     1.0000 0.73504  0.93292  0.11869  Biso   1.000  C
  C445     1.0000 0.73511  0.93292  0.11869  Biso   1.000  C
  O157     1.0000 0.90893  0.78228  0.90313  Biso   1.000  O
  O158     1.0000 0.90892  0.78228  0.90305  Biso   1.000  O
  O159     1.0000 0.90901  0.78228  0.90313  Biso   1.000  O
  H407     1.0000 0.63484  0.81972  0.98159  Biso   1.000  H
  H408     1.0000 0.74489  0.78679  0.14374  Biso   1.000  H
  H409     1.0000 0.74495  0.78679  0.14365  Biso   1.000  H
  H410     1.0000 0.74487  0.78679  0.14365  Biso   1.000  H
  O160     1.0000 0.72970  0.98819  0.15626  Biso   1.000  O
  O161     1.0000 0.27039  0.01186  0.84366  Biso   1.000  O
  C446     1.0000 0.26500  0.06708  0.88132  Biso   1.000  C
  C447     1.0000 0.26492  0.06708  0.88132  Biso   1.000  C
  C448     1.0000 0.26500  0.06713  0.88132  Biso   1.000  C
  C449     1.0000 0.26492  0.06713  0.88132  Biso   1.000  C
  N296     1.0000 0.21282  0.11844  0.82931  Biso   1.000  N
  N297     1.0000 0.21289  0.11844  0.82931  Biso   1.000  N
  N298     1.0000 0.31718  0.08688  0.98549  Biso   1.000  N
  O162     1.0000 0.27033  0.01181  0.84374  Biso   1.000  O
  O163     1.0000 0.27031  0.01181  0.84366  Biso   1.000  O
  N299     1.0000 0.31718  0.08693  0.98549  Biso   1.000  N
  O164     1.0000 0.27033  0.01186  0.84374  Biso   1.000  O
  O165     1.0000 0.27031  0.01186  0.84366  Biso   1.000  O
  N300     1.0000 0.31711  0.08688  0.98549  Biso   1.000  N
  O166     1.0000 0.27039  0.01181  0.84366  Biso   1.000  O
  N301     1.0000 0.31711  0.08693  0.98549  Biso   1.000  N
  C450     1.0000 0.15864  0.11550  0.71394  Biso   1.000  C
  C451     1.0000 0.15862  0.11550  0.71386  Biso   1.000  C
  C452     1.0000 0.22695  0.17759  0.89301  Biso   1.000  C
  C453     1.0000 0.22695  0.17764  0.89301  Biso   1.000  C
  C454     1.0000 0.30100  0.15549  0.00299  Biso   1.000  C
  C455     1.0000 0.30100  0.15553  0.00299  Biso   1.000  C
  C456     1.0000 0.39122  0.04670  0.05964  Biso   1.000  C
  C457     1.0000 0.39120  0.04670  0.05955  Biso   1.000  C
  N302     1.0000 0.04864  0.10722  0.70092  Biso   1.000  N
  H411     1.0000 0.17113  0.15558  0.67712  Biso   1.000  H
  H412     1.0000 0.18495  0.07919  0.67845  Biso   1.000  H
  H413     1.0000 0.18493  0.07919  0.67836  Biso   1.000  H
  H414     1.0000 0.17113  0.15563  0.67712  Biso   1.000  H
  H415     1.0000 0.18488  0.07919  0.67845  Biso   1.000  H
  H416     1.0000 0.17120  0.15558  0.67712  Biso   1.000  H
  H417     1.0000 0.17120  0.15563  0.67712  Biso   1.000  H
  N303     1.0000 0.13560  0.19792  0.93174  Biso   1.000  N
  N304     1.0000 0.13551  0.19792  0.93166  Biso   1.000  N
  N305     1.0000 0.13552  0.19792  0.93174  Biso   1.000  N
  N306     1.0000 0.13558  0.19792  0.93166  Biso   1.000  N
  H418     1.0000 0.25514  0.21321  0.85627  Biso   1.000  H
  H419     1.0000 0.25507  0.21321  0.85627  Biso   1.000  H
  H420     1.0000 0.36519  0.18028  0.01841  Biso   1.000  H
  N307     1.0000 0.24267  0.16730  0.08568  Biso   1.000  N
  H421     1.0000 0.36519  0.18033  0.01841  Biso   1.000  H
  N308     1.0000 0.24274  0.16730  0.08568  Biso   1.000  N
  H422     1.0000 0.41376  0.01230  0.01709  Biso   1.000  H
  H423     1.0000 0.45028  0.07341  0.09240  Biso   1.000  H
  N309     1.0000 0.35250  0.01740  0.14697  Biso   1.000  N
  H424     1.0000 0.41384  0.01230  0.01709  Biso   1.000  H
  H425     1.0000 0.45035  0.07341  0.09240  Biso   1.000  H
  C458     1.0000 0.98031  0.16240  0.69114  Biso   1.000  C
  C459     1.0000 0.98030  0.16240  0.69105  Biso   1.000  C
  C460     1.0000 0.98039  0.16240  0.69114  Biso   1.000  C
  C461     1.0000 0.98037  0.16240  0.69105  Biso   1.000  C
  C462     1.0000 0.00165  0.04988  0.66451  Biso   1.000  C
  C463     1.0000 0.00165  0.04993  0.66451  Biso   1.000  C
  C464     1.0000 0.00157  0.04988  0.66451  Biso   1.000  C
  C465     1.0000 0.00157  0.04993  0.66451  Biso   1.000  C
  C466     1.0000 0.05068  0.23350  0.86091  Biso   1.000  C
  C467     1.0000 0.05061  0.23350  0.86091  Biso   1.000  C
  C468     1.0000 0.15000  0.19719  0.04578  Biso   1.000  C
  C469     1.0000 0.28383  0.16298  0.20577  Biso   1.000  C
  C470     1.0000 0.28375  0.16298  0.20577  Biso   1.000  C
  C471     1.0000 0.28383  0.16303  0.20577  Biso   1.000  C
  C472     1.0000 0.28375  0.16303  0.20577  Biso   1.000  C
  C473     1.0000 0.32380  0.95359  0.14191  Biso   1.000  C
  C474     1.0000 0.35552  0.04748  0.25487  Biso   1.000  C
  C475     1.0000 0.35545  0.04748  0.25487  Biso   1.000  C
  C476     1.0000 0.35552  0.04753  0.25487  Biso   1.000  C
  C477     1.0000 0.35545  0.04753  0.25487  Biso   1.000  C
  C478     1.0000 0.87323  0.12991  0.64718  Biso   1.000  C
  H426     1.0000 0.99468  0.19508  0.63905  Biso   1.000  H
  N310     1.0000 0.97443  0.19189  0.79572  Biso   1.000  N
  H427     1.0000 0.99458  0.19508  0.63897  Biso   1.000  H
  H428     1.0000 0.99468  0.19513  0.63905  Biso   1.000  H
  H429     1.0000 0.99458  0.19513  0.63897  Biso   1.000  H
  N311     1.0000 0.97451  0.19189  0.79572  Biso   1.000  N
  H430     1.0000 0.99466  0.19508  0.63897  Biso   1.000  H
  H431     1.0000 0.99466  0.19513  0.63897  Biso   1.000  H
  N312     1.0000 0.89776  0.06160  0.63523  Biso   1.000  N
  N313     1.0000 0.89775  0.06160  0.63515  Biso   1.000  N
  O167     1.0000 0.04204  0.99784  0.65912  Biso   1.000  O
  O168     1.0000 0.04197  0.99784  0.65912  Biso   1.000  O
  H432     1.0000 0.07722  0.26192  0.81181  Biso   1.000  H
  H433     1.0000 0.01897  0.26099  0.90711  Biso   1.000  H
  H434     1.0000 0.01890  0.26099  0.90711  Biso   1.000  H
  H435     1.0000 0.07730  0.26192  0.81181  Biso   1.000  H
  O169     1.0000 0.09110  0.21772  0.09688  Biso   1.000  O
  H436     1.0000 0.35429  0.17768  0.22369  Biso   1.000  H
  H437     1.0000 0.24507  0.19199  0.24252  Biso   1.000  H
  N314     1.0000 0.27947  0.09801  0.24749  Biso   1.000  N
  H438     1.0000 0.24505  0.19199  0.24243  Biso   1.000  H
  H439     1.0000 0.35429  0.17773  0.22369  Biso   1.000  H
  H440     1.0000 0.24514  0.19199  0.24252  Biso   1.000  H
  N315     1.0000 0.27954  0.09801  0.24749  Biso   1.000  N
  H441     1.0000 0.24512  0.19199  0.24243  Biso   1.000  H
  N316     1.0000 0.30204  0.93772  0.24152  Biso   1.000  N
  O170     1.0000 0.31813  0.91679  0.06411  Biso   1.000  O
  N317     1.0000 0.30195  0.93772  0.24144  Biso   1.000  N
  O171     1.0000 0.31805  0.91679  0.06411  Biso   1.000  O
  N318     1.0000 0.30204  0.93777  0.24152  Biso   1.000  N
  N319     1.0000 0.30195  0.93777  0.24144  Biso   1.000  N
  N320     1.0000 0.30202  0.93772  0.24144  Biso   1.000  N
  N321     1.0000 0.30202  0.93777  0.24144  Biso   1.000  N
  C479     1.0000 0.32280  0.99211  0.31791  Biso   1.000  C
  H442     1.0000 0.42419  0.06331  0.29079  Biso   1.000  H
  H443     1.0000 0.42427  0.06331  0.29079  Biso   1.000  H
  H444     1.0000 0.83517  0.14931  0.57742  Biso   1.000  H
  N322     1.0000 0.82442  0.14201  0.73874  Biso   1.000  N
  H445     1.0000 0.83510  0.14931  0.57742  Biso   1.000  H
  N323     1.0000 0.82440  0.14201  0.73866  Biso   1.000  N
  N324     1.0000 0.82450  0.14201  0.73874  Biso   1.000  N
  N325     1.0000 0.82448  0.14201  0.73866  Biso   1.000  N
  C480     1.0000 0.88321  0.17719  0.82069  Biso   1.000  C
  C481     1.0000 0.88328  0.17719  0.82069  Biso   1.000  C
  C482     1.0000 0.82396  0.01318  0.58058  Biso   1.000  C
  C483     1.0000 0.82389  0.01318  0.58058  Biso   1.000  C
  C484     1.0000 0.82396  0.01323  0.58058  Biso   1.000  C
  C485     1.0000 0.82389  0.01323  0.58058  Biso   1.000  C
  C486     1.0000 0.21003  0.08090  0.30821  Biso   1.000  C
  C487     1.0000 0.20995  0.08090  0.30821  Biso   1.000  C
  C488     1.0000 0.28286  0.87068  0.26848  Biso   1.000  C
  C489     1.0000 0.28286  0.87073  0.26848  Biso   1.000  C
  C490     1.0000 0.28293  0.87068  0.26848  Biso   1.000  C
  C491     1.0000 0.28293  0.87073  0.26848  Biso   1.000  C
  N326     1.0000 0.23108  0.01847  0.34710  Biso   1.000  N
  N327     1.0000 0.23116  0.01847  0.34710  Biso   1.000  N
  H446     1.0000 0.37593  0.98099  0.38418  Biso   1.000  H
  H447     1.0000 0.37586  0.98099  0.38418  Biso   1.000  H
  C492     1.0000 0.71717  0.12932  0.73153  Biso   1.000  C
  C493     1.0000 0.71708  0.12932  0.73144  Biso   1.000  C
  C494     1.0000 0.71715  0.12932  0.73144  Biso   1.000  C
  O172     1.0000 0.85968  0.19503  0.90744  Biso   1.000  O
  O173     1.0000 0.85958  0.19503  0.90736  Biso   1.000  O
  O174     1.0000 0.85968  0.19508  0.90744  Biso   1.000  O
  O175     1.0000 0.85958  0.19508  0.90736  Biso   1.000  O
  O176     1.0000 0.85966  0.19503  0.90736  Biso   1.000  O
  O177     1.0000 0.85966  0.19508  0.90736  Biso   1.000  O
  H448     1.0000 0.85931  0.98001  0.54798  Biso   1.000  H
  N328     1.0000 0.76895  0.98153  0.65290  Biso   1.000  N
  H449     1.0000 0.85939  0.98001  0.54798  Biso   1.000  H
  H450     1.0000 0.77490  0.03430  0.52069  Biso   1.000  H
  H451     1.0000 0.77498  0.03430  0.52069  Biso   1.000  H
  O178     1.0000 0.14088  0.11560  0.32396  Biso   1.000  O
  H452     1.0000 0.32178  0.86108  0.34321  Biso   1.000  H
  H453     1.0000 0.30682  0.84157  0.21813  Biso   1.000  H
  N329     1.0000 0.17561  0.85799  0.26126  Biso   1.000  N
  H454     1.0000 0.30681  0.84157  0.21805  Biso   1.000  H
  N330     1.0000 0.17554  0.85799  0.26126  Biso   1.000  N
  H455     1.0000 0.32178  0.86113  0.34321  Biso   1.000  H
  H456     1.0000 0.30682  0.84162  0.21813  Biso   1.000  H
  H457     1.0000 0.30681  0.84162  0.21805  Biso   1.000  H
  H458     1.0000 0.32185  0.86108  0.34321  Biso   1.000  H
  H459     1.0000 0.32185  0.86113  0.34321  Biso   1.000  H
  C495     1.0000 0.17607  0.98682  0.41943  Biso   1.000  C
  C496     1.0000 0.17605  0.98682  0.41934  Biso   1.000  C
  C497     1.0000 0.17614  0.98682  0.41943  Biso   1.000  C
  C498     1.0000 0.17613  0.98682  0.41934  Biso   1.000  C
  H460     1.0000 0.67826  0.13892  0.65680  Biso   1.000  H
  H461     1.0000 0.69321  0.15843  0.78187  Biso   1.000  H
  N331     1.0000 0.69799  0.06228  0.75848  Biso   1.000  N
  H462     1.0000 0.67818  0.13892  0.65680  Biso   1.000  H
  H463     1.0000 0.69328  0.15843  0.78187  Biso   1.000  H
  N332     1.0000 0.69807  0.06228  0.75848  Biso   1.000  N
  C499     1.0000 0.79001  0.91910  0.69180  Biso   1.000  C
  C500     1.0000 0.79008  0.91910  0.69180  Biso   1.000  C
  C501     1.0000 0.67723  0.00789  0.68209  Biso   1.000  C
  C502     1.0000 0.12681  0.87009  0.35283  Biso   1.000  C
  C503     1.0000 0.11683  0.82281  0.17932  Biso   1.000  C
  C504     1.0000 0.12679  0.87009  0.35274  Biso   1.000  C
  C505     1.0000 0.11673  0.82281  0.17923  Biso   1.000  C
  C506     1.0000 0.11681  0.82281  0.17923  Biso   1.000  C
  H464     1.0000 0.22513  0.96570  0.47931  Biso   1.000  H
  N333     1.0000 0.10227  0.93840  0.36477  Biso   1.000  N
  H465     1.0000 0.22504  0.96570  0.47923  Biso   1.000  H
  N334     1.0000 0.10234  0.93840  0.36477  Biso   1.000  N
  H466     1.0000 0.22511  0.96570  0.47923  Biso   1.000  H
  H467     1.0000 0.14072  0.01999  0.45202  Biso   1.000  H
  H468     1.0000 0.14070  0.01999  0.45194  Biso   1.000  H
  C507     1.0000 0.67623  0.04641  0.85809  Biso   1.000  C
  N335     1.0000 0.72056  0.90199  0.75251  Biso   1.000  N
  O179     1.0000 0.85915  0.88440  0.67604  Biso   1.000  O
  N336     1.0000 0.72049  0.90199  0.75251  Biso   1.000  N
  O180     1.0000 0.85913  0.88440  0.67596  Biso   1.000  O
  C508     1.0000 0.64451  0.95252  0.74513  Biso   1.000  C
  C509     1.0000 0.64449  0.95252  0.74505  Biso   1.000  C
  C510     1.0000 0.64459  0.95252  0.74513  Biso   1.000  C
  C511     1.0000 0.64457  0.95252  0.74505  Biso   1.000  C
  H469     1.0000 0.62410  0.01901  0.61583  Biso   1.000  H
  H470     1.0000 0.62417  0.01901  0.61583  Biso   1.000  H
  H471     1.0000 0.16486  0.85069  0.42258  Biso   1.000  H
  C512     1.0000 0.01972  0.83760  0.30887  Biso   1.000  C
  C513     1.0000 0.01964  0.83760  0.30887  Biso   1.000  C
  H472     1.0000 0.16493  0.85069  0.42258  Biso   1.000  H
  N337     1.0000 0.02560  0.80811  0.20428  Biso   1.000  N
  O181     1.0000 0.14036  0.80497  0.09256  Biso   1.000  O
  O182     1.0000 0.14043  0.80497  0.09256  Biso   1.000  O
  C514     1.0000 0.99839  0.95012  0.33549  Biso   1.000  C
  C515     1.0000 0.99846  0.95012  0.33549  Biso   1.000  C
  N338     1.0000 0.64754  0.98260  0.85303  Biso   1.000  N
  N339     1.0000 0.64752  0.98260  0.85295  Biso   1.000  N
  N340     1.0000 0.64754  0.98265  0.85303  Biso   1.000  N
  N341     1.0000 0.64752  0.98265  0.85295  Biso   1.000  N
  N342     1.0000 0.64761  0.98260  0.85303  Biso   1.000  N
  N343     1.0000 0.64761  0.98265  0.85303  Biso   1.000  N
  O183     1.0000 0.68190  0.08321  0.93589  Biso   1.000  O
  O184     1.0000 0.68190  0.08326  0.93589  Biso   1.000  O
  O185     1.0000 0.68198  0.08321  0.93589  Biso   1.000  O
  O186     1.0000 0.68198  0.08326  0.93589  Biso   1.000  O
  C516     1.0000 0.71621  0.83702  0.79423  Biso   1.000  C
  C517     1.0000 0.71619  0.83702  0.79415  Biso   1.000  C
  C518     1.0000 0.71628  0.83702  0.79423  Biso   1.000  C
  C519     1.0000 0.71626  0.83702  0.79415  Biso   1.000  C
  H473     1.0000 0.57584  0.93669  0.70922  Biso   1.000  H
  N344     1.0000 0.95140  0.89278  0.29908  Biso   1.000  N
  N345     1.0000 0.95147  0.89278  0.29908  Biso   1.000  N
  N346     1.0000 0.95140  0.89283  0.29908  Biso   1.000  N
  N347     1.0000 0.95147  0.89283  0.29908  Biso   1.000  N
  H474     1.0000 0.00536  0.80492  0.36095  Biso   1.000  H
  H475     1.0000 0.00543  0.80492  0.36095  Biso   1.000  H
  C520     1.0000 0.94935  0.76650  0.13909  Biso   1.000  C
  C521     1.0000 0.94942  0.76650  0.13909  Biso   1.000  C
  O187     1.0000 0.95799  0.00216  0.34088  Biso   1.000  O
  O188     1.0000 0.95807  0.00216  0.34088  Biso   1.000  O
  C522     1.0000 0.60881  0.95330  0.94037  Biso   1.000  C
  C523     1.0000 0.60889  0.95330  0.94037  Biso   1.000  C
  H476     1.0000 0.64574  0.82232  0.77631  Biso   1.000  H
  H477     1.0000 0.75496  0.80801  0.75749  Biso   1.000  H
  N348     1.0000 0.75736  0.83270  0.91433  Biso   1.000  N
  H478     1.0000 0.75489  0.80801  0.75749  Biso   1.000  H
  N349     1.0000 0.75735  0.83270  0.91424  Biso   1.000  N
  C524     1.0000 0.84139  0.88450  0.28606  Biso   1.000  C
  C525     1.0000 0.84147  0.88450  0.28606  Biso   1.000  C
  N350     1.0000 0.86443  0.80208  0.06826  Biso   1.000  N
  N351     1.0000 0.86451  0.80208  0.06826  Biso   1.000  N
  H479     1.0000 0.92281  0.73808  0.18819  Biso   1.000  H
  H480     1.0000 0.98106  0.73901  0.09289  Biso   1.000  H
  H481     1.0000 0.98114  0.73901  0.09289  Biso   1.000  H
  H482     1.0000 0.92281  0.73813  0.18819  Biso   1.000  H
  H483     1.0000 0.58627  0.98770  0.98292  Biso   1.000  H
  H484     1.0000 0.54976  0.92659  0.90761  Biso   1.000  H
  H485     1.0000 0.58620  0.98770  0.98292  Biso   1.000  H
  N352     1.0000 0.68285  0.91312  0.01452  Biso   1.000  N
  N353     1.0000 0.68293  0.91312  0.01452  Biso   1.000  N
  C526     1.0000 0.85003  0.80281  0.95422  Biso   1.000  C
  C527     1.0000 0.69904  0.84451  0.99702  Biso   1.000  C
  C528     1.0000 0.85001  0.80281  0.95414  Biso   1.000  C
  C529     1.0000 0.85011  0.80281  0.95422  Biso   1.000  C
  C530     1.0000 0.69911  0.84451  0.99702  Biso   1.000  C
  N354     1.0000 0.78721  0.88156  0.17069  Biso   1.000  N
  H486     1.0000 0.82891  0.84442  0.32289  Biso   1.000  H
  H487     1.0000 0.81508  0.92081  0.32156  Biso   1.000  H
  H488     1.0000 0.81516  0.92081  0.32156  Biso   1.000  H
  C531     1.0000 0.77309  0.82241  0.10699  Biso   1.000  C
  C532     1.0000 0.77316  0.82241  0.10699  Biso   1.000  C
  C533     1.0000 0.73504  0.93292  0.11869  Biso   1.000  C
  C534     1.0000 0.73511  0.93292  0.11869  Biso   1.000  C
  O189     1.0000 0.90893  0.78228  0.90313  Biso   1.000  O
  O190     1.0000 0.90892  0.78228  0.90305  Biso   1.000  O
  O191     1.0000 0.90901  0.78228  0.90313  Biso   1.000  O
  H489     1.0000 0.63484  0.81972  0.98159  Biso   1.000  H
  H490     1.0000 0.74489  0.78679  0.14374  Biso   1.000  H
  H491     1.0000 0.74495  0.78679  0.14365  Biso   1.000  H
  H492     1.0000 0.74487  0.78679  0.14365  Biso   1.000  H
  O192     1.0000 0.72970  0.98819  0.15626  Biso   1.000  O
  O193     1.0000 0.27039  0.01186  0.84366  Biso   1.000  O
  C535     1.0000 0.26500  0.06708  0.88132  Biso   1.000  C
  C536     1.0000 0.26492  0.06708  0.88132  Biso   1.000  C
  C537     1.0000 0.26500  0.06713  0.88132  Biso   1.000  C
  C538     1.0000 0.26492  0.06713  0.88132  Biso   1.000  C
  N355     1.0000 0.21282  0.11844  0.82931  Biso   1.000  N
  N356     1.0000 0.21289  0.11844  0.82931  Biso   1.000  N
  N357     1.0000 0.31718  0.08688  0.98549  Biso   1.000  N
  O194     1.0000 0.27033  0.01181  0.84374  Biso   1.000  O
  O195     1.0000 0.27031  0.01181  0.84366  Biso   1.000  O
  N358     1.0000 0.31718  0.08693  0.98549  Biso   1.000  N
  O196     1.0000 0.27033  0.01186  0.84374  Biso   1.000  O
  O197     1.0000 0.27031  0.01186  0.84366  Biso   1.000  O
  N359     1.0000 0.31711  0.08688  0.98549  Biso   1.000  N
  O198     1.0000 0.27039  0.01181  0.84366  Biso   1.000  O
  N360     1.0000 0.31711  0.08693  0.98549  Biso   1.000  N
  C539     1.0000 0.15864  0.11550  0.71394  Biso   1.000  C
  C540     1.0000 0.15862  0.11550  0.71386  Biso   1.000  C
  C541     1.0000 0.22695  0.17759  0.89301  Biso   1.000  C
  C542     1.0000 0.22695  0.17764  0.89301  Biso   1.000  C
  C543     1.0000 0.30100  0.15549  0.00299  Biso   1.000  C
  C544     1.0000 0.30100  0.15553  0.00299  Biso   1.000  C
  C545     1.0000 0.39122  0.04670  0.05964  Biso   1.000  C
  C546     1.0000 0.39120  0.04670  0.05955  Biso   1.000  C
  N361     1.0000 0.04864  0.10722  0.70092  Biso   1.000  N
  H493     1.0000 0.17113  0.15558  0.67712  Biso   1.000  H
  H494     1.0000 0.18495  0.07919  0.67845  Biso   1.000  H
  H495     1.0000 0.18493  0.07919  0.67836  Biso   1.000  H
  H496     1.0000 0.17113  0.15563  0.67712  Biso   1.000  H
  H497     1.0000 0.18488  0.07919  0.67845  Biso   1.000  H
  H498     1.0000 0.17120  0.15558  0.67712  Biso   1.000  H
  H499     1.0000 0.17120  0.15563  0.67712  Biso   1.000  H
  N362     1.0000 0.13560  0.19792  0.93174  Biso   1.000  N
  N363     1.0000 0.13551  0.19792  0.93166  Biso   1.000  N
  N364     1.0000 0.13552  0.19792  0.93174  Biso   1.000  N
  N365     1.0000 0.13558  0.19792  0.93166  Biso   1.000  N
  H500     1.0000 0.25514  0.21321  0.85627  Biso   1.000  H
  H501     1.0000 0.25507  0.21321  0.85627  Biso   1.000  H
  H502     1.0000 0.36519  0.18028  0.01841  Biso   1.000  H
  N366     1.0000 0.24267  0.16730  0.08568  Biso   1.000  N
  H503     1.0000 0.36519  0.18033  0.01841  Biso   1.000  H
  N367     1.0000 0.24274  0.16730  0.08568  Biso   1.000  N
  H504     1.0000 0.41376  0.01230  0.01709  Biso   1.000  H
  H505     1.0000 0.45028  0.07341  0.09240  Biso   1.000  H
  N368     1.0000 0.35250  0.01740  0.14697  Biso   1.000  N
  H506     1.0000 0.41384  0.01230  0.01709  Biso   1.000  H
  H507     1.0000 0.45035  0.07341  0.09240  Biso   1.000  H
  C547     1.0000 0.98031  0.16240  0.69114  Biso   1.000  C
  C548     1.0000 0.98030  0.16240  0.69105  Biso   1.000  C
  C549     1.0000 0.98039  0.16240  0.69114  Biso   1.000  C
  C550     1.0000 0.98037  0.16240  0.69105  Biso   1.000  C
  C551     1.0000 0.00165  0.04988  0.66451  Biso   1.000  C
  C552     1.0000 0.00165  0.04993  0.66451  Biso   1.000  C
  C553     1.0000 0.00157  0.04988  0.66451  Biso   1.000  C
  C554     1.0000 0.00157  0.04993  0.66451  Biso   1.000  C
  C555     1.0000 0.05068  0.23350  0.86091  Biso   1.000  C
  C556     1.0000 0.05061  0.23350  0.86091  Biso   1.000  C
  C557     1.0000 0.15000  0.19719  0.04578  Biso   1.000  C
  C558     1.0000 0.28383  0.16298  0.20577  Biso   1.000  C
  C559     1.0000 0.28375  0.16298  0.20577  Biso   1.000  C
  C560     1.0000 0.28383  0.16303  0.20577  Biso   1.000  C
  C561     1.0000 0.28375  0.16303  0.20577  Biso   1.000  C
  C562     1.0000 0.32380  0.95359  0.14191  Biso   1.000  C
  C563     1.0000 0.35552  0.04748  0.25487  Biso   1.000  C
  C564     1.0000 0.35545  0.04748  0.25487  Biso   1.000  C
  C565     1.0000 0.35552  0.04753  0.25487  Biso   1.000  C
  C566     1.0000 0.35545  0.04753  0.25487  Biso   1.000  C
  C567     1.0000 0.87323  0.12991  0.64718  Biso   1.000  C
  H508     1.0000 0.99468  0.19508  0.63905  Biso   1.000  H
  N369     1.0000 0.97443  0.19189  0.79572  Biso   1.000  N
  H509     1.0000 0.99458  0.19508  0.63897  Biso   1.000  H
  H510     1.0000 0.99468  0.19513  0.63905  Biso   1.000  H
  H511     1.0000 0.99458  0.19513  0.63897  Biso   1.000  H
  N370     1.0000 0.97451  0.19189  0.79572  Biso   1.000  N
  H512     1.0000 0.99466  0.19508  0.63897  Biso   1.000  H
  H513     1.0000 0.99466  0.19513  0.63897  Biso   1.000  H
  N371     1.0000 0.89776  0.06160  0.63523  Biso   1.000  N
  N372     1.0000 0.89775  0.06160  0.63515  Biso   1.000  N
  O199     1.0000 0.04204  0.99784  0.65912  Biso   1.000  O
  O200     1.0000 0.04197  0.99784  0.65912  Biso   1.000  O
  H514     1.0000 0.07722  0.26192  0.81181  Biso   1.000  H
  H515     1.0000 0.01897  0.26099  0.90711  Biso   1.000  H
  H516     1.0000 0.01890  0.26099  0.90711  Biso   1.000  H
  H517     1.0000 0.07730  0.26192  0.81181  Biso   1.000  H
  O201     1.0000 0.09110  0.21772  0.09688  Biso   1.000  O
  H518     1.0000 0.35429  0.17768  0.22369  Biso   1.000  H
  H519     1.0000 0.24507  0.19199  0.24252  Biso   1.000  H
  N373     1.0000 0.27947  0.09801  0.24749  Biso   1.000  N
  H520     1.0000 0.24505  0.19199  0.24243  Biso   1.000  H
  H521     1.0000 0.35429  0.17773  0.22369  Biso   1.000  H
  H522     1.0000 0.24514  0.19199  0.24252  Biso   1.000  H
  N374     1.0000 0.27954  0.09801  0.24749  Biso   1.000  N
  H523     1.0000 0.24512  0.19199  0.24243  Biso   1.000  H
  N375     1.0000 0.30204  0.93772  0.24152  Biso   1.000  N
  O202     1.0000 0.31813  0.91679  0.06411  Biso   1.000  O
  N376     1.0000 0.30195  0.93772  0.24144  Biso   1.000  N
  O203     1.0000 0.31805  0.91679  0.06411  Biso   1.000  O
  N377     1.0000 0.30204  0.93777  0.24152  Biso   1.000  N
  N378     1.0000 0.30195  0.93777  0.24144  Biso   1.000  N
  N379     1.0000 0.30202  0.93772  0.24144  Biso   1.000  N
  N380     1.0000 0.30202  0.93777  0.24144  Biso   1.000  N
  C568     1.0000 0.32280  0.99211  0.31791  Biso   1.000  C
  H524     1.0000 0.42419  0.06331  0.29079  Biso   1.000  H
  H525     1.0000 0.42427  0.06331  0.29079  Biso   1.000  H
  H526     1.0000 0.83517  0.14931  0.57742  Biso   1.000  H
  N381     1.0000 0.82442  0.14201  0.73874  Biso   1.000  N
  H527     1.0000 0.83510  0.14931  0.57742  Biso   1.000  H
  N382     1.0000 0.82440  0.14201  0.73866  Biso   1.000  N
  N383     1.0000 0.82450  0.14201  0.73874  Biso   1.000  N
  N384     1.0000 0.82448  0.14201  0.73866  Biso   1.000  N
  C569     1.0000 0.88321  0.17719  0.82069  Biso   1.000  C
  C570     1.0000 0.88328  0.17719  0.82069  Biso   1.000  C
  C571     1.0000 0.82396  0.01318  0.58058  Biso   1.000  C
  C572     1.0000 0.82389  0.01318  0.58058  Biso   1.000  C
  C573     1.0000 0.82396  0.01323  0.58058  Biso   1.000  C
  C574     1.0000 0.82389  0.01323  0.58058  Biso   1.000  C
  C575     1.0000 0.21003  0.08090  0.30821  Biso   1.000  C
  C576     1.0000 0.20995  0.08090  0.30821  Biso   1.000  C
  C577     1.0000 0.28286  0.87068  0.26848  Biso   1.000  C
  C578     1.0000 0.28286  0.87073  0.26848  Biso   1.000  C
  C579     1.0000 0.28293  0.87068  0.26848  Biso   1.000  C
  C580     1.0000 0.28293  0.87073  0.26848  Biso   1.000  C
  N385     1.0000 0.23108  0.01847  0.34710  Biso   1.000  N
  N386     1.0000 0.23116  0.01847  0.34710  Biso   1.000  N
  H528     1.0000 0.37593  0.98099  0.38418  Biso   1.000  H
  H529     1.0000 0.37586  0.98099  0.38418  Biso   1.000  H
  C581     1.0000 0.71717  0.12932  0.73153  Biso   1.000  C
  C582     1.0000 0.71708  0.12932  0.73144  Biso   1.000  C
  C583     1.0000 0.71715  0.12932  0.73144  Biso   1.000  C
  O204     1.0000 0.85968  0.19503  0.90744  Biso   1.000  O
  O205     1.0000 0.85958  0.19503  0.90736  Biso   1.000  O
  O206     1.0000 0.85968  0.19508  0.90744  Biso   1.000  O
  O207     1.0000 0.85958  0.19508  0.90736  Biso   1.000  O
  O208     1.0000 0.85966  0.19503  0.90736  Biso   1.000  O
  O209     1.0000 0.85966  0.19508  0.90736  Biso   1.000  O
  H530     1.0000 0.85931  0.98001  0.54798  Biso   1.000  H
  N387     1.0000 0.76895  0.98153  0.65290  Biso   1.000  N
  H531     1.0000 0.85939  0.98001  0.54798  Biso   1.000  H
  H532     1.0000 0.77490  0.03430  0.52069  Biso   1.000  H
  H533     1.0000 0.77498  0.03430  0.52069  Biso   1.000  H
  O210     1.0000 0.14088  0.11560  0.32396  Biso   1.000  O
  H534     1.0000 0.32178  0.86108  0.34321  Biso   1.000  H
  H535     1.0000 0.30682  0.84157  0.21813  Biso   1.000  H
  N388     1.0000 0.17561  0.85799  0.26126  Biso   1.000  N
  H536     1.0000 0.30681  0.84157  0.21805  Biso   1.000  H
  N389     1.0000 0.17554  0.85799  0.26126  Biso   1.000  N
  H537     1.0000 0.32178  0.86113  0.34321  Biso   1.000  H
  H538     1.0000 0.30682  0.84162  0.21813  Biso   1.000  H
  H539     1.0000 0.30681  0.84162  0.21805  Biso   1.000  H
  H540     1.0000 0.32185  0.86108  0.34321  Biso   1.000  H
  H541     1.0000 0.32185  0.86113  0.34321  Biso   1.000  H
  C584     1.0000 0.17607  0.98682  0.41943  Biso   1.000  C
  C585     1.0000 0.17605  0.98682  0.41934  Biso   1.000  C
  C586     1.0000 0.17614  0.98682  0.41943  Biso   1.000  C
  C587     1.0000 0.17613  0.98682  0.41934  Biso   1.000  C
  H542     1.0000 0.67826  0.13892  0.65680  Biso   1.000  H
  H543     1.0000 0.69321  0.15843  0.78187  Biso   1.000  H
  N390     1.0000 0.69799  0.06228  0.75848  Biso   1.000  N
  H544     1.0000 0.67818  0.13892  0.65680  Biso   1.000  H
  H545     1.0000 0.69328  0.15843  0.78187  Biso   1.000  H
  N391     1.0000 0.69807  0.06228  0.75848  Biso   1.000  N
  C588     1.0000 0.79001  0.91910  0.69180  Biso   1.000  C
  C589     1.0000 0.79008  0.91910  0.69180  Biso   1.000  C
  C590     1.0000 0.67723  0.00789  0.68209  Biso   1.000  C
  C591     1.0000 0.12681  0.87009  0.35283  Biso   1.000  C
  C592     1.0000 0.11683  0.82281  0.17932  Biso   1.000  C
  C593     1.0000 0.12679  0.87009  0.35274  Biso   1.000  C
  C594     1.0000 0.11673  0.82281  0.17923  Biso   1.000  C
  C595     1.0000 0.11681  0.82281  0.17923  Biso   1.000  C
  H546     1.0000 0.22513  0.96570  0.47931  Biso   1.000  H
  N392     1.0000 0.10227  0.93840  0.36477  Biso   1.000  N
  H547     1.0000 0.22504  0.96570  0.47923  Biso   1.000  H
  N393     1.0000 0.10234  0.93840  0.36477  Biso   1.000  N
  H548     1.0000 0.22511  0.96570  0.47923  Biso   1.000  H
  H549     1.0000 0.14072  0.01999  0.45202  Biso   1.000  H
  H550     1.0000 0.14070  0.01999  0.45194  Biso   1.000  H
  C596     1.0000 0.67623  0.04641  0.85809  Biso   1.000  C
  N394     1.0000 0.72056  0.90199  0.75251  Biso   1.000  N
  O211     1.0000 0.85915  0.88440  0.67604  Biso   1.000  O
  N395     1.0000 0.72049  0.90199  0.75251  Biso   1.000  N
  O212     1.0000 0.85913  0.88440  0.67596  Biso   1.000  O
  C597     1.0000 0.64451  0.95252  0.74513  Biso   1.000  C
  C598     1.0000 0.64449  0.95252  0.74505  Biso   1.000  C
  C599     1.0000 0.64459  0.95252  0.74513  Biso   1.000  C
  C600     1.0000 0.64457  0.95252  0.74505  Biso   1.000  C
  H551     1.0000 0.62410  0.01901  0.61583  Biso   1.000  H
  H552     1.0000 0.62417  0.01901  0.61583  Biso   1.000  H
  H553     1.0000 0.16486  0.85069  0.42258  Biso   1.000  H
  C601     1.0000 0.01972  0.83760  0.30887  Biso   1.000  C
  C602     1.0000 0.01964  0.83760  0.30887  Biso   1.000  C
  H554     1.0000 0.16493  0.85069  0.42258  Biso   1.000  H
  N396     1.0000 0.02560  0.80811  0.20428  Biso   1.000  N
  O213     1.0000 0.14036  0.80497  0.09256  Biso   1.000  O
  O214     1.0000 0.14043  0.80497  0.09256  Biso   1.000  O
  C603     1.0000 0.99839  0.95012  0.33549  Biso   1.000  C
  C604     1.0000 0.99846  0.95012  0.33549  Biso   1.000  C
  N397     1.0000 0.64754  0.98260  0.85303  Biso   1.000  N
  N398     1.0000 0.64752  0.98260  0.85295  Biso   1.000  N
  N399     1.0000 0.64754  0.98265  0.85303  Biso   1.000  N
  N400     1.0000 0.64752  0.98265  0.85295  Biso   1.000  N
  N401     1.0000 0.64761  0.98260  0.85303  Biso   1.000  N
  N402     1.0000 0.64761  0.98265  0.85303  Biso   1.000  N
  O215     1.0000 0.68190  0.08321  0.93589  Biso   1.000  O
  O216     1.0000 0.68190  0.08326  0.93589  Biso   1.000  O
  O217     1.0000 0.68198  0.08321  0.93589  Biso   1.000  O
  O218     1.0000 0.68198  0.08326  0.93589  Biso   1.000  O
  C605     1.0000 0.71621  0.83702  0.79423  Biso   1.000  C
  C606     1.0000 0.71619  0.83702  0.79415  Biso   1.000  C
  C607     1.0000 0.71628  0.83702  0.79423  Biso   1.000  C
  C608     1.0000 0.71626  0.83702  0.79415  Biso   1.000  C
  H555     1.0000 0.57584  0.93669  0.70922  Biso   1.000  H
  N403     1.0000 0.95140  0.89278  0.29908  Biso   1.000  N
  N404     1.0000 0.95147  0.89278  0.29908  Biso   1.000  N
  N405     1.0000 0.95140  0.89283  0.29908  Biso   1.000  N
  N406     1.0000 0.95147  0.89283  0.29908  Biso   1.000  N
  H556     1.0000 0.00536  0.80492  0.36095  Biso   1.000  H
  H557     1.0000 0.00543  0.80492  0.36095  Biso   1.000  H
  C609     1.0000 0.94935  0.76650  0.13909  Biso   1.000  C
  C610     1.0000 0.94942  0.76650  0.13909  Biso   1.000  C
  O219     1.0000 0.95799  0.00216  0.34088  Biso   1.000  O
  O220     1.0000 0.95807  0.00216  0.34088  Biso   1.000  O
  C611     1.0000 0.60881  0.95330  0.94037  Biso   1.000  C
  C612     1.0000 0.60889  0.95330  0.94037  Biso   1.000  C
  H558     1.0000 0.64574  0.82232  0.77631  Biso   1.000  H
  H559     1.0000 0.75496  0.80801  0.75749  Biso   1.000  H
  N407     1.0000 0.75736  0.83270  0.91433  Biso   1.000  N
  H560     1.0000 0.75489  0.80801  0.75749  Biso   1.000  H
  N408     1.0000 0.75735  0.83270  0.91424  Biso   1.000  N
  C613     1.0000 0.84139  0.88450  0.28606  Biso   1.000  C
  C614     1.0000 0.84147  0.88450  0.28606  Biso   1.000  C
  N409     1.0000 0.86443  0.80208  0.06826  Biso   1.000  N
  N410     1.0000 0.86451  0.80208  0.06826  Biso   1.000  N
  H561     1.0000 0.92281  0.73808  0.18819  Biso   1.000  H
  H562     1.0000 0.98106  0.73901  0.09289  Biso   1.000  H
  H563     1.0000 0.98114  0.73901  0.09289  Biso   1.000  H
  H564     1.0000 0.92281  0.73813  0.18819  Biso   1.000  H
  H565     1.0000 0.58627  0.98770  0.98292  Biso   1.000  H
  H566     1.0000 0.54976  0.92659  0.90761  Biso   1.000  H
  H567     1.0000 0.58620  0.98770  0.98292  Biso   1.000  H
  N411     1.0000 0.68285  0.91312  0.01452  Biso   1.000  N
  N412     1.0000 0.68293  0.91312  0.01452  Biso   1.000  N
  C615     1.0000 0.85003  0.80281  0.95422  Biso   1.000  C
  C616     1.0000 0.69904  0.84451  0.99702  Biso   1.000  C
  C617     1.0000 0.85001  0.80281  0.95414  Biso   1.000  C
  C618     1.0000 0.85011  0.80281  0.95422  Biso   1.000  C
  C619     1.0000 0.69911  0.84451  0.99702  Biso   1.000  C
  N413     1.0000 0.78721  0.88156  0.17069  Biso   1.000  N
  H568     1.0000 0.82891  0.84442  0.32289  Biso   1.000  H
  H569     1.0000 0.81508  0.92081  0.32156  Biso   1.000  H
  H570     1.0000 0.81516  0.92081  0.32156  Biso   1.000  H
  C620     1.0000 0.77309  0.82241  0.10699  Biso   1.000  C
  C621     1.0000 0.77316  0.82241  0.10699  Biso   1.000  C
  C622     1.0000 0.73504  0.93292  0.11869  Biso   1.000  C
  C623     1.0000 0.73511  0.93292  0.11869  Biso   1.000  C
  O221     1.0000 0.90893  0.78228  0.90313  Biso   1.000  O
  O222     1.0000 0.90892  0.78228  0.90305  Biso   1.000  O
  O223     1.0000 0.90901  0.78228  0.90313  Biso   1.000  O
  H571     1.0000 0.63484  0.81972  0.98159  Biso   1.000  H
  H572     1.0000 0.74489  0.78679  0.14374  Biso   1.000  H
  H573     1.0000 0.74495  0.78679  0.14365  Biso   1.000  H
  H574     1.0000 0.74487  0.78679  0.14365  Biso   1.000  H
  O224     1.0000 0.72970  0.98819  0.15626  Biso   1.000  O
  O225     1.0000 0.27039  0.01186  0.84366  Biso   1.000  O
  C624     1.0000 0.26500  0.06708  0.88132  Biso   1.000  C
  C625     1.0000 0.26492  0.06708  0.88132  Biso   1.000  C
  C626     1.0000 0.26500  0.06713  0.88132  Biso   1.000  C
  C627     1.0000 0.26492  0.06713  0.88132  Biso   1.000  C
  N414     1.0000 0.21282  0.11844  0.82931  Biso   1.000  N
  N415     1.0000 0.21289  0.11844  0.82931  Biso   1.000  N
  N416     1.0000 0.31718  0.08688  0.98549  Biso   1.000  N
  O226     1.0000 0.27033  0.01181  0.84374  Biso   1.000  O
  O227     1.0000 0.27031  0.01181  0.84366  Biso   1.000  O
  N417     1.0000 0.31718  0.08693  0.98549  Biso   1.000  N
  O228     1.0000 0.27033  0.01186  0.84374  Biso   1.000  O
  O229     1.0000 0.27031  0.01186  0.84366  Biso   1.000  O
  N418     1.0000 0.31711  0.08688  0.98549  Biso   1.000  N
  O230     1.0000 0.27039  0.01181  0.84366  Biso   1.000  O
  N419     1.0000 0.31711  0.08693  0.98549  Biso   1.000  N
  C628     1.0000 0.15864  0.11550  0.71394  Biso   1.000  C
  C629     1.0000 0.15862  0.11550  0.71386  Biso   1.000  C
  C630     1.0000 0.22695  0.17759  0.89301  Biso   1.000  C
  C631     1.0000 0.22695  0.17764  0.89301  Biso   1.000  C
  C632     1.0000 0.30100  0.15549  0.00299  Biso   1.000  C
  C633     1.0000 0.30100  0.15553  0.00299  Biso   1.000  C
  C634     1.0000 0.39122  0.04670  0.05964  Biso   1.000  C
  C635     1.0000 0.39120  0.04670  0.05955  Biso   1.000  C
  N420     1.0000 0.04864  0.10722  0.70092  Biso   1.000  N
  H575     1.0000 0.17113  0.15558  0.67712  Biso   1.000  H
  H576     1.0000 0.18495  0.07919  0.67845  Biso   1.000  H
  H577     1.0000 0.18493  0.07919  0.67836  Biso   1.000  H
  H578     1.0000 0.17113  0.15563  0.67712  Biso   1.000  H
  H579     1.0000 0.18488  0.07919  0.67845  Biso   1.000  H
  H580     1.0000 0.17120  0.15558  0.67712  Biso   1.000  H
  H581     1.0000 0.17120  0.15563  0.67712  Biso   1.000  H
  N421     1.0000 0.13560  0.19792  0.93174  Biso   1.000  N
  N422     1.0000 0.13551  0.19792  0.93166  Biso   1.000  N
  N423     1.0000 0.13552  0.19792  0.93174  Biso   1.000  N
  N424     1.0000 0.13558  0.19792  0.93166  Biso   1.000  N
  H582     1.0000 0.25514  0.21321  0.85627  Biso   1.000  H
  H583     1.0000 0.25507  0.21321  0.85627  Biso   1.000  H
  H584     1.0000 0.36519  0.18028  0.01841  Biso   1.000  H
  N425     1.0000 0.24267  0.16730  0.08568  Biso   1.000  N
  H585     1.0000 0.36519  0.18033  0.01841  Biso   1.000  H
  N426     1.0000 0.24274  0.16730  0.08568  Biso   1.000  N
  H586     1.0000 0.41376  0.01230  0.01709  Biso   1.000  H
  H587     1.0000 0.45028  0.07341  0.09240  Biso   1.000  H
  N427     1.0000 0.35250  0.01740  0.14697  Biso   1.000  N
  H588     1.0000 0.41384  0.01230  0.01709  Biso   1.000  H
  H589     1.0000 0.45035  0.07341  0.09240  Biso   1.000  H
  C636     1.0000 0.98031  0.16240  0.69114  Biso   1.000  C
  C637     1.0000 0.98030  0.16240  0.69105  Biso   1.000  C
  C638     1.0000 0.98039  0.16240  0.69114  Biso   1.000  C
  C639     1.0000 0.98037  0.16240  0.69105  Biso   1.000  C
  C640     1.0000 0.00165  0.04988  0.66451  Biso   1.000  C
  C641     1.0000 0.00165  0.04993  0.66451  Biso   1.000  C
  C642     1.0000 0.00157  0.04988  0.66451  Biso   1.000  C
  C643     1.0000 0.00157  0.04993  0.66451  Biso   1.000  C
  C644     1.0000 0.05068  0.23350  0.86091  Biso   1.000  C
  C645     1.0000 0.05061  0.23350  0.86091  Biso   1.000  C
  C646     1.0000 0.15000  0.19719  0.04578  Biso   1.000  C
  C647     1.0000 0.28383  0.16298  0.20577  Biso   1.000  C
  C648     1.0000 0.28375  0.16298  0.20577  Biso   1.000  C
  C649     1.0000 0.28383  0.16303  0.20577  Biso   1.000  C
  C650     1.0000 0.28375  0.16303  0.20577  Biso   1.000  C
  C651     1.0000 0.32380  0.95359  0.14191  Biso   1.000  C
  C652     1.0000 0.35552  0.04748  0.25487  Biso   1.000  C
  C653     1.0000 0.35545  0.04748  0.25487  Biso   1.000  C
  C654     1.0000 0.35552  0.04753  0.25487  Biso   1.000  C
  C655     1.0000 0.35545  0.04753  0.25487  Biso   1.000  C
  C656     1.0000 0.87323  0.12991  0.64718  Biso   1.000  C
  H590     1.0000 0.99468  0.19508  0.63905  Biso   1.000  H
  N428     1.0000 0.97443  0.19189  0.79572  Biso   1.000  N
  H591     1.0000 0.99458  0.19508  0.63897  Biso   1.000  H
  H592     1.0000 0.99468  0.19513  0.63905  Biso   1.000  H
  H593     1.0000 0.99458  0.19513  0.63897  Biso   1.000  H
  N429     1.0000 0.97451  0.19189  0.79572  Biso   1.000  N
  H594     1.0000 0.99466  0.19508  0.63897  Biso   1.000  H
  H595     1.0000 0.99466  0.19513  0.63897  Biso   1.000  H
  N430     1.0000 0.89776  0.06160  0.63523  Biso   1.000  N
  N431     1.0000 0.89775  0.06160  0.63515  Biso   1.000  N
  O231     1.0000 0.04204  0.99784  0.65912  Biso   1.000  O
  O232     1.0000 0.04197  0.99784  0.65912  Biso   1.000  O
  H596     1.0000 0.07722  0.26192  0.81181  Biso   1.000  H
  H597     1.0000 0.01897  0.26099  0.90711  Biso   1.000  H
  H598     1.0000 0.01890  0.26099  0.90711  Biso   1.000  H
  H599     1.0000 0.07730  0.26192  0.81181  Biso   1.000  H
  O233     1.0000 0.09110  0.21772  0.09688  Biso   1.000  O
  H600     1.0000 0.35429  0.17768  0.22369  Biso   1.000  H
  H601     1.0000 0.24507  0.19199  0.24252  Biso   1.000  H
  N432     1.0000 0.27947  0.09801  0.24749  Biso   1.000  N
  H602     1.0000 0.24505  0.19199  0.24243  Biso   1.000  H
  H603     1.0000 0.35429  0.17773  0.22369  Biso   1.000  H
  H604     1.0000 0.24514  0.19199  0.24252  Biso   1.000  H
  N433     1.0000 0.27954  0.09801  0.24749  Biso   1.000  N
  H605     1.0000 0.24512  0.19199  0.24243  Biso   1.000  H
  N434     1.0000 0.30204  0.93772  0.24152  Biso   1.000  N
  O234     1.0000 0.31813  0.91679  0.06411  Biso   1.000  O
  N435     1.0000 0.30195  0.93772  0.24144  Biso   1.000  N
  O235     1.0000 0.31805  0.91679  0.06411  Biso   1.000  O
  N436     1.0000 0.30204  0.93777  0.24152  Biso   1.000  N
  N437     1.0000 0.30195  0.93777  0.24144  Biso   1.000  N
  N438     1.0000 0.30202  0.93772  0.24144  Biso   1.000  N
  N439     1.0000 0.30202  0.93777  0.24144  Biso   1.000  N
  C657     1.0000 0.32280  0.99211  0.31791  Biso   1.000  C
  H606     1.0000 0.42419  0.06331  0.29079  Biso   1.000  H
  H607     1.0000 0.42427  0.06331  0.29079  Biso   1.000  H
  H608     1.0000 0.83517  0.14931  0.57742  Biso   1.000  H
  N440     1.0000 0.82442  0.14201  0.73874  Biso   1.000  N
  H609     1.0000 0.83510  0.14931  0.57742  Biso   1.000  H
  N441     1.0000 0.82440  0.14201  0.73866  Biso   1.000  N
  N442     1.0000 0.82450  0.14201  0.73874  Biso   1.000  N
  N443     1.0000 0.82448  0.14201  0.73866  Biso   1.000  N
  C658     1.0000 0.88321  0.17719  0.82069  Biso   1.000  C
  C659     1.0000 0.88328  0.17719  0.82069  Biso   1.000  C
  C660     1.0000 0.82396  0.01318  0.58058  Biso   1.000  C
  C661     1.0000 0.82389  0.01318  0.58058  Biso   1.000  C
  C662     1.0000 0.82396  0.01323  0.58058  Biso   1.000  C
  C663     1.0000 0.82389  0.01323  0.58058  Biso   1.000  C
  C664     1.0000 0.21003  0.08090  0.30821  Biso   1.000  C
  C665     1.0000 0.20995  0.08090  0.30821  Biso   1.000  C
  C666     1.0000 0.28286  0.87068  0.26848  Biso   1.000  C
  C667     1.0000 0.28286  0.87073  0.26848  Biso   1.000  C
  C668     1.0000 0.28293  0.87068  0.26848  Biso   1.000  C
  C669     1.0000 0.28293  0.87073  0.26848  Biso   1.000  C
  N444     1.0000 0.23108  0.01847  0.34710  Biso   1.000  N
  N445     1.0000 0.23116  0.01847  0.34710  Biso   1.000  N
  H610     1.0000 0.37593  0.98099  0.38418  Biso   1.000  H
  H611     1.0000 0.37586  0.98099  0.38418  Biso   1.000  H
  C670     1.0000 0.71717  0.12932  0.73153  Biso   1.000  C
  C671     1.0000 0.71708  0.12932  0.73144  Biso   1.000  C
  C672     1.0000 0.71715  0.12932  0.73144  Biso   1.000  C
  O236     1.0000 0.85968  0.19503  0.90744  Biso   1.000  O
  O237     1.0000 0.85958  0.19503  0.90736  Biso   1.000  O
  O238     1.0000 0.85968  0.19508  0.90744  Biso   1.000  O
  O239     1.0000 0.85958  0.19508  0.90736  Biso   1.000  O
  O240     1.0000 0.85966  0.19503  0.90736  Biso   1.000  O
  O241     1.0000 0.85966  0.19508  0.90736  Biso   1.000  O
  H612     1.0000 0.85931  0.98001  0.54798  Biso   1.000  H
  N446     1.0000 0.76895  0.98153  0.65290  Biso   1.000  N
  H613     1.0000 0.85939  0.98001  0.54798  Biso   1.000  H
  H614     1.0000 0.77490  0.03430  0.52069  Biso   1.000  H
  H615     1.0000 0.77498  0.03430  0.52069  Biso   1.000  H
  O242     1.0000 0.14088  0.11560  0.32396  Biso   1.000  O
  H616     1.0000 0.32178  0.86108  0.34321  Biso   1.000  H
  H617     1.0000 0.30682  0.84157  0.21813  Biso   1.000  H
  N447     1.0000 0.17561  0.85799  0.26126  Biso   1.000  N
  H618     1.0000 0.30681  0.84157  0.21805  Biso   1.000  H
  N448     1.0000 0.17554  0.85799  0.26126  Biso   1.000  N
  H619     1.0000 0.32178  0.86113  0.34321  Biso   1.000  H
  H620     1.0000 0.30682  0.84162  0.21813  Biso   1.000  H
  H621     1.0000 0.30681  0.84162  0.21805  Biso   1.000  H
  H622     1.0000 0.32185  0.86108  0.34321  Biso   1.000  H
  H623     1.0000 0.32185  0.86113  0.34321  Biso   1.000  H
  C673     1.0000 0.17607  0.98682  0.41943  Biso   1.000  C
  C674     1.0000 0.17605  0.98682  0.41934  Biso   1.000  C
  C675     1.0000 0.17614  0.98682  0.41943  Biso   1.000  C
  C676     1.0000 0.17613  0.98682  0.41934  Biso   1.000  C
  H624     1.0000 0.67826  0.13892  0.65680  Biso   1.000  H
  H625     1.0000 0.69321  0.15843  0.78187  Biso   1.000  H
  N449     1.0000 0.69799  0.06228  0.75848  Biso   1.000  N
  H626     1.0000 0.67818  0.13892  0.65680  Biso   1.000  H
  H627     1.0000 0.69328  0.15843  0.78187  Biso   1.000  H
  N450     1.0000 0.69807  0.06228  0.75848  Biso   1.000  N
  C677     1.0000 0.79001  0.91910  0.69180  Biso   1.000  C
  C678     1.0000 0.79008  0.91910  0.69180  Biso   1.000  C
  C679     1.0000 0.67723  0.00789  0.68209  Biso   1.000  C
  C680     1.0000 0.12681  0.87009  0.35283  Biso   1.000  C
  C681     1.0000 0.11683  0.82281  0.17932  Biso   1.000  C
  C682     1.0000 0.12679  0.87009  0.35274  Biso   1.000  C
  C683     1.0000 0.11673  0.82281  0.17923  Biso   1.000  C
  C684     1.0000 0.11681  0.82281  0.17923  Biso   1.000  C
  H628     1.0000 0.22513  0.96570  0.47931  Biso   1.000  H
  N451     1.0000 0.10227  0.93840  0.36477  Biso   1.000  N
  H629     1.0000 0.22504  0.96570  0.47923  Biso   1.000  H
  N452     1.0000 0.10234  0.93840  0.36477  Biso   1.000  N
  H630     1.0000 0.22511  0.96570  0.47923  Biso   1.000  H
  H631     1.0000 0.14072  0.01999  0.45202  Biso   1.000  H
  H632     1.0000 0.14070  0.01999  0.45194  Biso   1.000  H
  C685     1.0000 0.67623  0.04641  0.85809  Biso   1.000  C
  N453     1.0000 0.72056  0.90199  0.75251  Biso   1.000  N
  O243     1.0000 0.85915  0.88440  0.67604  Biso   1.000  O
  N454     1.0000 0.72049  0.90199  0.75251  Biso   1.000  N
  O244     1.0000 0.85913  0.88440  0.67596  Biso   1.000  O
  C686     1.0000 0.64451  0.95252  0.74513  Biso   1.000  C
  C687     1.0000 0.64449  0.95252  0.74505  Biso   1.000  C
  C688     1.0000 0.64459  0.95252  0.74513  Biso   1.000  C
  C689     1.0000 0.64457  0.95252  0.74505  Biso   1.000  C
  H633     1.0000 0.62410  0.01901  0.61583  Biso   1.000  H
  H634     1.0000 0.62417  0.01901  0.61583  Biso   1.000  H
  H635     1.0000 0.16486  0.85069  0.42258  Biso   1.000  H
  C690     1.0000 0.01972  0.83760  0.30887  Biso   1.000  C
  C691     1.0000 0.01964  0.83760  0.30887  Biso   1.000  C
  H636     1.0000 0.16493  0.85069  0.42258  Biso   1.000  H
  N455     1.0000 0.02560  0.80811  0.20428  Biso   1.000  N
  O245     1.0000 0.14036  0.80497  0.09256  Biso   1.000  O
  O246     1.0000 0.14043  0.80497  0.09256  Biso   1.000  O
  C692     1.0000 0.99839  0.95012  0.33549  Biso   1.000  C
  C693     1.0000 0.99846  0.95012  0.33549  Biso   1.000  C
  N456     1.0000 0.64754  0.98260  0.85303  Biso   1.000  N
  N457     1.0000 0.64752  0.98260  0.85295  Biso   1.000  N
  N458     1.0000 0.64754  0.98265  0.85303  Biso   1.000  N
  N459     1.0000 0.64752  0.98265  0.85295  Biso   1.000  N
  N460     1.0000 0.64761  0.98260  0.85303  Biso   1.000  N
  N461     1.0000 0.64761  0.98265  0.85303  Biso   1.000  N
  O247     1.0000 0.68190  0.08321  0.93589  Biso   1.000  O
  O248     1.0000 0.68190  0.08326  0.93589  Biso   1.000  O
  O249     1.0000 0.68198  0.08321  0.93589  Biso   1.000  O
  O250     1.0000 0.68198  0.08326  0.93589  Biso   1.000  O
  C694     1.0000 0.71621  0.83702  0.79423  Biso   1.000  C
  C695     1.0000 0.71619  0.83702  0.79415  Biso   1.000  C
  C696     1.0000 0.71628  0.83702  0.79423  Biso   1.000  C
  C697     1.0000 0.71626  0.83702  0.79415  Biso   1.000  C
  H637     1.0000 0.57584  0.93669  0.70922  Biso   1.000  H
  N462     1.0000 0.95140  0.89278  0.29908  Biso   1.000  N
  N463     1.0000 0.95147  0.89278  0.29908  Biso   1.000  N
  N464     1.0000 0.95140  0.89283  0.29908  Biso   1.000  N
  N465     1.0000 0.95147  0.89283  0.29908  Biso   1.000  N
  H638     1.0000 0.00536  0.80492  0.36095  Biso   1.000  H
  H639     1.0000 0.00543  0.80492  0.36095  Biso   1.000  H
  C698     1.0000 0.94935  0.76650  0.13909  Biso   1.000  C
  C699     1.0000 0.94942  0.76650  0.13909  Biso   1.000  C
  O251     1.0000 0.95799  0.00216  0.34088  Biso   1.000  O
  O252     1.0000 0.95807  0.00216  0.34088  Biso   1.000  O
  C700     1.0000 0.60881  0.95330  0.94037  Biso   1.000  C
  C701     1.0000 0.60889  0.95330  0.94037  Biso   1.000  C
  H640     1.0000 0.64574  0.82232  0.77631  Biso   1.000  H
  H641     1.0000 0.75496  0.80801  0.75749  Biso   1.000  H
  N466     1.0000 0.75736  0.83270  0.91433  Biso   1.000  N
  H642     1.0000 0.75489  0.80801  0.75749  Biso   1.000  H
  N467     1.0000 0.75735  0.83270  0.91424  Biso   1.000  N
  C702     1.0000 0.84139  0.88450  0.28606  Biso   1.000  C
  C703     1.0000 0.84147  0.88450  0.28606  Biso   1.000  C
  N468     1.0000 0.86443  0.80208  0.06826  Biso   1.000  N
  N469     1.0000 0.86451  0.80208  0.06826  Biso   1.000  N
  H643     1.0000 0.92281  0.73808  0.18819  Biso   1.000  H
  H644     1.0000 0.98106  0.73901  0.09289  Biso   1.000  H
  H645     1.0000 0.98114  0.73901  0.09289  Biso   1.000  H
  H646     1.0000 0.92281  0.73813  0.18819  Biso   1.000  H
  H647     1.0000 0.58627  0.98770  0.98292  Biso   1.000  H
  H648     1.0000 0.54976  0.92659  0.90761  Biso   1.000  H
  H649     1.0000 0.58620  0.98770  0.98292  Biso   1.000  H
  N470     1.0000 0.68285  0.91312  0.01452  Biso   1.000  N
  N471     1.0000 0.68293  0.91312  0.01452  Biso   1.000  N
  C704     1.0000 0.85003  0.80281  0.95422  Biso   1.000  C
  C705     1.0000 0.69904  0.84451  0.99702  Biso   1.000  C
  C706     1.0000 0.85001  0.80281  0.95414  Biso   1.000  C
  C707     1.0000 0.85011  0.80281  0.95422  Biso   1.000  C
  C708     1.0000 0.69911  0.84451  0.99702  Biso   1.000  C
  N472     1.0000 0.78721  0.88156  0.17069  Biso   1.000  N
  H650     1.0000 0.82891  0.84442  0.32289  Biso   1.000  H
  H651     1.0000 0.81508  0.92081  0.32156  Biso   1.000  H
  H652     1.0000 0.81516  0.92081  0.32156  Biso   1.000  H
  C709     1.0000 0.77309  0.82241  0.10699  Biso   1.000  C
  C710     1.0000 0.77316  0.82241  0.10699  Biso   1.000  C
  C711     1.0000 0.73504  0.93292  0.11869  Biso   1.000  C
  C712     1.0000 0.73511  0.93292  0.11869  Biso   1.000  C
  O253     1.0000 0.90893  0.78228  0.90313  Biso   1.000  O
  O254     1.0000 0.90892  0.78228  0.90305  Biso   1.000  O
  O255     1.0000 0.90901  0.78228  0.90313  Biso   1.000  O
  H653     1.0000 0.63484  0.81972  0.98159  Biso   1.000  H
  H654     1.0000 0.74489  0.78679  0.14374  Biso   1.000  H
  H655     1.0000 0.74495  0.78679  0.14365  Biso   1.000  H
  H656     1.0000 0.74487  0.78679  0.14365  Biso   1.000  H
  O256     1.0000 0.72970  0.98819  0.15626  Biso   1.000  O
  O257     1.0000 0.68189  0.41677  0.43593  Biso   1.000  O
  C713     1.0000 0.67621  0.45362  0.35813  Biso   1.000  C
  N473     1.0000 0.64750  0.51737  0.35299  Biso   1.000  N
  N474     1.0000 0.69798  0.43774  0.25852  Biso   1.000  N
  N475     1.0000 0.69805  0.43774  0.25852  Biso   1.000  N
  O258     1.0000 0.68196  0.41677  0.43593  Biso   1.000  O
  C714     1.0000 0.64448  0.54751  0.24509  Biso   1.000  C
  C715     1.0000 0.60880  0.54672  0.44041  Biso   1.000  C
  C716     1.0000 0.64455  0.54751  0.24509  Biso   1.000  C
  C717     1.0000 0.60887  0.54672  0.44041  Biso   1.000  C
  C718     1.0000 0.67722  0.49209  0.18214  Biso   1.000  C
  C719     1.0000 0.71706  0.37071  0.23148  Biso   1.000  C
  C720     1.0000 0.71714  0.37071  0.23148  Biso   1.000  C
  H657     1.0000 0.57581  0.56329  0.20917  Biso   1.000  H
  N476     1.0000 0.72053  0.59798  0.25247  Biso   1.000  N
  H658     1.0000 0.58623  0.51232  0.48287  Biso   1.000  H
  H659     1.0000 0.54972  0.57338  0.40756  Biso   1.000  H
  N477     1.0000 0.68289  0.58691  0.51447  Biso   1.000  N
  N478     1.0000 0.68297  0.58691  0.51447  Biso   1.000  N
  H660     1.0000 0.62406  0.48101  0.11578  Biso   1.000  H
  N479     1.0000 0.76891  0.51850  0.15286  Biso   1.000  N
  H661     1.0000 0.62414  0.48101  0.11578  Biso   1.000  H
  H662     1.0000 0.67822  0.36110  0.15676  Biso   1.000  H
  H663     1.0000 0.69319  0.34160  0.28191  Biso   1.000  H
  N480     1.0000 0.82439  0.35801  0.23870  Biso   1.000  N
  H664     1.0000 0.69326  0.34160  0.28191  Biso   1.000  H
  N481     1.0000 0.82446  0.35801  0.23870  Biso   1.000  N
  C721     1.0000 0.78997  0.58093  0.19176  Biso   1.000  C
  C722     1.0000 0.71617  0.66301  0.29419  Biso   1.000  C
  C723     1.0000 0.79005  0.58093  0.19176  Biso   1.000  C
  C724     1.0000 0.71625  0.66301  0.29419  Biso   1.000  C
  C725     1.0000 0.69900  0.65551  0.49697  Biso   1.000  C
  C726     1.0000 0.73507  0.56711  0.61865  Biso   1.000  C
  C727     1.0000 0.73515  0.56711  0.61865  Biso   1.000  C
  C728     1.0000 0.82387  0.48679  0.08062  Biso   1.000  C
  C729     1.0000 0.82395  0.48679  0.08062  Biso   1.000  C
  C730     1.0000 0.87321  0.37012  0.14722  Biso   1.000  C
  C731     1.0000 0.88319  0.32278  0.32073  Biso   1.000  C
  C732     1.0000 0.88326  0.32278  0.32073  Biso   1.000  C
  O259     1.0000 0.85911  0.61557  0.17600  Biso   1.000  O
  H665     1.0000 0.64570  0.67771  0.27627  Biso   1.000  H
  H666     1.0000 0.75487  0.69202  0.25753  Biso   1.000  H
  N482     1.0000 0.75733  0.66732  0.41428  Biso   1.000  N
  H667     1.0000 0.75495  0.69202  0.25753  Biso   1.000  H
  H668     1.0000 0.63482  0.68031  0.48163  Biso   1.000  H
  C733     1.0000 0.77313  0.67761  0.60695  Biso   1.000  C
  N483     1.0000 0.78718  0.61846  0.67065  Biso   1.000  N
  O260     1.0000 0.72968  0.51183  0.65630  Biso   1.000  O
  N484     1.0000 0.78725  0.61846  0.67065  Biso   1.000  N
  O261     1.0000 0.72976  0.51183  0.65630  Biso   1.000  O
  H669     1.0000 0.85929  0.52002  0.04802  Biso   1.000  H
  H670     1.0000 0.77488  0.46572  0.02073  Biso   1.000  H
  N485     1.0000 0.89773  0.43843  0.13519  Biso   1.000  N
  H671     1.0000 0.85937  0.52002  0.04802  Biso   1.000  H
  H672     1.0000 0.77496  0.46572  0.02073  Biso   1.000  H
  H673     1.0000 0.83506  0.35071  0.07738  Biso   1.000  H
  C734     1.0000 0.98028  0.33758  0.19109  Biso   1.000  C
  H674     1.0000 0.83514  0.35071  0.07738  Biso   1.000  H
  C735     1.0000 0.98035  0.33758  0.19109  Biso   1.000  C
  N486     1.0000 0.97440  0.30813  0.29568  Biso   1.000  N
  O262     1.0000 0.85964  0.30494  0.40740  Biso   1.000  O
  N487     1.0000 0.97447  0.30813  0.29568  Biso   1.000  N
  C736     1.0000 0.84999  0.69721  0.45418  Biso   1.000  C
  C737     1.0000 0.85007  0.69721  0.45418  Biso   1.000  C
  H675     1.0000 0.74493  0.71319  0.64369  Biso   1.000  H
  N488     1.0000 0.86449  0.69795  0.56830  Biso   1.000  N
  N489     1.0000 0.86456  0.69795  0.56830  Biso   1.000  N
  C738     1.0000 0.84145  0.61552  0.78610  Biso   1.000  C
  C739     1.0000 0.00161  0.45009  0.16447  Biso   1.000  C
  H676     1.0000 0.99464  0.30490  0.13901  Biso   1.000  H
  N490     1.0000 0.04860  0.39281  0.20088  Biso   1.000  N
  C740     1.0000 0.05057  0.26653  0.36087  Biso   1.000  C
  C741     1.0000 0.05065  0.26653  0.36087  Biso   1.000  C
  O263     1.0000 0.90890  0.71774  0.40309  Biso   1.000  O
  O264     1.0000 0.90897  0.71774  0.40309  Biso   1.000  O
  C742     1.0000 0.94939  0.73352  0.63905  Biso   1.000  C
  C743     1.0000 0.94946  0.73352  0.63905  Biso   1.000  C
  H677     1.0000 0.82894  0.65561  0.82284  Biso   1.000  H
  H678     1.0000 0.81514  0.57921  0.82160  Biso   1.000  H
  N491     1.0000 0.95145  0.60719  0.79912  Biso   1.000  N
  O265     1.0000 0.04201  0.50218  0.15908  Biso   1.000  O
  C744     1.0000 0.15860  0.38452  0.21390  Biso   1.000  C
  C745     1.0000 0.15868  0.38452  0.21390  Biso   1.000  C
  H679     1.0000 0.07719  0.23810  0.31177  Biso   1.000  H
  H680     1.0000 0.01894  0.23899  0.40707  Biso   1.000  H
  N492     1.0000 0.13549  0.30210  0.43170  Biso   1.000  N
  H681     1.0000 0.07726  0.23810  0.31177  Biso   1.000  H
  N493     1.0000 0.13556  0.30210  0.43170  Biso   1.000  N
  H682     1.0000 0.92285  0.76190  0.68815  Biso   1.000  H
  H683     1.0000 0.98110  0.76101  0.59285  Biso   1.000  H
  H684     1.0000 0.98117  0.76101  0.59285  Biso   1.000  H
  N494     1.0000 0.02566  0.69192  0.70432  Biso   1.000  N
  C746     1.0000 0.99842  0.54991  0.83545  Biso   1.000  C
  C747     1.0000 0.01970  0.66242  0.80891  Biso   1.000  C
  C748     1.0000 0.01978  0.66242  0.80891  Biso   1.000  C
  H685     1.0000 0.17109  0.34439  0.17708  Biso   1.000  H
  H686     1.0000 0.18492  0.42079  0.17840  Biso   1.000  H
  N495     1.0000 0.21278  0.38158  0.32927  Biso   1.000  N
  H687     1.0000 0.17117  0.34439  0.17708  Biso   1.000  H
  N496     1.0000 0.21286  0.38158  0.32927  Biso   1.000  N
  C749     1.0000 0.22691  0.32239  0.39297  Biso   1.000  C
  C750     1.0000 0.15006  0.30279  0.54582  Biso   1.000  C
  C751     1.0000 0.11679  0.67722  0.67927  Biso   1.000  C
  C752     1.0000 0.11686  0.67722  0.67927  Biso   1.000  C
  O266     1.0000 0.95803  0.49787  0.84084  Biso   1.000  O
  N497     1.0000 0.10233  0.56157  0.86481  Biso   1.000  N
  N498     1.0000 0.10240  0.56157  0.86481  Biso   1.000  N
  C753     1.0000 0.12684  0.62988  0.85278  Biso   1.000  C
  H688     1.0000 0.00541  0.69510  0.86100  Biso   1.000  H
  H689     1.0000 0.00549  0.69510  0.86100  Biso   1.000  H
  C754     1.0000 0.26489  0.43289  0.38127  Biso   1.000  C
  C755     1.0000 0.26496  0.43289  0.38127  Biso   1.000  C
  H690     1.0000 0.25512  0.28681  0.35631  Biso   1.000  H
  C756     1.0000 0.30105  0.34449  0.50303  Biso   1.000  C
  N499     1.0000 0.24272  0.33268  0.58572  Biso   1.000  N
  O267     1.0000 0.09116  0.28226  0.59692  Biso   1.000  O
  N500     1.0000 0.24280  0.33268  0.58572  Biso   1.000  N
  N501     1.0000 0.17567  0.64199  0.76130  Biso   1.000  N
  O268     1.0000 0.14041  0.69506  0.59260  Biso   1.000  O
  O269     1.0000 0.14049  0.69506  0.59260  Biso   1.000  O
  C757     1.0000 0.17611  0.51321  0.91938  Biso   1.000  C
  C758     1.0000 0.17618  0.51321  0.91938  Biso   1.000  C
  H691     1.0000 0.16492  0.64929  0.92262  Biso   1.000  H
  H692     1.0000 0.16499  0.64929  0.92262  Biso   1.000  H
  O270     1.0000 0.27030  0.48817  0.34370  Biso   1.000  O
  N502     1.0000 0.31716  0.41309  0.48553  Biso   1.000  N
  O271     1.0000 0.27037  0.48817  0.34370  Biso   1.000  O
  H693     1.0000 0.36523  0.31969  0.51837  Biso   1.000  H
  C759     1.0000 0.28381  0.33699  0.70582  Biso   1.000  C
  C760     1.0000 0.28388  0.33699  0.70582  Biso   1.000  C
  C761     1.0000 0.28292  0.62929  0.76852  Biso   1.000  C
  C762     1.0000 0.28299  0.62929  0.76852  Biso   1.000  C
  H694     1.0000 0.14076  0.47998  0.95198  Biso   1.000  H
  H695     1.0000 0.22517  0.53433  0.97927  Biso   1.000  H
  N503     1.0000 0.23112  0.48155  0.84706  Biso   1.000  N
  N504     1.0000 0.23120  0.48155  0.84706  Biso   1.000  N
  C763     1.0000 0.39126  0.45332  0.55959  Biso   1.000  C
  H696     1.0000 0.35433  0.32229  0.72365  Biso   1.000  H
  H697     1.0000 0.24511  0.30798  0.74247  Biso   1.000  H
  N505     1.0000 0.27951  0.40202  0.74745  Biso   1.000  N
  H698     1.0000 0.24518  0.30798  0.74247  Biso   1.000  H
  N506     1.0000 0.27958  0.40202  0.74745  Biso   1.000  N
  H699     1.0000 0.32181  0.63890  0.84316  Biso   1.000  H
  H700     1.0000 0.30686  0.65840  0.71809  Biso   1.000  H
  N507     1.0000 0.30200  0.56226  0.74148  Biso   1.000  N
  H701     1.0000 0.32189  0.63890  0.84316  Biso   1.000  H
  N508     1.0000 0.30208  0.56226  0.74148  Biso   1.000  N
  C764     1.0000 0.32284  0.50791  0.81787  Biso   1.000  C
  C765     1.0000 0.21006  0.41912  0.80816  Biso   1.000  C
  H702     1.0000 0.41382  0.48772  0.51713  Biso   1.000  H
  H703     1.0000 0.45032  0.42662  0.59235  Biso   1.000  H
  N509     1.0000 0.35255  0.48263  0.64701  Biso   1.000  N
  H704     1.0000 0.41389  0.48772  0.51713  Biso   1.000  H
  H705     1.0000 0.45039  0.42662  0.59235  Biso   1.000  H
  C766     1.0000 0.35558  0.45249  0.75492  Biso   1.000  C
  C767     1.0000 0.32384  0.54638  0.64187  Biso   1.000  C
  H706     1.0000 0.37592  0.51899  0.88422  Biso   1.000  H
  H707     1.0000 0.37599  0.51899  0.88422  Biso   1.000  H
  O272     1.0000 0.14094  0.38443  0.82400  Biso   1.000  O
  H708     1.0000 0.42423  0.43671  0.79075  Biso   1.000  H
  O273     1.0000 0.31809  0.58323  0.56407  Biso   1.000  O
  O274     1.0000 0.31817  0.58323  0.56407  Biso   1.000  O
  O275     1.0000 0.68189  0.41677  0.43593  Biso   1.000  O
  C768     1.0000 0.67621  0.45362  0.35813  Biso   1.000  C
  N510     1.0000 0.64750  0.51737  0.35299  Biso   1.000  N
  N511     1.0000 0.69798  0.43774  0.25852  Biso   1.000  N
  N512     1.0000 0.69805  0.43774  0.25852  Biso   1.000  N
  O276     1.0000 0.68196  0.41677  0.43593  Biso   1.000  O
  C769     1.0000 0.64448  0.54751  0.24509  Biso   1.000  C
  C770     1.0000 0.60880  0.54672  0.44041  Biso   1.000  C
  C771     1.0000 0.64455  0.54751  0.24509  Biso   1.000  C
  C772     1.0000 0.60887  0.54672  0.44041  Biso   1.000  C
  C773     1.0000 0.67722  0.49209  0.18214  Biso   1.000  C
  C774     1.0000 0.71706  0.37071  0.23148  Biso   1.000  C
  C775     1.0000 0.71714  0.37071  0.23148  Biso   1.000  C
  H709     1.0000 0.57581  0.56329  0.20917  Biso   1.000  H
  N513     1.0000 0.72053  0.59798  0.25247  Biso   1.000  N
  H710     1.0000 0.58623  0.51232  0.48287  Biso   1.000  H
  H711     1.0000 0.54972  0.57338  0.40756  Biso   1.000  H
  N514     1.0000 0.68289  0.58691  0.51447  Biso   1.000  N
  N515     1.0000 0.68297  0.58691  0.51447  Biso   1.000  N
  N516     1.0000 0.76891  0.51850  0.15286  Biso   1.000  N
  H712     1.0000 0.62406  0.48101  0.11578  Biso   1.000  H
  H713     1.0000 0.62414  0.48101  0.11578  Biso   1.000  H
  H714     1.0000 0.67822  0.36110  0.15676  Biso   1.000  H
  H715     1.0000 0.69319  0.34160  0.28191  Biso   1.000  H
  N517     1.0000 0.82439  0.35801  0.23870  Biso   1.000  N
  H716     1.0000 0.69326  0.34160  0.28191  Biso   1.000  H
  N518     1.0000 0.82446  0.35801  0.23870  Biso   1.000  N
  C776     1.0000 0.78997  0.58093  0.19176  Biso   1.000  C
  C777     1.0000 0.71617  0.66301  0.29419  Biso   1.000  C
  C778     1.0000 0.79005  0.58093  0.19176  Biso   1.000  C
  C779     1.0000 0.71625  0.66301  0.29419  Biso   1.000  C
  C780     1.0000 0.69900  0.65551  0.49697  Biso   1.000  C
  C781     1.0000 0.73507  0.56711  0.61865  Biso   1.000  C
  C782     1.0000 0.73515  0.56711  0.61865  Biso   1.000  C
  C783     1.0000 0.82387  0.48679  0.08062  Biso   1.000  C
  C784     1.0000 0.82395  0.48679  0.08062  Biso   1.000  C
  C785     1.0000 0.87321  0.37012  0.14722  Biso   1.000  C
  C786     1.0000 0.88319  0.32278  0.32073  Biso   1.000  C
  C787     1.0000 0.88326  0.32278  0.32073  Biso   1.000  C
  O277     1.0000 0.85911  0.61557  0.17600  Biso   1.000  O
  H717     1.0000 0.64570  0.67771  0.27627  Biso   1.000  H
  N519     1.0000 0.75733  0.66732  0.41428  Biso   1.000  N
  H718     1.0000 0.75487  0.69202  0.25753  Biso   1.000  H
  H719     1.0000 0.75495  0.69202  0.25753  Biso   1.000  H
  H720     1.0000 0.63482  0.68031  0.48163  Biso   1.000  H
  C788     1.0000 0.77313  0.67761  0.60695  Biso   1.000  C
  N520     1.0000 0.78718  0.61846  0.67065  Biso   1.000  N
  O278     1.0000 0.72968  0.51183  0.65630  Biso   1.000  O
  N521     1.0000 0.78725  0.61846  0.67065  Biso   1.000  N
  O279     1.0000 0.72976  0.51183  0.65630  Biso   1.000  O
  N522     1.0000 0.89773  0.43843  0.13519  Biso   1.000  N
  H721     1.0000 0.85929  0.52002  0.04802  Biso   1.000  H
  H722     1.0000 0.77488  0.46572  0.02073  Biso   1.000  H
  H723     1.0000 0.85937  0.52002  0.04802  Biso   1.000  H
  H724     1.0000 0.77496  0.46572  0.02073  Biso   1.000  H
  H725     1.0000 0.83506  0.35071  0.07738  Biso   1.000  H
  C789     1.0000 0.98028  0.33758  0.19109  Biso   1.000  C
  H726     1.0000 0.83514  0.35071  0.07738  Biso   1.000  H
  C790     1.0000 0.98035  0.33758  0.19109  Biso   1.000  C
  O280     1.0000 0.85964  0.30494  0.40740  Biso   1.000  O
  N523     1.0000 0.97440  0.30813  0.29568  Biso   1.000  N
  N524     1.0000 0.97447  0.30813  0.29568  Biso   1.000  N
  C791     1.0000 0.84999  0.69721  0.45418  Biso   1.000  C
  C792     1.0000 0.85007  0.69721  0.45418  Biso   1.000  C
  H727     1.0000 0.74493  0.71319  0.64369  Biso   1.000  H
  N525     1.0000 0.86449  0.69795  0.56830  Biso   1.000  N
  N526     1.0000 0.86456  0.69795  0.56830  Biso   1.000  N
  C793     1.0000 0.84145  0.61552  0.78610  Biso   1.000  C
  C794     1.0000 0.00161  0.45009  0.16447  Biso   1.000  C
  H728     1.0000 0.99464  0.30490  0.13901  Biso   1.000  H
  N527     1.0000 0.04860  0.39281  0.20088  Biso   1.000  N
  C795     1.0000 0.05057  0.26653  0.36087  Biso   1.000  C
  C796     1.0000 0.05065  0.26653  0.36087  Biso   1.000  C
  O281     1.0000 0.90890  0.71774  0.40309  Biso   1.000  O
  O282     1.0000 0.90897  0.71774  0.40309  Biso   1.000  O
  C797     1.0000 0.94939  0.73352  0.63905  Biso   1.000  C
  C798     1.0000 0.94946  0.73352  0.63905  Biso   1.000  C
  H729     1.0000 0.82894  0.65561  0.82284  Biso   1.000  H
  H730     1.0000 0.81514  0.57921  0.82160  Biso   1.000  H
  N528     1.0000 0.95145  0.60719  0.79912  Biso   1.000  N
  O283     1.0000 0.04201  0.50218  0.15908  Biso   1.000  O
  C799     1.0000 0.15860  0.38452  0.21390  Biso   1.000  C
  C800     1.0000 0.15868  0.38452  0.21390  Biso   1.000  C
  H731     1.0000 0.07719  0.23810  0.31177  Biso   1.000  H
  H732     1.0000 0.01894  0.23899  0.40707  Biso   1.000  H
  N529     1.0000 0.13549  0.30210  0.43170  Biso   1.000  N
  H733     1.0000 0.07726  0.23810  0.31177  Biso   1.000  H
  N530     1.0000 0.13556  0.30210  0.43170  Biso   1.000  N
  H734     1.0000 0.92285  0.76190  0.68815  Biso   1.000  H
  H735     1.0000 0.98110  0.76101  0.59285  Biso   1.000  H
  H736     1.0000 0.98117  0.76101  0.59285  Biso   1.000  H
  N531     1.0000 0.02566  0.69192  0.70432  Biso   1.000  N
  C801     1.0000 0.99842  0.54991  0.83545  Biso   1.000  C
  C802     1.0000 0.01970  0.66242  0.80891  Biso   1.000  C
  C803     1.0000 0.01978  0.66242  0.80891  Biso   1.000  C
  H737     1.0000 0.17109  0.34439  0.17708  Biso   1.000  H
  H738     1.0000 0.18492  0.42079  0.17840  Biso   1.000  H
  N532     1.0000 0.21278  0.38158  0.32927  Biso   1.000  N
  H739     1.0000 0.17117  0.34439  0.17708  Biso   1.000  H
  N533     1.0000 0.21286  0.38158  0.32927  Biso   1.000  N
  C804     1.0000 0.22691  0.32239  0.39297  Biso   1.000  C
  C805     1.0000 0.15006  0.30279  0.54582  Biso   1.000  C
  C806     1.0000 0.11679  0.67722  0.67927  Biso   1.000  C
  C807     1.0000 0.11686  0.67722  0.67927  Biso   1.000  C
  O284     1.0000 0.95803  0.49787  0.84084  Biso   1.000  O
  N534     1.0000 0.10233  0.56157  0.86481  Biso   1.000  N
  N535     1.0000 0.10240  0.56157  0.86481  Biso   1.000  N
  C808     1.0000 0.12684  0.62988  0.85278  Biso   1.000  C
  H740     1.0000 0.00541  0.69510  0.86100  Biso   1.000  H
  H741     1.0000 0.00549  0.69510  0.86100  Biso   1.000  H
  C809     1.0000 0.26489  0.43289  0.38127  Biso   1.000  C
  C810     1.0000 0.26496  0.43289  0.38127  Biso   1.000  C
  H742     1.0000 0.25512  0.28681  0.35631  Biso   1.000  H
  C811     1.0000 0.30105  0.34449  0.50303  Biso   1.000  C
  N536     1.0000 0.24272  0.33268  0.58572  Biso   1.000  N
  O285     1.0000 0.09116  0.28226  0.59692  Biso   1.000  O
  N537     1.0000 0.24280  0.33268  0.58572  Biso   1.000  N
  N538     1.0000 0.17567  0.64199  0.76130  Biso   1.000  N
  O286     1.0000 0.14041  0.69506  0.59260  Biso   1.000  O
  O287     1.0000 0.14049  0.69506  0.59260  Biso   1.000  O
  C812     1.0000 0.17611  0.51321  0.91938  Biso   1.000  C
  C813     1.0000 0.17618  0.51321  0.91938  Biso   1.000  C
  H743     1.0000 0.16492  0.64929  0.92262  Biso   1.000  H
  H744     1.0000 0.16499  0.64929  0.92262  Biso   1.000  H
  O288     1.0000 0.27030  0.48817  0.34370  Biso   1.000  O
  N539     1.0000 0.31716  0.41309  0.48553  Biso   1.000  N
  O289     1.0000 0.27037  0.48817  0.34370  Biso   1.000  O
  H745     1.0000 0.36523  0.31969  0.51837  Biso   1.000  H
  C814     1.0000 0.28381  0.33699  0.70582  Biso   1.000  C
  C815     1.0000 0.28388  0.33699  0.70582  Biso   1.000  C
  C816     1.0000 0.28292  0.62929  0.76852  Biso   1.000  C
  C817     1.0000 0.28299  0.62929  0.76852  Biso   1.000  C
  H746     1.0000 0.14076  0.47998  0.95198  Biso   1.000  H
  H747     1.0000 0.22517  0.53433  0.97927  Biso   1.000  H
  N540     1.0000 0.23112  0.48155  0.84706  Biso   1.000  N
  N541     1.0000 0.23120  0.48155  0.84706  Biso   1.000  N
  C818     1.0000 0.39126  0.45332  0.55959  Biso   1.000  C
  H748     1.0000 0.35433  0.32229  0.72365  Biso   1.000  H
  H749     1.0000 0.24511  0.30798  0.74247  Biso   1.000  H
  N542     1.0000 0.27951  0.40202  0.74745  Biso   1.000  N
  H750     1.0000 0.24518  0.30798  0.74247  Biso   1.000  H
  N543     1.0000 0.27958  0.40202  0.74745  Biso   1.000  N
  H751     1.0000 0.32181  0.63890  0.84316  Biso   1.000  H
  H752     1.0000 0.30686  0.65840  0.71809  Biso   1.000  H
  N544     1.0000 0.30200  0.56226  0.74148  Biso   1.000  N
  H753     1.0000 0.32189  0.63890  0.84316  Biso   1.000  H
  N545     1.0000 0.30208  0.56226  0.74148  Biso   1.000  N
  C819     1.0000 0.32284  0.50791  0.81787  Biso   1.000  C
  C820     1.0000 0.21006  0.41912  0.80816  Biso   1.000  C
  H754     1.0000 0.41382  0.48772  0.51713  Biso   1.000  H
  H755     1.0000 0.45032  0.42662  0.59235  Biso   1.000  H
  N546     1.0000 0.35255  0.48263  0.64701  Biso   1.000  N
  H756     1.0000 0.41389  0.48772  0.51713  Biso   1.000  H
  H757     1.0000 0.45039  0.42662  0.59235  Biso   1.000  H
  C821     1.0000 0.35558  0.45249  0.75492  Biso   1.000  C
  C822     1.0000 0.32384  0.54638  0.64187  Biso   1.000  C
  H758     1.0000 0.37592  0.51899  0.88422  Biso   1.000  H
  H759     1.0000 0.37599  0.51899  0.88422  Biso   1.000  H
  O290     1.0000 0.14094  0.38443  0.82400  Biso   1.000  O
  H760     1.0000 0.42423  0.43671  0.79075  Biso   1.000  H
  O291     1.0000 0.31809  0.58323  0.56407  Biso   1.000  O
  O292     1.0000 0.31817  0.58323  0.56407  Biso   1.000  O
