data_image0
_cell_length_a       33.379
_cell_length_b       33.379
_cell_length_c       40.257
_cell_angle_alpha    90
_cell_angle_beta     90
_cell_angle_gamma    90

_symmetry_space_group_name_H-M    "P 1"
_symmetry_int_tables_number       1

loop_
  _symmetry_equiv_pos_as_xyz
  'x, y, z'

loop_
  _atom_site_label
  _atom_site_occupancy
  _atom_site_fract_x
  _atom_site_fract_y
  _atom_site_fract_z
  _atom_site_thermal_displace_type
  _atom_site_B_iso_or_equiv
  _atom_site_type_symbol
  C1       1.0000 0.51251  0.54756  0.48481  Biso   1.000  C
  C2       1.0000 0.52347  0.53282  0.45232  Biso   1.000  C
  C3       1.0000 0.47674  0.56601  0.49204  Biso   1.000  C
  C4       1.0000 0.54118  0.54307  0.51020  Biso   1.000  C
  C5       1.0000 0.55849  0.51496  0.44812  Biso   1.000  C
  H1       1.0000 0.50601  0.53591  0.43451  Biso   1.000  H
  H2       1.0000 0.45801  0.57000  0.47530  Biso   1.000  H
  C6       1.0000 0.46859  0.57857  0.52381  Biso   1.000  C
  N1       1.0000 0.57776  0.52533  0.50540  Biso   1.000  N
  N2       1.0000 0.53387  0.55598  0.54212  Biso   1.000  N
  C7       1.0000 0.58483  0.51131  0.47572  Biso   1.000  C
  H3       1.0000 0.56580  0.50490  0.42740  Biso   1.000  H
  H4       1.0000 0.44429  0.59040  0.52960  Biso   1.000  H
  C8       1.0000 0.49945  0.57228  0.54691  Biso   1.000  C
  O1       1.0000 0.62147  0.49567  0.46782  Biso   1.000  O
  O2       1.0000 0.48977  0.58555  0.57841  Biso   1.000  O
  C9       1.0000 0.64678  0.47814  0.49067  Biso   1.000  C
  C10      1.0000 0.52021  0.58303  0.60312  Biso   1.000  C
  C11      1.0000 0.63546  0.45705  0.51872  Biso   1.000  C
  C12      1.0000 0.68759  0.47904  0.48036  Biso   1.000  C
  C13      1.0000 0.52788  0.54657  0.61813  Biso   1.000  C
  C14      1.0000 0.53926  0.61787  0.61214  Biso   1.000  C
  C15      1.0000 0.66434  0.43512  0.53665  Biso   1.000  C
  H5       1.0000 0.60889  0.45729  0.52570  Biso   1.000  H
  C16      1.0000 0.71545  0.45726  0.49870  Biso   1.000  C
  H6       1.0000 0.69541  0.49381  0.46191  Biso   1.000  H
  H7       1.0000 0.51410  0.52371  0.61160  Biso   1.000  H
  C17      1.0000 0.55649  0.54486  0.64307  Biso   1.000  C
  C18      1.0000 0.56763  0.61539  0.63686  Biso   1.000  C
  H8       1.0000 0.53321  0.64211  0.60201  Biso   1.000  H
  C19      1.0000 0.70425  0.43554  0.52622  Biso   1.000  C
  H9       1.0000 0.65691  0.42050  0.55531  Biso   1.000  H
  C20      1.0000 0.75943  0.45277  0.48903  Biso   1.000  C
  H10      1.0000 0.56221  0.52069  0.65360  Biso   1.000  H
  C21      1.0000 0.57623  0.57935  0.65199  Biso   1.000  C
  C22      1.0000 0.59319  0.65071  0.65052  Biso   1.000  C
  C23      1.0000 0.73915  0.41239  0.54177  Biso   1.000  C
  C24      1.0000 0.78238  0.46526  0.52048  Biso   1.000  C
  H11      1.0000 0.76689  0.46811  0.46921  Biso   1.000  H
  C25      1.0000 0.76647  0.40786  0.48563  Biso   1.000  C
  C26      1.0000 0.61056  0.58237  0.67819  Biso   1.000  C
  H12      1.0000 0.58660  0.67641  0.64011  Biso   1.000  H
  C27      1.0000 0.63585  0.63837  0.64491  Biso   1.000  C
  C28      1.0000 0.58702  0.65101  0.68791  Biso   1.000  C
  C29      1.0000 0.77171  0.44321  0.54823  Biso   1.000  C
  H13      1.0000 0.73151  0.39711  0.56159  Biso   1.000  H
  C30      1.0000 0.75604  0.38581  0.51328  Biso   1.000  C
  C31      1.0000 0.81135  0.49393  0.52138  Biso   1.000  C
  C32      1.0000 0.78286  0.38761  0.45811  Biso   1.000  C
  H14      1.0000 0.61721  0.55670  0.68870  Biso   1.000  H
  C33      1.0000 0.64514  0.60119  0.65981  Biso   1.000  C
  C34      1.0000 0.59636  0.61470  0.70291  Biso   1.000  C
  C35      1.0000 0.66512  0.66036  0.62871  Biso   1.000  C
  C36      1.0000 0.57521  0.68270  0.70740  Biso   1.000  C
  C37      1.0000 0.79173  0.44965  0.57823  Biso   1.000  C
  C38      1.0000 0.76201  0.34534  0.51484  Biso   1.000  C
  C39      1.0000 0.83073  0.50040  0.55225  Biso   1.000  C
  H15      1.0000 0.81809  0.50861  0.50260  Biso   1.000  H
  C40      1.0000 0.78831  0.34821  0.45895  Biso   1.000  C
  H16      1.0000 0.78990  0.40199  0.43920  Biso   1.000  H
  C41      1.0000 0.68405  0.58684  0.65805  Biso   1.000  C
  C42      1.0000 0.59537  0.60969  0.73706  Biso   1.000  C
  H17      1.0000 0.65889  0.68480  0.61880  Biso   1.000  H
  C43      1.0000 0.70407  0.64517  0.62757  Biso   1.000  C
  C44      1.0000 0.57329  0.67779  0.74151  Biso   1.000  C
  H18      1.0000 0.56850  0.70709  0.69779  Biso   1.000  H
  H19      1.0000 0.78549  0.43470  0.59699  Biso   1.000  H
  C45      1.0000 0.82120  0.47901  0.57935  Biso   1.000  C
  H20      1.0000 0.75491  0.33081  0.53370  Biso   1.000  H
  C46      1.0000 0.77929  0.32619  0.48719  Biso   1.000  C
  O3       1.0000 0.86186  0.52866  0.55250  Biso   1.000  O
  H21      1.0000 0.79841  0.33521  0.44030  Biso   1.000  H
  C47      1.0000 0.71338  0.60871  0.64252  Biso   1.000  C
  H22      1.0000 0.69031  0.56221  0.66741  Biso   1.000  H
  H23      1.0000 0.60161  0.58531  0.74700  Biso   1.000  H
  C48      1.0000 0.58450  0.64331  0.75599  Biso   1.000  C
  O4       1.0000 0.73148  0.67252  0.61420  Biso   1.000  O
  H24      1.0000 0.56410  0.69879  0.75470  Biso   1.000  H
  H25      1.0000 0.83451  0.48390  0.59920  Biso   1.000  H
  H26      1.0000 0.78471  0.29890  0.48789  Biso   1.000  H
  C49      1.0000 0.85209  0.56769  0.56030  Biso   1.000  C
  H27      1.0000 0.73960  0.59921  0.64200  Biso   1.000  H
  H28      1.0000 0.58501  0.64169  0.77909  Biso   1.000  H
  C50      1.0000 0.76809  0.66164  0.60099  Biso   1.000  C
  N3       1.0000 0.81740  0.57656  0.57116  Biso   1.000  N
  C51      1.0000 0.88469  0.59579  0.55436  Biso   1.000  C
  N4       1.0000 0.77405  0.62473  0.59147  Biso   1.000  N
  C52      1.0000 0.79457  0.69301  0.59853  Biso   1.000  C
  C53      1.0000 0.81078  0.61659  0.57876  Biso   1.000  C
  C54      1.0000 0.87840  0.63339  0.56134  Biso   1.000  C
  H29      1.0000 0.90910  0.58720  0.54589  Biso   1.000  H
  C55      1.0000 0.83097  0.68504  0.58494  Biso   1.000  C
  H30      1.0000 0.78789  0.71860  0.60591  Biso   1.000  H
  C56      1.0000 0.84062  0.64639  0.57493  Biso   1.000  C
  H31      1.0000 0.89859  0.65209  0.55749  Biso   1.000  H
  H32      1.0000 0.84961  0.70559  0.58241  Biso   1.000  H
  C57      1.0000 0.48749  0.45244  0.51519  Biso   1.000  C
  C58      1.0000 0.45882  0.45693  0.48980  Biso   1.000  C
  C59      1.0000 0.52326  0.43399  0.50796  Biso   1.000  C
  C60      1.0000 0.47653  0.46718  0.54768  Biso   1.000  C
  N5       1.0000 0.46613  0.44402  0.45788  Biso   1.000  N
  N6       1.0000 0.42224  0.47467  0.49460  Biso   1.000  N
  C61      1.0000 0.53141  0.42143  0.47619  Biso   1.000  C
  H33      1.0000 0.54199  0.43000  0.52470  Biso   1.000  H
  C62      1.0000 0.44151  0.48504  0.55188  Biso   1.000  C
  H34      1.0000 0.49399  0.46409  0.56549  Biso   1.000  H
  C63      1.0000 0.50055  0.42772  0.45309  Biso   1.000  C
  C64      1.0000 0.41517  0.48869  0.52428  Biso   1.000  C
  H35      1.0000 0.55571  0.40960  0.47040  Biso   1.000  H
  H36      1.0000 0.43420  0.49510  0.57260  Biso   1.000  H
  O5       1.0000 0.51023  0.41445  0.42159  Biso   1.000  O
  O6       1.0000 0.37853  0.50433  0.53218  Biso   1.000  O
  C65      1.0000 0.47979  0.41697  0.39688  Biso   1.000  C
  C66      1.0000 0.35322  0.52186  0.50933  Biso   1.000  C
  C67      1.0000 0.46074  0.38213  0.38786  Biso   1.000  C
  C68      1.0000 0.47212  0.45343  0.38187  Biso   1.000  C
  C69      1.0000 0.31241  0.52096  0.51964  Biso   1.000  C
  C70      1.0000 0.36454  0.54295  0.48128  Biso   1.000  C
  C71      1.0000 0.43237  0.38461  0.36314  Biso   1.000  C
  H37      1.0000 0.46679  0.35789  0.39799  Biso   1.000  H
  C72      1.0000 0.44351  0.45514  0.35693  Biso   1.000  C
  H38      1.0000 0.48590  0.47629  0.38840  Biso   1.000  H
  C73      1.0000 0.28455  0.54274  0.50130  Biso   1.000  C
  H39      1.0000 0.30459  0.50619  0.53809  Biso   1.000  H
  C74      1.0000 0.33566  0.56488  0.46335  Biso   1.000  C
  H40      1.0000 0.39111  0.54271  0.47430  Biso   1.000  H
  C75      1.0000 0.40681  0.34929  0.34948  Biso   1.000  C
  C76      1.0000 0.42377  0.42065  0.34801  Biso   1.000  C
  H41      1.0000 0.43779  0.47931  0.34640  Biso   1.000  H
  C77      1.0000 0.24057  0.54723  0.51097  Biso   1.000  C
  C78      1.0000 0.29575  0.56446  0.47378  Biso   1.000  C
  H42      1.0000 0.34309  0.57950  0.44469  Biso   1.000  H
  C79      1.0000 0.36415  0.36163  0.35509  Biso   1.000  C
  H43      1.0000 0.41340  0.32359  0.35989  Biso   1.000  H
  C80      1.0000 0.41298  0.34899  0.31209  Biso   1.000  C
  C81      1.0000 0.38944  0.41763  0.32181  Biso   1.000  C
  C82      1.0000 0.21762  0.53474  0.47952  Biso   1.000  C
  H44      1.0000 0.23311  0.53189  0.53079  Biso   1.000  H
  C83      1.0000 0.23353  0.59214  0.51437  Biso   1.000  C
  C84      1.0000 0.26085  0.58761  0.45823  Biso   1.000  C
  C85      1.0000 0.33488  0.33964  0.37129  Biso   1.000  C
  C86      1.0000 0.35486  0.39881  0.34019  Biso   1.000  C
  C87      1.0000 0.40364  0.38530  0.29709  Biso   1.000  C
  C88      1.0000 0.42479  0.31730  0.29260  Biso   1.000  C
  H45      1.0000 0.38279  0.44330  0.31130  Biso   1.000  H
  C89      1.0000 0.18865  0.50607  0.47862  Biso   1.000  C
  C90      1.0000 0.22829  0.55679  0.45177  Biso   1.000  C
  C91      1.0000 0.24396  0.61419  0.48672  Biso   1.000  C
  C92      1.0000 0.21714  0.61239  0.54189  Biso   1.000  C
  H46      1.0000 0.26849  0.60289  0.43841  Biso   1.000  H
  C93      1.0000 0.29593  0.35483  0.37243  Biso   1.000  C
  H47      1.0000 0.34111  0.31520  0.38120  Biso   1.000  H
  C94      1.0000 0.31595  0.41316  0.34195  Biso   1.000  C
  C95      1.0000 0.40463  0.39031  0.26294  Biso   1.000  C
  C96      1.0000 0.42671  0.32221  0.25849  Biso   1.000  C
  H48      1.0000 0.43150  0.29291  0.30221  Biso   1.000  H
  C97      1.0000 0.16927  0.49960  0.44775  Biso   1.000  C
  H49      1.0000 0.18191  0.49139  0.49740  Biso   1.000  H
  C98      1.0000 0.20827  0.55035  0.42177  Biso   1.000  C
  C99      1.0000 0.23799  0.65466  0.48516  Biso   1.000  C
  C100     1.0000 0.21169  0.65179  0.54105  Biso   1.000  C
  H50      1.0000 0.21010  0.59801  0.56080  Biso   1.000  H
  O7       1.0000 0.26852  0.32748  0.38580  Biso   1.000  O
  C101     1.0000 0.28662  0.39129  0.35748  Biso   1.000  C
  H51      1.0000 0.30969  0.43779  0.33259  Biso   1.000  H
  H52      1.0000 0.39839  0.41469  0.25300  Biso   1.000  H
  C102     1.0000 0.41550  0.35669  0.24401  Biso   1.000  C
  H53      1.0000 0.43590  0.30121  0.24530  Biso   1.000  H
  O8       1.0000 0.13814  0.47134  0.44750  Biso   1.000  O
  C103     1.0000 0.17880  0.52099  0.42065  Biso   1.000  C
  H54      1.0000 0.21451  0.56530  0.40301  Biso   1.000  H
  H55      1.0000 0.24509  0.66919  0.46630  Biso   1.000  H
  C104     1.0000 0.22071  0.67381  0.51281  Biso   1.000  C
  H56      1.0000 0.20159  0.66479  0.55970  Biso   1.000  H
  C105     1.0000 0.23191  0.33836  0.39901  Biso   1.000  C
  H57      1.0000 0.26040  0.40079  0.35800  Biso   1.000  H
  H58      1.0000 0.41499  0.35831  0.22091  Biso   1.000  H
  C106     1.0000 0.14791  0.43231  0.43970  Biso   1.000  C
  H59      1.0000 0.16549  0.51610  0.40080  Biso   1.000  H
  H60      1.0000 0.21529  0.70110  0.51211  Biso   1.000  H
  N7       1.0000 0.22595  0.37527  0.40853  Biso   1.000  N
  C107     1.0000 0.20543  0.30699  0.40147  Biso   1.000  C
  N8       1.0000 0.18260  0.42344  0.42884  Biso   1.000  N
  C108     1.0000 0.11531  0.40421  0.44564  Biso   1.000  C
  C109     1.0000 0.18922  0.38341  0.42124  Biso   1.000  C
  H61      1.0000 0.21211  0.28140  0.39409  Biso   1.000  H
  C110     1.0000 0.16903  0.31496  0.41506  Biso   1.000  C
  C111     1.0000 0.12160  0.36661  0.43866  Biso   1.000  C
  H62      1.0000 0.09090  0.41280  0.45411  Biso   1.000  H
  C112     1.0000 0.15938  0.35361  0.42507  Biso   1.000  C
  H63      1.0000 0.15039  0.29441  0.41759  Biso   1.000  H
  H64      1.0000 0.10141  0.34791  0.44251  Biso   1.000  H
  O9       1.0000 0.57746  0.48147  0.36421  Biso   1.000  O
  C113     1.0000 0.60481  0.45406  0.37757  Biso   1.000  C
  C114     1.0000 0.58836  0.51808  0.35099  Biso   1.000  C
  C115     1.0000 0.58965  0.41511  0.37872  Biso   1.000  C
  C116     1.0000 0.64127  0.46338  0.39253  Biso   1.000  C
  N9       1.0000 0.62527  0.52404  0.34148  Biso   1.000  N
  C117     1.0000 0.55700  0.54459  0.34854  Biso   1.000  C
  C118     1.0000 0.61164  0.38587  0.39489  Biso   1.000  C
  H65      1.0000 0.56521  0.40891  0.36881  Biso   1.000  H
  C119     1.0000 0.66317  0.43405  0.40803  Biso   1.000  C
  H66      1.0000 0.65080  0.48959  0.39201  Biso   1.000  H
  C120     1.0000 0.63339  0.56077  0.32874  Biso   1.000  C
  H67      1.0000 0.53141  0.53791  0.35589  Biso   1.000  H
  C121     1.0000 0.56497  0.58099  0.33495  Biso   1.000  C
  C122     1.0000 0.59930  0.34321  0.40053  Biso   1.000  C
  C123     1.0000 0.64879  0.39513  0.40982  Biso   1.000  C
  H68      1.0000 0.68780  0.44031  0.41739  Biso   1.000  H
  N10      1.0000 0.67345  0.56742  0.32116  Biso   1.000  N
  C124     1.0000 0.60361  0.59061  0.32491  Biso   1.000  C
  H69      1.0000 0.54441  0.59960  0.33239  Biso   1.000  H
  C125     1.0000 0.63459  0.31765  0.38686  Biso   1.000  C
  H70      1.0000 0.57359  0.33659  0.39009  Biso   1.000  H
  C126     1.0000 0.59900  0.33704  0.43791  Biso   1.000  C
  C127     1.0000 0.66764  0.36056  0.42820  Biso   1.000  C
  C128     1.0000 0.68229  0.60209  0.31031  Biso   1.000  C
  C129     1.0000 0.61659  0.62839  0.31135  Biso   1.000  C
  C130     1.0000 0.67066  0.32622  0.40199  Biso   1.000  C
  C131     1.0000 0.63213  0.28925  0.36215  Biso   1.000  C
  C132     1.0000 0.63531  0.34636  0.45292  Biso   1.000  C
  C133     1.0000 0.56730  0.32520  0.45741  Biso   1.000  C
  H71      1.0000 0.69331  0.36721  0.43871  Biso   1.000  H
  O10      1.0000 0.72135  0.61185  0.30251  Biso   1.000  O
  C134     1.0000 0.65421  0.63471  0.30437  Biso   1.000  C
  H72      1.0000 0.59789  0.64861  0.30750  Biso   1.000  H
  C135     1.0000 0.70514  0.30651  0.39307  Biso   1.000  C
  C136     1.0000 0.66695  0.27020  0.35313  Biso   1.000  C
  H73      1.0000 0.60790  0.28320  0.35199  Biso   1.000  H
  C137     1.0000 0.64031  0.34537  0.48707  Biso   1.000  C
  C138     1.0000 0.57219  0.32329  0.49149  Biso   1.000  C
  H74      1.0000 0.54289  0.31849  0.44780  Biso   1.000  H
  C139     1.0000 0.74960  0.58072  0.30223  Biso   1.000  C
  H75      1.0000 0.66281  0.65910  0.29590  Biso   1.000  H
  C140     1.0000 0.70341  0.27787  0.36813  Biso   1.000  C
  H76      1.0000 0.72929  0.31220  0.40361  Biso   1.000  H
  O11      1.0000 0.66443  0.23979  0.32839  Biso   1.000  O
  H77      1.0000 0.66470  0.35160  0.49701  Biso   1.000  H
  C141     1.0000 0.60670  0.33449  0.50600  Biso   1.000  C
  H78      1.0000 0.55121  0.31409  0.50471  Biso   1.000  H
  C142     1.0000 0.75607  0.56134  0.27138  Biso   1.000  C
  C143     1.0000 0.77099  0.57120  0.32936  Biso   1.000  C
  H79      1.0000 0.72629  0.26409  0.36160  Biso   1.000  H
  C144     1.0000 0.67773  0.24947  0.29689  Biso   1.000  C
  H80      1.0000 0.60829  0.33500  0.52910  Biso   1.000  H
  H81      1.0000 0.74139  0.56811  0.25260  Biso   1.000  H
  C145     1.0000 0.78474  0.53237  0.27046  Biso   1.000  C
  C146     1.0000 0.80035  0.54172  0.32824  Biso   1.000  C
  H82      1.0000 0.76611  0.58450  0.34921  Biso   1.000  H
  N11      1.0000 0.69403  0.28386  0.29210  Biso   1.000  N
  C147     1.0000 0.67144  0.21858  0.27382  Biso   1.000  C
  C148     1.0000 0.79721  0.50942  0.23904  Biso   1.000  C
  C149     1.0000 0.80679  0.52171  0.29823  Biso   1.000  C
  H83      1.0000 0.81530  0.53549  0.34700  Biso   1.000  H
  C150     1.0000 0.70691  0.29120  0.26018  Biso   1.000  C
  C151     1.0000 0.68399  0.22673  0.24204  Biso   1.000  C
  H84      1.0000 0.65961  0.19431  0.27960  Biso   1.000  H
  C152     1.0000 0.79274  0.46547  0.24870  Biso   1.000  C
  H85      1.0000 0.78190  0.51691  0.21919  Biso   1.000  H
  C153     1.0000 0.84215  0.51646  0.23564  Biso   1.000  C
  C154     1.0000 0.83762  0.48914  0.29175  Biso   1.000  C
  N12      1.0000 0.72465  0.32775  0.25541  Biso   1.000  N
  C155     1.0000 0.70242  0.26250  0.23482  Biso   1.000  C
  H86      1.0000 0.68001  0.20801  0.22530  Biso   1.000  H
  C156     1.0000 0.77096  0.43761  0.23037  Biso   1.000  C
  C157     1.0000 0.81446  0.45427  0.27620  Biso   1.000  C
  C158     1.0000 0.86417  0.50604  0.26328  Biso   1.000  C
  C159     1.0000 0.86240  0.53285  0.20811  Biso   1.000  C
  H87      1.0000 0.85290  0.48150  0.31160  Biso   1.000  H
  C160     1.0000 0.73870  0.33485  0.22572  Biso   1.000  C
  C161     1.0000 0.71716  0.27347  0.20233  Biso   1.000  C
  C162     1.0000 0.77186  0.39678  0.24068  Biso   1.000  C
  H88      1.0000 0.75619  0.44540  0.21189  Biso   1.000  H
  C163     1.0000 0.81488  0.41433  0.28666  Biso   1.000  C
  C164     1.0000 0.90467  0.51200  0.26485  Biso   1.000  C
  C165     1.0000 0.90179  0.53830  0.20896  Biso   1.000  C
  H89      1.0000 0.84799  0.53989  0.18921  Biso   1.000  H
  O12      1.0000 0.75431  0.37149  0.21783  Biso   1.000  O
  C166     1.0000 0.73504  0.30849  0.19813  Biso   1.000  C
  H90      1.0000 0.71410  0.25600  0.18449  Biso   1.000  H
  C167     1.0000 0.79295  0.38545  0.26870  Biso   1.000  C
  H91      1.0000 0.82950  0.40690  0.30529  Biso   1.000  H
  H92      1.0000 0.91920  0.50490  0.28370  Biso   1.000  H
  C168     1.0000 0.92381  0.52931  0.23720  Biso   1.000  C
  H93      1.0000 0.91480  0.54840  0.19030  Biso   1.000  H
  H94      1.0000 0.74511  0.31580  0.17741  Biso   1.000  H
  H95      1.0000 0.79271  0.35891  0.27570  Biso   1.000  H
  H96      1.0000 0.95111  0.53471  0.23790  Biso   1.000  H
  O13      1.0000 0.42254  0.51853  0.63579  Biso   1.000  O
  C169     1.0000 0.39519  0.54594  0.62243  Biso   1.000  C
  C170     1.0000 0.41164  0.48192  0.64901  Biso   1.000  C
  C171     1.0000 0.41035  0.58489  0.62128  Biso   1.000  C
  C172     1.0000 0.35873  0.53662  0.60747  Biso   1.000  C
  N13      1.0000 0.37473  0.47596  0.65852  Biso   1.000  N
  C173     1.0000 0.44300  0.45541  0.65146  Biso   1.000  C
  C174     1.0000 0.38836  0.61413  0.60511  Biso   1.000  C
  H97      1.0000 0.43479  0.59109  0.63119  Biso   1.000  H
  C175     1.0000 0.33683  0.56595  0.59197  Biso   1.000  C
  H98      1.0000 0.34920  0.51041  0.60799  Biso   1.000  H
  C176     1.0000 0.36661  0.43923  0.67126  Biso   1.000  C
  H99      1.0000 0.46859  0.46209  0.64411  Biso   1.000  H
  C177     1.0000 0.43503  0.41901  0.66505  Biso   1.000  C
  C178     1.0000 0.35121  0.60487  0.59018  Biso   1.000  C
  C179     1.0000 0.40070  0.65679  0.59947  Biso   1.000  C
  H100     1.0000 0.31220  0.55969  0.58261  Biso   1.000  H
  N14      1.0000 0.32655  0.43258  0.67884  Biso   1.000  N
  C180     1.0000 0.39639  0.40939  0.67509  Biso   1.000  C
  H101     1.0000 0.45559  0.40040  0.66761  Biso   1.000  H
  C181     1.0000 0.33236  0.63944  0.57180  Biso   1.000  C
  C182     1.0000 0.40100  0.66296  0.56209  Biso   1.000  C
  C183     1.0000 0.36541  0.68235  0.61314  Biso   1.000  C
  H102     1.0000 0.42641  0.66341  0.60991  Biso   1.000  H
  C184     1.0000 0.31771  0.39791  0.68969  Biso   1.000  C
  C185     1.0000 0.38341  0.37161  0.68865  Biso   1.000  C
  C186     1.0000 0.36469  0.65364  0.54708  Biso   1.000  C
  C187     1.0000 0.32934  0.67378  0.59801  Biso   1.000  C
  H103     1.0000 0.30669  0.63279  0.56129  Biso   1.000  H
  C188     1.0000 0.43270  0.67480  0.54259  Biso   1.000  C
  C189     1.0000 0.36787  0.71075  0.63785  Biso   1.000  C
  O14      1.0000 0.27865  0.38815  0.69749  Biso   1.000  O
  C190     1.0000 0.34579  0.36529  0.69563  Biso   1.000  C
  H104     1.0000 0.40211  0.35139  0.69250  Biso   1.000  H
  C191     1.0000 0.35969  0.65463  0.51293  Biso   1.000  C
  C192     1.0000 0.29486  0.69349  0.60693  Biso   1.000  C
  C193     1.0000 0.42781  0.67671  0.50851  Biso   1.000  C
  H105     1.0000 0.45711  0.68151  0.55220  Biso   1.000  H
  C194     1.0000 0.33305  0.72980  0.64687  Biso   1.000  C
  H106     1.0000 0.39210  0.71680  0.64801  Biso   1.000  H
  C195     1.0000 0.25040  0.41928  0.69777  Biso   1.000  C
  H107     1.0000 0.33719  0.34090  0.70410  Biso   1.000  H
  H108     1.0000 0.33530  0.64840  0.50299  Biso   1.000  H
  C196     1.0000 0.39330  0.66551  0.49400  Biso   1.000  C
  C197     1.0000 0.29659  0.72213  0.63187  Biso   1.000  C
  H109     1.0000 0.27071  0.68780  0.59639  Biso   1.000  H
  H110     1.0000 0.44879  0.68591  0.49529  Biso   1.000  H
  O15      1.0000 0.33557  0.76021  0.67161  Biso   1.000  O
  C198     1.0000 0.24393  0.43866  0.72862  Biso   1.000  C
  C199     1.0000 0.22901  0.42880  0.67064  Biso   1.000  C
  H111     1.0000 0.39171  0.66500  0.47090  Biso   1.000  H
  H112     1.0000 0.27371  0.73591  0.63840  Biso   1.000  H
  C200     1.0000 0.32227  0.75053  0.70311  Biso   1.000  C
  H113     1.0000 0.25861  0.43189  0.74740  Biso   1.000  H
  C201     1.0000 0.21526  0.46763  0.72954  Biso   1.000  C
  C202     1.0000 0.19965  0.45828  0.67176  Biso   1.000  C
  H114     1.0000 0.23389  0.41550  0.65079  Biso   1.000  H
  N15      1.0000 0.30597  0.71614  0.70790  Biso   1.000  N
  C203     1.0000 0.32856  0.78142  0.72618  Biso   1.000  C
  C204     1.0000 0.20279  0.49058  0.76096  Biso   1.000  C
  C205     1.0000 0.19321  0.47829  0.70177  Biso   1.000  C
  H115     1.0000 0.18470  0.46451  0.65300  Biso   1.000  H
  C206     1.0000 0.29309  0.70880  0.73982  Biso   1.000  C
  C207     1.0000 0.31601  0.77327  0.75796  Biso   1.000  C
  H116     1.0000 0.34039  0.80569  0.72040  Biso   1.000  H
  C208     1.0000 0.20726  0.53453  0.75130  Biso   1.000  C
  H117     1.0000 0.21810  0.48309  0.78081  Biso   1.000  H
  C209     1.0000 0.15785  0.48354  0.76436  Biso   1.000  C
  C210     1.0000 0.16238  0.51086  0.70825  Biso   1.000  C
  N16      1.0000 0.27535  0.67225  0.74459  Biso   1.000  N
  C211     1.0000 0.29758  0.73750  0.76518  Biso   1.000  C
  H118     1.0000 0.31999  0.79199  0.77470  Biso   1.000  H
  C212     1.0000 0.22904  0.56239  0.76963  Biso   1.000  C
  C213     1.0000 0.18554  0.54573  0.72380  Biso   1.000  C
  C214     1.0000 0.13583  0.49396  0.73672  Biso   1.000  C
  C215     1.0000 0.13760  0.46715  0.79189  Biso   1.000  C
  H119     1.0000 0.14710  0.51850  0.68840  Biso   1.000  H
  C216     1.0000 0.26130  0.66515  0.77428  Biso   1.000  C
  C217     1.0000 0.28284  0.72653  0.79767  Biso   1.000  C
  C218     1.0000 0.22814  0.60322  0.75932  Biso   1.000  C
  H120     1.0000 0.24381  0.55460  0.78811  Biso   1.000  H
  C219     1.0000 0.18512  0.58567  0.71334  Biso   1.000  C
  C220     1.0000 0.09533  0.48800  0.73515  Biso   1.000  C
  C221     1.0000 0.09821  0.46170  0.79104  Biso   1.000  C
  H121     1.0000 0.15201  0.46011  0.81079  Biso   1.000  H
  O16      1.0000 0.24569  0.62851  0.78217  Biso   1.000  O
  C222     1.0000 0.26496  0.69151  0.80187  Biso   1.000  C
  H122     1.0000 0.28590  0.74400  0.81551  Biso   1.000  H
  C223     1.0000 0.20705  0.61455  0.73130  Biso   1.000  C
  H123     1.0000 0.17050  0.59310  0.69471  Biso   1.000  H
  H124     1.0000 0.08080  0.49510  0.71630  Biso   1.000  H
  C224     1.0000 0.07619  0.47069  0.76280  Biso   1.000  C
  H125     1.0000 0.08520  0.45160  0.80970  Biso   1.000  H
  H126     1.0000 0.25489  0.68420  0.82259  Biso   1.000  H
  H127     1.0000 0.20729  0.64109  0.72430  Biso   1.000  H
  H128     1.0000 0.04889  0.46529  0.76210  Biso   1.000  H
  C225     1.0000 0.59819  0.46170  0.70895  Biso   1.000  C
  C226     1.0000 0.57620  0.47069  0.73719  Biso   1.000  C
  H129     1.0000 0.58519  0.45160  0.69029  Biso   1.000  H
  C227     1.0000 0.63759  0.46715  0.70810  Biso   1.000  C
  C228     1.0000 0.59534  0.48800  0.76486  Biso   1.000  C
  H130     1.0000 0.54891  0.46529  0.73791  Biso   1.000  H
  C229     1.0000 0.65787  0.48354  0.73562  Biso   1.000  C
  H131     1.0000 0.65200  0.46011  0.68920  Biso   1.000  H
  C230     1.0000 0.63582  0.49396  0.76327  Biso   1.000  C
  H132     1.0000 0.58081  0.49510  0.78369  Biso   1.000  H
  C231     1.0000 0.70278  0.49058  0.73905  Biso   1.000  C
  C232     1.0000 0.66239  0.51086  0.79176  Biso   1.000  C
  C233     1.0000 0.71527  0.46763  0.77047  Biso   1.000  C
  H133     1.0000 0.71809  0.48309  0.71920  Biso   1.000  H
  C234     1.0000 0.70727  0.53453  0.74869  Biso   1.000  C
  C235     1.0000 0.69322  0.47829  0.79822  Biso   1.000  C
  C236     1.0000 0.68555  0.54573  0.77621  Biso   1.000  C
  H134     1.0000 0.64711  0.51850  0.81161  Biso   1.000  H
  C237     1.0000 0.74394  0.43866  0.77137  Biso   1.000  C
  C238     1.0000 0.72902  0.56239  0.73038  Biso   1.000  C
  C239     1.0000 0.69966  0.45828  0.82823  Biso   1.000  C
  C240     1.0000 0.68513  0.58567  0.78665  Biso   1.000  C
  C241     1.0000 0.75041  0.41928  0.80225  Biso   1.000  C
  H135     1.0000 0.75859  0.43189  0.75259  Biso   1.000  H
  C242     1.0000 0.72815  0.60322  0.74069  Biso   1.000  C
  H136     1.0000 0.74379  0.55460  0.71190  Biso   1.000  H
  H137     1.0000 0.68471  0.46451  0.84701  Biso   1.000  H
  C243     1.0000 0.72899  0.42880  0.82935  Biso   1.000  C
  H138     1.0000 0.67051  0.59310  0.80530  Biso   1.000  H
  C244     1.0000 0.70706  0.61455  0.76871  Biso   1.000  C
  O17      1.0000 0.77866  0.38815  0.80249  Biso   1.000  O
  O18      1.0000 0.74568  0.62851  0.71784  Biso   1.000  O
  H139     1.0000 0.73390  0.41550  0.84919  Biso   1.000  H
  H140     1.0000 0.70730  0.64109  0.77569  Biso   1.000  H
  C245     1.0000 0.81770  0.39791  0.81029  Biso   1.000  C
  C246     1.0000 0.76132  0.66515  0.72571  Biso   1.000  C
  N17      1.0000 0.82657  0.43258  0.82115  Biso   1.000  N
  C247     1.0000 0.84580  0.36529  0.80436  Biso   1.000  C
  N18      1.0000 0.77534  0.67225  0.75542  Biso   1.000  N
  C248     1.0000 0.76497  0.69151  0.69814  Biso   1.000  C
  C249     1.0000 0.86659  0.43923  0.82875  Biso   1.000  C
  C250     1.0000 0.88340  0.37161  0.81134  Biso   1.000  C
  H141     1.0000 0.83720  0.34090  0.79591  Biso   1.000  H
  C251     1.0000 0.79307  0.70880  0.76019  Biso   1.000  C
  H142     1.0000 0.75491  0.68420  0.67740  Biso   1.000  H
  C252     1.0000 0.78283  0.72653  0.70234  Biso   1.000  C
  N19      1.0000 0.87471  0.47596  0.84147  Biso   1.000  N
  C253     1.0000 0.89640  0.40939  0.82492  Biso   1.000  C
  H143     1.0000 0.90209  0.35139  0.80751  Biso   1.000  H
  N20      1.0000 0.80596  0.71614  0.79211  Biso   1.000  N
  C254     1.0000 0.79757  0.73750  0.73483  Biso   1.000  C
  H144     1.0000 0.78591  0.74400  0.68450  Biso   1.000  H
  C255     1.0000 0.91162  0.48192  0.85101  Biso   1.000  C
  C256     1.0000 0.93505  0.41901  0.83496  Biso   1.000  C
  C257     1.0000 0.82228  0.75053  0.79690  Biso   1.000  C
  C258     1.0000 0.81602  0.77327  0.74203  Biso   1.000  C
  O19      1.0000 0.92253  0.51853  0.86422  Biso   1.000  O
  C259     1.0000 0.94299  0.45541  0.84855  Biso   1.000  C
  H145     1.0000 0.95560  0.40040  0.83240  Biso   1.000  H
  O20      1.0000 0.83556  0.76021  0.82840  Biso   1.000  O
  C260     1.0000 0.82857  0.78142  0.77383  Biso   1.000  C
  H146     1.0000 0.82001  0.79199  0.72529  Biso   1.000  H
  C261     1.0000 0.89517  0.54594  0.87756  Biso   1.000  C
  H147     1.0000 0.96860  0.46209  0.85590  Biso   1.000  H
  C262     1.0000 0.83304  0.72980  0.85312  Biso   1.000  C
  H148     1.0000 0.84041  0.80569  0.77959  Biso   1.000  H
  C263     1.0000 0.91036  0.58489  0.87870  Biso   1.000  C
  C264     1.0000 0.85871  0.53662  0.89252  Biso   1.000  C
  C265     1.0000 0.79658  0.72213  0.86812  Biso   1.000  C
  C266     1.0000 0.86785  0.71075  0.86216  Biso   1.000  C
  C267     1.0000 0.88837  0.61413  0.89490  Biso   1.000  C
  H149     1.0000 0.93481  0.59109  0.86879  Biso   1.000  H
  H150     1.0000 0.84919  0.51041  0.89199  Biso   1.000  H
  C268     1.0000 0.83684  0.56595  0.90804  Biso   1.000  C
  H151     1.0000 0.77369  0.73591  0.86159  Biso   1.000  H
  C269     1.0000 0.79484  0.69349  0.89309  Biso   1.000  C
  C270     1.0000 0.86539  0.68235  0.88685  Biso   1.000  C
  H152     1.0000 0.89209  0.71680  0.85200  Biso   1.000  H
  C271     1.0000 0.90072  0.65679  0.90051  Biso   1.000  C
  C272     1.0000 0.85119  0.60487  0.90983  Biso   1.000  C
  H153     1.0000 0.81219  0.55969  0.91741  Biso   1.000  H
  H154     1.0000 0.77069  0.68780  0.90359  Biso   1.000  H
  C273     1.0000 0.82935  0.67378  0.90198  Biso   1.000  C
  H155     1.0000 0.92639  0.66341  0.89011  Biso   1.000  H
  C274     1.0000 0.90099  0.66296  0.93790  Biso   1.000  C
  C275     1.0000 0.83235  0.63944  0.92819  Biso   1.000  C
  C276     1.0000 0.86471  0.65364  0.95290  Biso   1.000  C
  C277     1.0000 0.93271  0.67480  0.95740  Biso   1.000  C
  H156     1.0000 0.80670  0.63279  0.93869  Biso   1.000  H
  C278     1.0000 0.85970  0.65463  0.98706  Biso   1.000  C
  C279     1.0000 0.92780  0.67671  0.99150  Biso   1.000  C
  H157     1.0000 0.95710  0.68151  0.94781  Biso   1.000  H
  H158     1.0000 0.83529  0.64840  0.99699  Biso   1.000  H
  C280     1.0000 0.89329  0.66551  0.00601  Biso   1.000  C
  H159     1.0000 0.94880  0.68591  0.00469  Biso   1.000  H
  H160     1.0000 0.89170  0.66500  0.02909  Biso   1.000  H
  C281     1.0000 0.40181  0.53830  0.29105  Biso   1.000  C
  C282     1.0000 0.36241  0.53285  0.29190  Biso   1.000  C
  C283     1.0000 0.42380  0.52931  0.26281  Biso   1.000  C
  H161     1.0000 0.41481  0.54840  0.30971  Biso   1.000  H
  C284     1.0000 0.34213  0.51646  0.26438  Biso   1.000  C
  H162     1.0000 0.34800  0.53989  0.31080  Biso   1.000  H
  C285     1.0000 0.40466  0.51200  0.23514  Biso   1.000  C
  H163     1.0000 0.45109  0.53471  0.26209  Biso   1.000  H
  C286     1.0000 0.29722  0.50942  0.26095  Biso   1.000  C
  C287     1.0000 0.36418  0.50604  0.23673  Biso   1.000  C
  H164     1.0000 0.41919  0.50490  0.21631  Biso   1.000  H
  C288     1.0000 0.29273  0.46547  0.25131  Biso   1.000  C
  C289     1.0000 0.28473  0.53237  0.22953  Biso   1.000  C
  H165     1.0000 0.28191  0.51691  0.28080  Biso   1.000  H
  C290     1.0000 0.33761  0.48914  0.20824  Biso   1.000  C
  C291     1.0000 0.27098  0.43761  0.26962  Biso   1.000  C
  C292     1.0000 0.31445  0.45427  0.22379  Biso   1.000  C
  C293     1.0000 0.30678  0.52171  0.20178  Biso   1.000  C
  C294     1.0000 0.25606  0.56134  0.22863  Biso   1.000  C
  H166     1.0000 0.35289  0.48150  0.18839  Biso   1.000  H
  C295     1.0000 0.27185  0.39678  0.25931  Biso   1.000  C
  H167     1.0000 0.25621  0.44540  0.28810  Biso   1.000  H
  C296     1.0000 0.31487  0.41433  0.21335  Biso   1.000  C
  C297     1.0000 0.30034  0.54172  0.17177  Biso   1.000  C
  C298     1.0000 0.24959  0.58072  0.19775  Biso   1.000  C
  H168     1.0000 0.24141  0.56811  0.24741  Biso   1.000  H
  O21      1.0000 0.25432  0.37149  0.28216  Biso   1.000  O
  C299     1.0000 0.29294  0.38545  0.23129  Biso   1.000  C
  H169     1.0000 0.32949  0.40690  0.19470  Biso   1.000  H
  H170     1.0000 0.31529  0.53549  0.15299  Biso   1.000  H
  C300     1.0000 0.27101  0.57120  0.17065  Biso   1.000  C
  O22      1.0000 0.22134  0.61185  0.19751  Biso   1.000  O
  C301     1.0000 0.23868  0.33485  0.27429  Biso   1.000  C
  H171     1.0000 0.29270  0.35891  0.22431  Biso   1.000  H
  H172     1.0000 0.26610  0.58450  0.15081  Biso   1.000  H
  C302     1.0000 0.18230  0.60209  0.18971  Biso   1.000  C
  C303     1.0000 0.23503  0.30849  0.30186  Biso   1.000  C
  N21      1.0000 0.22466  0.32775  0.24458  Biso   1.000  N
  N22      1.0000 0.17343  0.56742  0.17885  Biso   1.000  N
  C304     1.0000 0.15420  0.63471  0.19564  Biso   1.000  C
  C305     1.0000 0.21717  0.27347  0.29766  Biso   1.000  C
  H173     1.0000 0.24509  0.31580  0.32260  Biso   1.000  H
  C306     1.0000 0.20693  0.29120  0.23981  Biso   1.000  C
  C307     1.0000 0.13341  0.56077  0.17125  Biso   1.000  C
  C308     1.0000 0.11660  0.62839  0.18866  Biso   1.000  C
  H174     1.0000 0.16280  0.65910  0.20409  Biso   1.000  H
  C309     1.0000 0.20243  0.26250  0.26517  Biso   1.000  C
  H175     1.0000 0.21409  0.25600  0.31550  Biso   1.000  H
  N23      1.0000 0.19404  0.28386  0.20789  Biso   1.000  N
  N24      1.0000 0.12529  0.52404  0.15853  Biso   1.000  N
  C310     1.0000 0.10360  0.59061  0.17508  Biso   1.000  C
  H176     1.0000 0.09791  0.64861  0.19249  Biso   1.000  H
  C311     1.0000 0.18398  0.22673  0.25797  Biso   1.000  C
  C312     1.0000 0.17772  0.24947  0.20310  Biso   1.000  C
  C313     1.0000 0.08838  0.51808  0.14899  Biso   1.000  C
  C314     1.0000 0.06495  0.58099  0.16504  Biso   1.000  C
  H177     1.0000 0.17999  0.20801  0.27471  Biso   1.000  H
  C315     1.0000 0.17143  0.21858  0.22617  Biso   1.000  C
  O23      1.0000 0.16444  0.23979  0.17160  Biso   1.000  O
  O24      1.0000 0.07747  0.48147  0.13578  Biso   1.000  O
  C316     1.0000 0.05701  0.54459  0.15145  Biso   1.000  C
  H178     1.0000 0.04440  0.59960  0.16760  Biso   1.000  H
  H179     1.0000 0.15959  0.19431  0.22041  Biso   1.000  H
  C317     1.0000 0.16696  0.27020  0.14688  Biso   1.000  C
  C318     1.0000 0.10483  0.45406  0.12244  Biso   1.000  C
  H180     1.0000 0.03140  0.53791  0.14410  Biso   1.000  H
  C319     1.0000 0.20342  0.27787  0.13188  Biso   1.000  C
  C320     1.0000 0.13215  0.28925  0.13784  Biso   1.000  C
  C321     1.0000 0.08964  0.41511  0.12130  Biso   1.000  C
  C322     1.0000 0.14129  0.46338  0.10748  Biso   1.000  C
  H181     1.0000 0.22631  0.26409  0.13841  Biso   1.000  H
  C323     1.0000 0.20516  0.30651  0.10691  Biso   1.000  C
  C324     1.0000 0.13461  0.31765  0.11315  Biso   1.000  C
  H182     1.0000 0.10791  0.28320  0.14800  Biso   1.000  H
  C325     1.0000 0.11163  0.38587  0.10510  Biso   1.000  C
  H183     1.0000 0.06519  0.40891  0.13121  Biso   1.000  H
  C326     1.0000 0.16316  0.43405  0.09196  Biso   1.000  C
  H184     1.0000 0.15081  0.48959  0.10801  Biso   1.000  H
  H185     1.0000 0.22931  0.31220  0.09641  Biso   1.000  H
  C327     1.0000 0.17065  0.32622  0.09802  Biso   1.000  C
  C328     1.0000 0.09928  0.34321  0.09949  Biso   1.000  C
  C329     1.0000 0.14881  0.39513  0.09017  Biso   1.000  C
  H186     1.0000 0.18781  0.44031  0.08259  Biso   1.000  H
  C330     1.0000 0.16765  0.36056  0.07181  Biso   1.000  C
  H187     1.0000 0.07361  0.33659  0.10989  Biso   1.000  H
  C331     1.0000 0.09901  0.33704  0.06210  Biso   1.000  C
  H188     1.0000 0.19330  0.36721  0.06131  Biso   1.000  H
  C332     1.0000 0.13529  0.34636  0.04710  Biso   1.000  C
  C333     1.0000 0.06729  0.32520  0.04260  Biso   1.000  C
  C334     1.0000 0.14030  0.34537  0.01294  Biso   1.000  C
  C335     1.0000 0.07220  0.32329  0.00850  Biso   1.000  C
  H189     1.0000 0.04290  0.31849  0.05219  Biso   1.000  H
  H190     1.0000 0.16471  0.35160  0.00301  Biso   1.000  H
  C336     1.0000 0.10671  0.33449  0.99399  Biso   1.000  C
  H191     1.0000 0.05120  0.31409  0.99531  Biso   1.000  H
  H192     1.0000 0.10830  0.33500  0.97091  Biso   1.000  H
  C337     1.0000 0.57219  0.82330  0.50851  Biso   1.000  C
  C338     1.0000 0.60670  0.83451  0.49400  Biso   1.000  C
  H193     1.0000 0.55121  0.81410  0.49529  Biso   1.000  H
  C339     1.0000 0.56730  0.82519  0.54259  Biso   1.000  C
  C340     1.0000 0.64031  0.84538  0.51293  Biso   1.000  C
  H194     1.0000 0.60829  0.83499  0.47090  Biso   1.000  H
  H195     1.0000 0.54289  0.81851  0.55220  Biso   1.000  H
  C341     1.0000 0.59900  0.83702  0.56209  Biso   1.000  C
  C342     1.0000 0.63531  0.84637  0.54708  Biso   1.000  C
  H196     1.0000 0.66470  0.85161  0.50299  Biso   1.000  H
  C343     1.0000 0.59930  0.84319  0.59947  Biso   1.000  C
  C344     1.0000 0.66764  0.86054  0.57180  Biso   1.000  C
  C345     1.0000 0.63459  0.81764  0.61314  Biso   1.000  C
  H197     1.0000 0.57359  0.83660  0.60991  Biso   1.000  H
  C346     1.0000 0.61164  0.88586  0.60511  Biso   1.000  C
  C347     1.0000 0.67066  0.82624  0.59801  Biso   1.000  C
  H198     1.0000 0.69331  0.86719  0.56129  Biso   1.000  H
  C348     1.0000 0.64879  0.89514  0.59018  Biso   1.000  C
  C349     1.0000 0.63213  0.78927  0.63785  Biso   1.000  C
  C350     1.0000 0.58965  0.91510  0.62128  Biso   1.000  C
  C351     1.0000 0.70514  0.80650  0.60693  Biso   1.000  C
  C352     1.0000 0.66317  0.93406  0.59197  Biso   1.000  C
  C353     1.0000 0.66695  0.77021  0.64687  Biso   1.000  C
  H199     1.0000 0.60790  0.78319  0.64801  Biso   1.000  H
  H200     1.0000 0.56521  0.90889  0.63119  Biso   1.000  H
  C354     1.0000 0.60481  0.95407  0.62243  Biso   1.000  C
  C355     1.0000 0.70341  0.77788  0.63187  Biso   1.000  C
  H201     1.0000 0.72929  0.81219  0.59639  Biso   1.000  H
  C356     1.0000 0.64127  0.96339  0.60747  Biso   1.000  C
  H202     1.0000 0.68780  0.94029  0.58261  Biso   1.000  H
  O25      1.0000 0.66443  0.73978  0.67161  Biso   1.000  O
  O26      1.0000 0.57746  0.98149  0.63579  Biso   1.000  O
  H203     1.0000 0.72629  0.76410  0.63840  Biso   1.000  H
  H204     1.0000 0.65080  0.98960  0.60799  Biso   1.000  H
  C357     1.0000 0.67773  0.74945  0.70311  Biso   1.000  C
  C358     1.0000 0.58836  0.01807  0.64901  Biso   1.000  C
  N25      1.0000 0.69403  0.78388  0.70790  Biso   1.000  N
  C359     1.0000 0.67144  0.71857  0.72618  Biso   1.000  C
  N26      1.0000 0.62527  0.02403  0.65852  Biso   1.000  N
  C360     1.0000 0.55700  0.04458  0.65146  Biso   1.000  C
  C361     1.0000 0.70691  0.79119  0.73982  Biso   1.000  C
  C362     1.0000 0.68399  0.72674  0.75796  Biso   1.000  C
  H205     1.0000 0.65961  0.69430  0.72040  Biso   1.000  H
  C363     1.0000 0.63339  0.06076  0.67126  Biso   1.000  C
  H206     1.0000 0.53141  0.03790  0.64411  Biso   1.000  H
  C364     1.0000 0.56497  0.08098  0.66505  Biso   1.000  C
  N27      1.0000 0.72465  0.82777  0.74459  Biso   1.000  N
  C365     1.0000 0.70242  0.76249  0.76518  Biso   1.000  C
  H207     1.0000 0.68001  0.70799  0.77470  Biso   1.000  H
  N28      1.0000 0.67345  0.06741  0.67884  Biso   1.000  N
  C366     1.0000 0.60361  0.09060  0.67509  Biso   1.000  C
  H208     1.0000 0.54441  0.09961  0.66761  Biso   1.000  H
  C367     1.0000 0.73870  0.83484  0.77428  Biso   1.000  C
  C368     1.0000 0.71716  0.77348  0.79767  Biso   1.000  C
  C369     1.0000 0.68229  0.10207  0.68969  Biso   1.000  C
  C370     1.0000 0.61659  0.12840  0.68865  Biso   1.000  C
  O27      1.0000 0.75431  0.87148  0.78217  Biso   1.000  O
  C371     1.0000 0.73504  0.80847  0.80187  Biso   1.000  C
  H209     1.0000 0.71410  0.75601  0.81551  Biso   1.000  H
  O28      1.0000 0.72135  0.11187  0.69749  Biso   1.000  O
  C372     1.0000 0.65421  0.13470  0.69563  Biso   1.000  C
  H210     1.0000 0.59789  0.14860  0.69250  Biso   1.000  H
  C373     1.0000 0.77186  0.89679  0.75932  Biso   1.000  C
  H211     1.0000 0.74511  0.81581  0.82259  Biso   1.000  H
  C374     1.0000 0.74960  0.08074  0.69777  Biso   1.000  C
  H212     1.0000 0.66281  0.15911  0.70410  Biso   1.000  H
  C375     1.0000 0.79295  0.88547  0.73130  Biso   1.000  C
  C376     1.0000 0.77096  0.93760  0.76963  Biso   1.000  C
  C377     1.0000 0.75607  0.06133  0.72862  Biso   1.000  C
  C378     1.0000 0.77099  0.07121  0.67064  Biso   1.000  C
  C379     1.0000 0.81488  0.91435  0.71334  Biso   1.000  C
  H213     1.0000 0.79271  0.85889  0.72430  Biso   1.000  H
  C380     1.0000 0.79274  0.96546  0.75130  Biso   1.000  C
  H214     1.0000 0.75619  0.94541  0.78811  Biso   1.000  H
  H215     1.0000 0.74139  0.06810  0.74740  Biso   1.000  H
  C381     1.0000 0.78474  0.03239  0.72954  Biso   1.000  C
  C382     1.0000 0.80035  0.04173  0.67176  Biso   1.000  C
  H216     1.0000 0.76611  0.08451  0.65079  Biso   1.000  H
  C383     1.0000 0.81446  0.95425  0.72380  Biso   1.000  C
  H217     1.0000 0.82950  0.90689  0.69471  Biso   1.000  H
  C384     1.0000 0.79721  0.00941  0.76096  Biso   1.000  C
  C385     1.0000 0.80679  0.02172  0.70177  Biso   1.000  C
  H218     1.0000 0.81530  0.03550  0.65300  Biso   1.000  H
  C386     1.0000 0.83762  0.98915  0.70825  Biso   1.000  C
  H219     1.0000 0.78190  0.01690  0.78081  Biso   1.000  H
  C387     1.0000 0.84215  0.01648  0.76436  Biso   1.000  C
  H220     1.0000 0.85290  0.98149  0.68840  Biso   1.000  H
  C388     1.0000 0.86417  0.00605  0.73672  Biso   1.000  C
  C389     1.0000 0.86240  0.03286  0.79189  Biso   1.000  C
  C390     1.0000 0.90467  0.01201  0.73515  Biso   1.000  C
  C391     1.0000 0.90179  0.03829  0.79104  Biso   1.000  C
  H221     1.0000 0.84799  0.03991  0.81079  Biso   1.000  H
  H222     1.0000 0.91920  0.00491  0.71630  Biso   1.000  H
  C392     1.0000 0.92381  0.02930  0.76280  Biso   1.000  C
  H223     1.0000 0.91480  0.04841  0.80970  Biso   1.000  H
  H224     1.0000 0.95111  0.03469  0.76210  Biso   1.000  H
  C393     1.0000 0.42781  0.17670  0.49149  Biso   1.000  C
  C394     1.0000 0.43270  0.17481  0.45741  Biso   1.000  C
  C395     1.0000 0.39330  0.16549  0.50600  Biso   1.000  C
  H225     1.0000 0.44879  0.18590  0.50471  Biso   1.000  H
  C396     1.0000 0.40100  0.16298  0.43791  Biso   1.000  C
  H226     1.0000 0.45711  0.18149  0.44780  Biso   1.000  H
  C397     1.0000 0.35969  0.15462  0.48707  Biso   1.000  C
  H227     1.0000 0.39171  0.16501  0.52910  Biso   1.000  H
  C398     1.0000 0.40070  0.15681  0.40053  Biso   1.000  C
  C399     1.0000 0.36469  0.15363  0.45292  Biso   1.000  C
  H228     1.0000 0.33530  0.14839  0.49701  Biso   1.000  H
  C400     1.0000 0.36541  0.18236  0.38686  Biso   1.000  C
  H229     1.0000 0.42641  0.16340  0.39009  Biso   1.000  H
  C401     1.0000 0.38836  0.11414  0.39489  Biso   1.000  C
  C402     1.0000 0.33236  0.13946  0.42820  Biso   1.000  C
  C403     1.0000 0.36787  0.21073  0.36215  Biso   1.000  C
  C404     1.0000 0.32934  0.17376  0.40199  Biso   1.000  C
  C405     1.0000 0.35121  0.10486  0.40982  Biso   1.000  C
  C406     1.0000 0.41035  0.08490  0.37872  Biso   1.000  C
  H230     1.0000 0.30669  0.13281  0.43871  Biso   1.000  H
  C407     1.0000 0.33305  0.22979  0.35313  Biso   1.000  C
  H231     1.0000 0.39210  0.21681  0.35199  Biso   1.000  H
  C408     1.0000 0.29486  0.19350  0.39307  Biso   1.000  C
  C409     1.0000 0.33683  0.06594  0.40803  Biso   1.000  C
  H232     1.0000 0.43479  0.09111  0.36881  Biso   1.000  H
  C410     1.0000 0.39519  0.04593  0.37757  Biso   1.000  C
  O29      1.0000 0.33557  0.26022  0.32839  Biso   1.000  O
  C411     1.0000 0.29659  0.22212  0.36813  Biso   1.000  C
  H233     1.0000 0.27071  0.18781  0.40361  Biso   1.000  H
  C412     1.0000 0.35873  0.03661  0.39253  Biso   1.000  C
  H234     1.0000 0.31220  0.05971  0.41739  Biso   1.000  H
  O30      1.0000 0.42254  0.01851  0.36421  Biso   1.000  O
  C413     1.0000 0.32227  0.25055  0.29689  Biso   1.000  C
  H235     1.0000 0.27371  0.23590  0.36160  Biso   1.000  H
  H236     1.0000 0.34920  0.01040  0.39201  Biso   1.000  H
  C414     1.0000 0.41164  0.98193  0.35099  Biso   1.000  C
  C415     1.0000 0.32856  0.28143  0.27382  Biso   1.000  C
  N29      1.0000 0.30597  0.21612  0.29210  Biso   1.000  N
  N30      1.0000 0.37473  0.97597  0.34148  Biso   1.000  N
  C416     1.0000 0.44300  0.95542  0.34854  Biso   1.000  C
  C417     1.0000 0.31601  0.27326  0.24204  Biso   1.000  C
  H237     1.0000 0.34039  0.30570  0.27960  Biso   1.000  H
  C418     1.0000 0.29309  0.20881  0.26018  Biso   1.000  C
  C419     1.0000 0.36661  0.93924  0.32874  Biso   1.000  C
  H238     1.0000 0.46859  0.96210  0.35589  Biso   1.000  H
  C420     1.0000 0.43503  0.91902  0.33495  Biso   1.000  C
  C421     1.0000 0.29758  0.23751  0.23482  Biso   1.000  C
  H239     1.0000 0.31999  0.29201  0.22530  Biso   1.000  H
  N31      1.0000 0.27535  0.17223  0.25541  Biso   1.000  N
  N32      1.0000 0.32655  0.93259  0.32116  Biso   1.000  N
  C422     1.0000 0.39639  0.90940  0.32491  Biso   1.000  C
  H240     1.0000 0.45559  0.90039  0.33239  Biso   1.000  H
  C423     1.0000 0.28284  0.22652  0.20233  Biso   1.000  C
  C424     1.0000 0.26130  0.16516  0.22572  Biso   1.000  C
  C425     1.0000 0.31771  0.89793  0.31031  Biso   1.000  C
  C426     1.0000 0.38341  0.87160  0.31135  Biso   1.000  C
  C427     1.0000 0.26496  0.19153  0.19813  Biso   1.000  C
  H241     1.0000 0.28590  0.24399  0.18449  Biso   1.000  H
  O31      1.0000 0.24569  0.12852  0.21783  Biso   1.000  O
  O32      1.0000 0.27865  0.88813  0.30251  Biso   1.000  O
  C428     1.0000 0.34579  0.86530  0.30437  Biso   1.000  C
  H242     1.0000 0.40211  0.85140  0.30750  Biso   1.000  H
  H243     1.0000 0.25489  0.18419  0.17741  Biso   1.000  H
  C429     1.0000 0.22814  0.10321  0.24068  Biso   1.000  C
  C430     1.0000 0.25040  0.91926  0.30223  Biso   1.000  C
  H244     1.0000 0.33719  0.84089  0.29590  Biso   1.000  H
  C431     1.0000 0.20705  0.11453  0.26870  Biso   1.000  C
  C432     1.0000 0.22904  0.06240  0.23037  Biso   1.000  C
  C433     1.0000 0.24393  0.93867  0.27138  Biso   1.000  C
  C434     1.0000 0.22901  0.92879  0.32936  Biso   1.000  C
  C435     1.0000 0.18512  0.08565  0.28666  Biso   1.000  C
  H245     1.0000 0.20729  0.14111  0.27570  Biso   1.000  H
  C436     1.0000 0.20726  0.03454  0.24870  Biso   1.000  C
  H246     1.0000 0.24381  0.05459  0.21189  Biso   1.000  H
  C437     1.0000 0.21526  0.96761  0.27046  Biso   1.000  C
  H247     1.0000 0.25861  0.93190  0.25260  Biso   1.000  H
  C438     1.0000 0.19965  0.95827  0.32824  Biso   1.000  C
  H248     1.0000 0.23389  0.91549  0.34921  Biso   1.000  H
  C439     1.0000 0.18554  0.04575  0.27620  Biso   1.000  C
  H249     1.0000 0.17050  0.09311  0.30529  Biso   1.000  H
  C440     1.0000 0.20279  0.99059  0.23904  Biso   1.000  C
  C441     1.0000 0.19321  0.97828  0.29823  Biso   1.000  C
  H250     1.0000 0.18470  0.96450  0.34700  Biso   1.000  H
  C442     1.0000 0.16238  0.01085  0.29175  Biso   1.000  C
  H251     1.0000 0.21810  0.98310  0.21919  Biso   1.000  H
  C443     1.0000 0.15785  0.98352  0.23564  Biso   1.000  C
  H252     1.0000 0.14710  0.01851  0.31160  Biso   1.000  H
  C444     1.0000 0.13583  0.99395  0.26328  Biso   1.000  C
  C445     1.0000 0.13760  0.96714  0.20811  Biso   1.000  C
  C446     1.0000 0.09533  0.98799  0.26485  Biso   1.000  C
  C447     1.0000 0.09821  0.96171  0.20896  Biso   1.000  C
  H253     1.0000 0.15201  0.96009  0.18921  Biso   1.000  H
  H254     1.0000 0.08080  0.99509  0.28370  Biso   1.000  H
  C448     1.0000 0.07619  0.97070  0.23720  Biso   1.000  C
  H255     1.0000 0.08520  0.95159  0.19030  Biso   1.000  H
  H256     1.0000 0.04889  0.96531  0.23790  Biso   1.000  H
  C449     1.0000 0.59319  0.15072  0.34948  Biso   1.000  C
  C450     1.0000 0.58702  0.15099  0.31209  Biso   1.000  C
  C451     1.0000 0.56763  0.11540  0.36314  Biso   1.000  C
  H257     1.0000 0.58660  0.17640  0.35989  Biso   1.000  H
  C452     1.0000 0.63585  0.13838  0.35509  Biso   1.000  C
  C453     1.0000 0.57521  0.18269  0.29260  Biso   1.000  C
  C454     1.0000 0.59636  0.11471  0.29709  Biso   1.000  C
  C455     1.0000 0.57623  0.07933  0.34801  Biso   1.000  C
  C456     1.0000 0.53926  0.11786  0.38786  Biso   1.000  C
  C457     1.0000 0.64514  0.10120  0.34019  Biso   1.000  C
  C458     1.0000 0.66512  0.16034  0.37129  Biso   1.000  C
  C459     1.0000 0.57329  0.17781  0.25849  Biso   1.000  C
  H258     1.0000 0.56850  0.20711  0.30221  Biso   1.000  H
  C460     1.0000 0.59537  0.10971  0.26294  Biso   1.000  C
  C461     1.0000 0.61056  0.08236  0.32181  Biso   1.000  C
  C462     1.0000 0.55649  0.04485  0.35693  Biso   1.000  C
  C463     1.0000 0.52021  0.08305  0.39688  Biso   1.000  C
  H259     1.0000 0.53321  0.14210  0.39799  Biso   1.000  H
  C464     1.0000 0.68405  0.08682  0.34195  Biso   1.000  C
  H260     1.0000 0.65889  0.18479  0.38120  Biso   1.000  H
  C465     1.0000 0.70407  0.14518  0.37243  Biso   1.000  C
  C466     1.0000 0.58450  0.14329  0.24401  Biso   1.000  C
  H261     1.0000 0.56410  0.19881  0.24530  Biso   1.000  H
  H262     1.0000 0.60161  0.08529  0.25300  Biso   1.000  H
  H263     1.0000 0.61721  0.05671  0.31130  Biso   1.000  H
  C467     1.0000 0.52788  0.04659  0.38187  Biso   1.000  C
  H264     1.0000 0.56221  0.02070  0.34640  Biso   1.000  H
  O33      1.0000 0.48977  0.08556  0.42159  Biso   1.000  O
  C468     1.0000 0.71338  0.10872  0.35748  Biso   1.000  C
  H265     1.0000 0.69031  0.06219  0.33259  Biso   1.000  H
  O34      1.0000 0.73148  0.17253  0.38580  Biso   1.000  O
  H266     1.0000 0.58501  0.14171  0.22091  Biso   1.000  H
  H267     1.0000 0.51410  0.02370  0.38840  Biso   1.000  H
  C469     1.0000 0.49945  0.07229  0.45309  Biso   1.000  C
  H268     1.0000 0.73960  0.09919  0.35800  Biso   1.000  H
  C470     1.0000 0.76809  0.16163  0.39901  Biso   1.000  C
  N33      1.0000 0.53387  0.05596  0.45788  Biso   1.000  N
  C471     1.0000 0.46859  0.07858  0.47619  Biso   1.000  C
  N34      1.0000 0.77405  0.12472  0.40853  Biso   1.000  N
  C472     1.0000 0.79457  0.19300  0.40147  Biso   1.000  C
  C473     1.0000 0.54118  0.04308  0.48980  Biso   1.000  C
  C474     1.0000 0.47674  0.06600  0.50796  Biso   1.000  C
  H269     1.0000 0.44429  0.09039  0.47040  Biso   1.000  H
  C475     1.0000 0.81078  0.11660  0.42124  Biso   1.000  C
  H270     1.0000 0.78789  0.21861  0.39409  Biso   1.000  H
  C476     1.0000 0.83097  0.18503  0.41506  Biso   1.000  C
  N35      1.0000 0.57776  0.02535  0.49460  Biso   1.000  N
  C477     1.0000 0.51251  0.04757  0.51519  Biso   1.000  C
  H271     1.0000 0.45801  0.07001  0.52470  Biso   1.000  H
  N36      1.0000 0.81740  0.07655  0.42884  Biso   1.000  N
  C478     1.0000 0.84062  0.14641  0.42507  Biso   1.000  C
  H272     1.0000 0.84961  0.20561  0.41759  Biso   1.000  H
  C479     1.0000 0.58483  0.01132  0.52428  Biso   1.000  C
  C480     1.0000 0.52347  0.03284  0.54768  Biso   1.000  C
  C481     1.0000 0.85209  0.06771  0.43970  Biso   1.000  C
  C482     1.0000 0.87840  0.13341  0.43866  Biso   1.000  C
  C483     1.0000 0.55849  0.01498  0.55188  Biso   1.000  C
  O35      1.0000 0.62147  0.99569  0.53218  Biso   1.000  O
  H273     1.0000 0.50601  0.03589  0.56549  Biso   1.000  H
  O36      1.0000 0.86186  0.02864  0.44750  Biso   1.000  O
  C484     1.0000 0.88469  0.09581  0.44564  Biso   1.000  C
  H274     1.0000 0.89859  0.15210  0.44251  Biso   1.000  H
  H275     1.0000 0.56580  0.00491  0.57260  Biso   1.000  H
  C485     1.0000 0.64678  0.97813  0.50933  Biso   1.000  C
  C486     1.0000 0.83073  0.00039  0.44775  Biso   1.000  C
  H276     1.0000 0.90910  0.08721  0.45411  Biso   1.000  H
  C487     1.0000 0.63546  0.95707  0.48128  Biso   1.000  C
  C488     1.0000 0.68759  0.97903  0.51964  Biso   1.000  C
  C489     1.0000 0.81135  0.99395  0.47862  Biso   1.000  C
  C490     1.0000 0.82120  0.97900  0.42065  Biso   1.000  C
  C491     1.0000 0.66434  0.93514  0.46335  Biso   1.000  C
  H277     1.0000 0.60889  0.95731  0.47430  Biso   1.000  H
  C492     1.0000 0.71545  0.95725  0.50130  Biso   1.000  C
  H278     1.0000 0.69541  0.99380  0.53809  Biso   1.000  H
  H279     1.0000 0.81809  0.00860  0.49740  Biso   1.000  H
  C493     1.0000 0.78238  0.96525  0.47952  Biso   1.000  C
  C494     1.0000 0.79173  0.94964  0.42177  Biso   1.000  C
  H280     1.0000 0.83451  0.98391  0.40080  Biso   1.000  H
  C495     1.0000 0.70425  0.93553  0.47378  Biso   1.000  C
  H281     1.0000 0.65691  0.92049  0.44469  Biso   1.000  H
  C496     1.0000 0.75943  0.95278  0.51097  Biso   1.000  C
  C497     1.0000 0.77171  0.94320  0.45177  Biso   1.000  C
  H282     1.0000 0.78549  0.93469  0.40301  Biso   1.000  H
  C498     1.0000 0.73915  0.91237  0.45823  Biso   1.000  C
  H283     1.0000 0.76689  0.96809  0.53079  Biso   1.000  H
  C499     1.0000 0.76647  0.90785  0.51437  Biso   1.000  C
  H284     1.0000 0.73151  0.89709  0.43841  Biso   1.000  H
  C500     1.0000 0.75604  0.88583  0.48672  Biso   1.000  C
  C501     1.0000 0.78286  0.88759  0.54189  Biso   1.000  C
  C502     1.0000 0.76201  0.84532  0.48516  Biso   1.000  C
  C503     1.0000 0.78831  0.84820  0.54105  Biso   1.000  C
  H285     1.0000 0.78990  0.90200  0.56080  Biso   1.000  H
  H286     1.0000 0.75491  0.83079  0.46630  Biso   1.000  H
  C504     1.0000 0.77929  0.82621  0.51281  Biso   1.000  C
  H287     1.0000 0.79841  0.83520  0.55970  Biso   1.000  H
  H288     1.0000 0.78471  0.79889  0.51211  Biso   1.000  H
  C505     1.0000 0.40681  0.84928  0.65052  Biso   1.000  C
  C506     1.0000 0.36415  0.86162  0.64491  Biso   1.000  C
  C507     1.0000 0.43237  0.88460  0.63686  Biso   1.000  C
  H289     1.0000 0.41340  0.82360  0.64011  Biso   1.000  H
  C508     1.0000 0.41298  0.84901  0.68791  Biso   1.000  C
  C509     1.0000 0.33488  0.83966  0.62871  Biso   1.000  C
  C510     1.0000 0.35486  0.89880  0.65981  Biso   1.000  C
  C511     1.0000 0.42377  0.92067  0.65199  Biso   1.000  C
  C512     1.0000 0.46074  0.88214  0.61214  Biso   1.000  C
  C513     1.0000 0.40364  0.88529  0.70291  Biso   1.000  C
  C514     1.0000 0.42479  0.81731  0.70740  Biso   1.000  C
  C515     1.0000 0.29593  0.85482  0.62757  Biso   1.000  C
  H290     1.0000 0.34111  0.81521  0.61880  Biso   1.000  H
  C516     1.0000 0.31595  0.91318  0.65805  Biso   1.000  C
  C517     1.0000 0.38944  0.91764  0.67819  Biso   1.000  C
  C518     1.0000 0.44351  0.95515  0.64307  Biso   1.000  C
  C519     1.0000 0.47979  0.91695  0.60312  Biso   1.000  C
  H291     1.0000 0.46679  0.85790  0.60201  Biso   1.000  H
  C520     1.0000 0.40463  0.89029  0.73706  Biso   1.000  C
  C521     1.0000 0.42671  0.82219  0.74151  Biso   1.000  C
  H292     1.0000 0.43150  0.79289  0.69779  Biso   1.000  H
  O37      1.0000 0.26852  0.82747  0.61420  Biso   1.000  O
  C522     1.0000 0.28662  0.89128  0.64252  Biso   1.000  C
  H293     1.0000 0.30969  0.93781  0.66741  Biso   1.000  H
  H294     1.0000 0.38279  0.94329  0.68870  Biso   1.000  H
  C523     1.0000 0.47212  0.95341  0.61813  Biso   1.000  C
  H295     1.0000 0.43779  0.97930  0.65360  Biso   1.000  H
  O38      1.0000 0.51023  0.91444  0.57841  Biso   1.000  O
  H296     1.0000 0.39839  0.91471  0.74700  Biso   1.000  H
  C524     1.0000 0.41550  0.85671  0.75599  Biso   1.000  C
  H297     1.0000 0.43590  0.80119  0.75470  Biso   1.000  H
  C525     1.0000 0.23191  0.83837  0.60099  Biso   1.000  C
  H298     1.0000 0.26040  0.90081  0.64200  Biso   1.000  H
  H299     1.0000 0.48590  0.97630  0.61160  Biso   1.000  H
  C526     1.0000 0.50055  0.92771  0.54691  Biso   1.000  C
  H300     1.0000 0.41499  0.85829  0.77909  Biso   1.000  H
  C527     1.0000 0.20543  0.80700  0.59853  Biso   1.000  C
  N37      1.0000 0.22595  0.87528  0.59147  Biso   1.000  N
  N38      1.0000 0.46613  0.94404  0.54212  Biso   1.000  N
  C528     1.0000 0.53141  0.92142  0.52381  Biso   1.000  C
  H301     1.0000 0.21211  0.78139  0.60591  Biso   1.000  H
  C529     1.0000 0.16903  0.81497  0.58494  Biso   1.000  C
  C530     1.0000 0.18922  0.88340  0.57876  Biso   1.000  C
  C531     1.0000 0.45882  0.95692  0.51020  Biso   1.000  C
  C532     1.0000 0.52326  0.93400  0.49204  Biso   1.000  C
  H302     1.0000 0.55571  0.90961  0.52960  Biso   1.000  H
  H303     1.0000 0.15039  0.79439  0.58241  Biso   1.000  H
  C533     1.0000 0.15938  0.85359  0.57493  Biso   1.000  C
  N39      1.0000 0.18260  0.92345  0.57116  Biso   1.000  N
  N40      1.0000 0.42224  0.97465  0.50540  Biso   1.000  N
  C534     1.0000 0.48749  0.95243  0.48481  Biso   1.000  C
  H304     1.0000 0.54199  0.92999  0.47530  Biso   1.000  H
  C535     1.0000 0.12160  0.86659  0.56134  Biso   1.000  C
  C536     1.0000 0.14791  0.93229  0.56030  Biso   1.000  C
  C537     1.0000 0.41517  0.98868  0.47572  Biso   1.000  C
  C538     1.0000 0.47653  0.96716  0.45232  Biso   1.000  C
  H305     1.0000 0.10141  0.84790  0.55749  Biso   1.000  H
  C539     1.0000 0.11531  0.90419  0.55436  Biso   1.000  C
  O39      1.0000 0.13814  0.97136  0.55250  Biso   1.000  O
  O40      1.0000 0.37853  0.00431  0.46782  Biso   1.000  O
  C540     1.0000 0.44151  0.98502  0.44812  Biso   1.000  C
  H306     1.0000 0.49399  0.96411  0.43451  Biso   1.000  H
  H307     1.0000 0.09090  0.91279  0.54589  Biso   1.000  H
  C541     1.0000 0.16927  0.99961  0.55225  Biso   1.000  C
  C542     1.0000 0.35322  0.02187  0.49067  Biso   1.000  C
  H308     1.0000 0.43420  0.99509  0.42740  Biso   1.000  H
  C543     1.0000 0.18865  0.00605  0.52138  Biso   1.000  C
  C544     1.0000 0.17880  0.02100  0.57935  Biso   1.000  C
  C545     1.0000 0.31241  0.02097  0.48036  Biso   1.000  C
  C546     1.0000 0.36454  0.04293  0.51872  Biso   1.000  C
  H309     1.0000 0.18191  0.99140  0.50260  Biso   1.000  H
  C547     1.0000 0.21762  0.03475  0.52048  Biso   1.000  C
  C548     1.0000 0.20827  0.05036  0.57823  Biso   1.000  C
  H310     1.0000 0.16549  0.01609  0.59920  Biso   1.000  H
  C549     1.0000 0.28455  0.04275  0.49870  Biso   1.000  C
  H311     1.0000 0.30459  0.00620  0.46191  Biso   1.000  H
  C550     1.0000 0.33566  0.06486  0.53665  Biso   1.000  C
  H312     1.0000 0.39111  0.04269  0.52570  Biso   1.000  H
  C551     1.0000 0.22829  0.05680  0.54823  Biso   1.000  C
  C552     1.0000 0.24057  0.04722  0.48903  Biso   1.000  C
  H313     1.0000 0.21451  0.06531  0.59699  Biso   1.000  H
  C553     1.0000 0.29575  0.06447  0.52622  Biso   1.000  C
  H314     1.0000 0.34309  0.07951  0.55531  Biso   1.000  H
  C554     1.0000 0.26085  0.08763  0.54177  Biso   1.000  C
  H315     1.0000 0.23311  0.03191  0.46921  Biso   1.000  H
  C555     1.0000 0.23353  0.09215  0.48563  Biso   1.000  C
  H316     1.0000 0.26849  0.10291  0.56159  Biso   1.000  H
  C556     1.0000 0.24396  0.11417  0.51328  Biso   1.000  C
  C557     1.0000 0.21714  0.11241  0.45811  Biso   1.000  C
  C558     1.0000 0.23799  0.15468  0.51484  Biso   1.000  C
  C559     1.0000 0.21169  0.15180  0.45895  Biso   1.000  C
  H317     1.0000 0.21010  0.09800  0.43920  Biso   1.000  H
  H318     1.0000 0.24509  0.16921  0.53370  Biso   1.000  H
  C560     1.0000 0.22071  0.17379  0.48719  Biso   1.000  C
  H319     1.0000 0.20159  0.16480  0.44030  Biso   1.000  H
  H320     1.0000 0.21529  0.20111  0.48789  Biso   1.000  H
  C561     1.0000 0.78283  0.22652  0.29766  Biso   1.000  C
  C562     1.0000 0.76497  0.19153  0.30186  Biso   1.000  C
  C563     1.0000 0.79757  0.23751  0.26517  Biso   1.000  C
  H321     1.0000 0.78591  0.24399  0.31550  Biso   1.000  H
  C564     1.0000 0.76132  0.16516  0.27429  Biso   1.000  C
  H322     1.0000 0.75491  0.18419  0.32260  Biso   1.000  H
  C565     1.0000 0.79307  0.20881  0.23981  Biso   1.000  C
  C566     1.0000 0.81602  0.27326  0.25797  Biso   1.000  C
  O41      1.0000 0.74568  0.12852  0.28216  Biso   1.000  O
  N41      1.0000 0.77534  0.17223  0.24458  Biso   1.000  N
  N42      1.0000 0.80596  0.21612  0.20789  Biso   1.000  N
  C567     1.0000 0.82857  0.28143  0.22617  Biso   1.000  C
  H323     1.0000 0.82001  0.29201  0.27471  Biso   1.000  H
  C568     1.0000 0.72815  0.10321  0.25931  Biso   1.000  C
  C569     1.0000 0.82228  0.25055  0.20310  Biso   1.000  C
  H324     1.0000 0.84041  0.30570  0.22041  Biso   1.000  H
  C570     1.0000 0.70706  0.11453  0.23129  Biso   1.000  C
  C571     1.0000 0.72902  0.06240  0.26962  Biso   1.000  C
  O42      1.0000 0.83556  0.26022  0.17160  Biso   1.000  O
  C572     1.0000 0.68513  0.08565  0.21335  Biso   1.000  C
  H325     1.0000 0.70730  0.14111  0.22431  Biso   1.000  H
  C573     1.0000 0.70727  0.03454  0.25131  Biso   1.000  C
  H326     1.0000 0.74379  0.05459  0.28810  Biso   1.000  H
  C574     1.0000 0.83304  0.22979  0.14688  Biso   1.000  C
  C575     1.0000 0.68555  0.04575  0.22379  Biso   1.000  C
  H327     1.0000 0.67051  0.09311  0.19470  Biso   1.000  H
  C576     1.0000 0.70278  0.99059  0.26095  Biso   1.000  C
  C577     1.0000 0.79658  0.22212  0.13188  Biso   1.000  C
  C578     1.0000 0.86785  0.21073  0.13784  Biso   1.000  C
  C579     1.0000 0.66239  0.01085  0.20824  Biso   1.000  C
  C580     1.0000 0.71527  0.96761  0.22953  Biso   1.000  C
  H328     1.0000 0.71809  0.98310  0.28080  Biso   1.000  H
  C581     1.0000 0.65787  0.98352  0.26438  Biso   1.000  C
  H329     1.0000 0.77369  0.23590  0.13841  Biso   1.000  H
  C582     1.0000 0.79484  0.19350  0.10691  Biso   1.000  C
  C583     1.0000 0.86539  0.18236  0.11315  Biso   1.000  C
  H330     1.0000 0.89209  0.21681  0.14800  Biso   1.000  H
  H331     1.0000 0.64711  0.01851  0.18839  Biso   1.000  H
  C584     1.0000 0.69322  0.97828  0.20178  Biso   1.000  C
  C585     1.0000 0.63582  0.99395  0.23673  Biso   1.000  C
  C586     1.0000 0.74394  0.93867  0.22863  Biso   1.000  C
  C587     1.0000 0.63759  0.96714  0.29190  Biso   1.000  C
  H332     1.0000 0.77069  0.18781  0.09641  Biso   1.000  H
  C588     1.0000 0.82935  0.17376  0.09802  Biso   1.000  C
  C589     1.0000 0.90072  0.15681  0.09949  Biso   1.000  C
  C590     1.0000 0.69966  0.95827  0.17177  Biso   1.000  C
  C591     1.0000 0.59534  0.98799  0.23514  Biso   1.000  C
  C592     1.0000 0.75041  0.91926  0.19775  Biso   1.000  C
  H333     1.0000 0.75859  0.93190  0.24741  Biso   1.000  H
  C593     1.0000 0.59819  0.96171  0.29105  Biso   1.000  C
  H334     1.0000 0.65200  0.96009  0.31080  Biso   1.000  H
  C594     1.0000 0.83235  0.13946  0.07181  Biso   1.000  C
  H335     1.0000 0.92639  0.16340  0.10989  Biso   1.000  H
  C595     1.0000 0.88837  0.11414  0.10510  Biso   1.000  C
  C596     1.0000 0.90099  0.16298  0.06210  Biso   1.000  C
  H336     1.0000 0.68471  0.96450  0.15299  Biso   1.000  H
  C597     1.0000 0.72899  0.92879  0.17065  Biso   1.000  C
  H337     1.0000 0.58081  0.99509  0.21631  Biso   1.000  H
  C598     1.0000 0.57620  0.97070  0.26281  Biso   1.000  C
  O43      1.0000 0.77866  0.88813  0.19751  Biso   1.000  O
  H338     1.0000 0.58519  0.95159  0.30971  Biso   1.000  H
  H339     1.0000 0.80670  0.13281  0.06131  Biso   1.000  H
  C599     1.0000 0.85119  0.10486  0.09017  Biso   1.000  C
  C600     1.0000 0.86471  0.15363  0.04710  Biso   1.000  C
  C601     1.0000 0.91036  0.08490  0.12130  Biso   1.000  C
  C602     1.0000 0.93271  0.17481  0.04260  Biso   1.000  C
  H340     1.0000 0.73390  0.91549  0.15081  Biso   1.000  H
  H341     1.0000 0.54891  0.96531  0.26209  Biso   1.000  H
  C603     1.0000 0.81770  0.89793  0.18971  Biso   1.000  C
  C604     1.0000 0.83684  0.06594  0.09196  Biso   1.000  C
  C605     1.0000 0.85970  0.15462  0.01294  Biso   1.000  C
  C606     1.0000 0.89517  0.04593  0.12244  Biso   1.000  C
  H342     1.0000 0.93481  0.09111  0.13121  Biso   1.000  H
  C607     1.0000 0.92780  0.17670  0.00850  Biso   1.000  C
  H343     1.0000 0.95710  0.18149  0.05219  Biso   1.000  H
  N43      1.0000 0.82657  0.93259  0.17885  Biso   1.000  N
  C608     1.0000 0.84580  0.86530  0.19564  Biso   1.000  C
  C609     1.0000 0.85871  0.03661  0.10748  Biso   1.000  C
  H344     1.0000 0.81219  0.05971  0.08259  Biso   1.000  H
  H345     1.0000 0.83529  0.14839  0.00301  Biso   1.000  H
  C610     1.0000 0.89329  0.16549  0.99399  Biso   1.000  C
  O44      1.0000 0.92253  0.01851  0.13578  Biso   1.000  O
  H346     1.0000 0.94880  0.18590  0.99531  Biso   1.000  H
  C611     1.0000 0.86659  0.93924  0.17125  Biso   1.000  C
  C612     1.0000 0.88340  0.87160  0.18866  Biso   1.000  C
  H347     1.0000 0.83720  0.84089  0.20409  Biso   1.000  H
  H348     1.0000 0.84919  0.01040  0.10801  Biso   1.000  H
  H349     1.0000 0.89170  0.16501  0.97091  Biso   1.000  H
  C613     1.0000 0.91162  0.98193  0.14899  Biso   1.000  C
  N44      1.0000 0.87471  0.97597  0.15853  Biso   1.000  N
  C614     1.0000 0.89640  0.90940  0.17508  Biso   1.000  C
  H350     1.0000 0.90209  0.85140  0.19249  Biso   1.000  H
  C615     1.0000 0.94299  0.95542  0.15145  Biso   1.000  C
  C616     1.0000 0.93505  0.91902  0.16504  Biso   1.000  C
  H351     1.0000 0.96860  0.96210  0.14410  Biso   1.000  H
  H352     1.0000 0.95560  0.90039  0.16760  Biso   1.000  H
  C617     1.0000 0.21717  0.77348  0.70234  Biso   1.000  C
  C618     1.0000 0.23503  0.80847  0.69814  Biso   1.000  C
  H353     1.0000 0.21409  0.75601  0.68450  Biso   1.000  H
  C619     1.0000 0.20243  0.76249  0.73483  Biso   1.000  C
  C620     1.0000 0.23868  0.83484  0.72571  Biso   1.000  C
  H354     1.0000 0.24509  0.81581  0.67740  Biso   1.000  H
  C621     1.0000 0.18398  0.72674  0.74203  Biso   1.000  C
  C622     1.0000 0.20693  0.79119  0.76019  Biso   1.000  C
  O45      1.0000 0.25432  0.87148  0.71784  Biso   1.000  O
  N45      1.0000 0.22466  0.82777  0.75542  Biso   1.000  N
  H355     1.0000 0.17999  0.70799  0.72529  Biso   1.000  H
  C623     1.0000 0.17143  0.71857  0.77383  Biso   1.000  C
  N46      1.0000 0.19404  0.78388  0.79211  Biso   1.000  N
  C624     1.0000 0.27185  0.89679  0.74069  Biso   1.000  C
  H356     1.0000 0.15959  0.69430  0.77959  Biso   1.000  H
  C625     1.0000 0.17772  0.74945  0.79690  Biso   1.000  C
  C626     1.0000 0.29294  0.88547  0.76871  Biso   1.000  C
  C627     1.0000 0.27098  0.93760  0.73038  Biso   1.000  C
  O46      1.0000 0.16444  0.73978  0.82840  Biso   1.000  O
  C628     1.0000 0.31487  0.91435  0.78665  Biso   1.000  C
  H357     1.0000 0.29270  0.85889  0.77569  Biso   1.000  H
  C629     1.0000 0.29273  0.96546  0.74869  Biso   1.000  C
  H358     1.0000 0.25621  0.94541  0.71190  Biso   1.000  H
  C630     1.0000 0.16696  0.77021  0.85312  Biso   1.000  C
  C631     1.0000 0.31445  0.95425  0.77621  Biso   1.000  C
  H359     1.0000 0.32949  0.90689  0.80530  Biso   1.000  H
  C632     1.0000 0.29722  0.00941  0.73905  Biso   1.000  C
  C633     1.0000 0.20342  0.77788  0.86812  Biso   1.000  C
  C634     1.0000 0.13215  0.78927  0.86216  Biso   1.000  C
  C635     1.0000 0.33761  0.98915  0.79176  Biso   1.000  C
  C636     1.0000 0.28473  0.03239  0.77047  Biso   1.000  C
  H360     1.0000 0.28191  0.01690  0.71920  Biso   1.000  H
  C637     1.0000 0.34213  0.01648  0.73562  Biso   1.000  C
  H361     1.0000 0.22631  0.76410  0.86159  Biso   1.000  H
  C638     1.0000 0.20516  0.80650  0.89309  Biso   1.000  C
  C639     1.0000 0.13461  0.81764  0.88685  Biso   1.000  C
  H362     1.0000 0.10791  0.78319  0.85200  Biso   1.000  H
  H363     1.0000 0.35289  0.98149  0.81161  Biso   1.000  H
  C640     1.0000 0.30678  0.02172  0.79822  Biso   1.000  C
  C641     1.0000 0.36418  0.00605  0.76327  Biso   1.000  C
  C642     1.0000 0.25606  0.06133  0.77137  Biso   1.000  C
  C643     1.0000 0.36241  0.03286  0.70810  Biso   1.000  C
  H364     1.0000 0.22931  0.81219  0.90359  Biso   1.000  H
  C644     1.0000 0.17065  0.82624  0.90198  Biso   1.000  C
  C645     1.0000 0.09928  0.84319  0.90051  Biso   1.000  C
  C646     1.0000 0.30034  0.04173  0.82823  Biso   1.000  C
  C647     1.0000 0.40466  0.01201  0.76486  Biso   1.000  C
  C648     1.0000 0.24959  0.08074  0.80225  Biso   1.000  C
  H365     1.0000 0.24141  0.06810  0.75259  Biso   1.000  H
  C649     1.0000 0.40181  0.03829  0.70895  Biso   1.000  C
  H366     1.0000 0.34800  0.03991  0.68920  Biso   1.000  H
  C650     1.0000 0.16765  0.86054  0.92819  Biso   1.000  C
  H367     1.0000 0.07361  0.83660  0.89011  Biso   1.000  H
  C651     1.0000 0.11163  0.88586  0.89490  Biso   1.000  C
  C652     1.0000 0.09901  0.83702  0.93790  Biso   1.000  C
  H368     1.0000 0.31529  0.03550  0.84701  Biso   1.000  H
  C653     1.0000 0.27101  0.07121  0.82935  Biso   1.000  C
  H369     1.0000 0.41919  0.00491  0.78369  Biso   1.000  H
  C654     1.0000 0.42380  0.02930  0.73719  Biso   1.000  C
  O47      1.0000 0.22134  0.11187  0.80249  Biso   1.000  O
  H370     1.0000 0.41481  0.04841  0.69029  Biso   1.000  H
  H371     1.0000 0.19330  0.86719  0.93869  Biso   1.000  H
  C655     1.0000 0.14881  0.89514  0.90983  Biso   1.000  C
  C656     1.0000 0.13529  0.84637  0.95290  Biso   1.000  C
  C657     1.0000 0.08964  0.91510  0.87870  Biso   1.000  C
  C658     1.0000 0.06729  0.82519  0.95740  Biso   1.000  C
  H372     1.0000 0.26610  0.08451  0.84919  Biso   1.000  H
  H373     1.0000 0.45109  0.03469  0.73791  Biso   1.000  H
  C659     1.0000 0.18230  0.10207  0.81029  Biso   1.000  C
  C660     1.0000 0.16316  0.93406  0.90804  Biso   1.000  C
  C661     1.0000 0.14030  0.84538  0.98706  Biso   1.000  C
  H374     1.0000 0.06519  0.90889  0.86879  Biso   1.000  H
  C662     1.0000 0.10483  0.95407  0.87756  Biso   1.000  C
  C663     1.0000 0.07220  0.82330  0.99150  Biso   1.000  C
  H375     1.0000 0.04290  0.81851  0.94781  Biso   1.000  H
  N47      1.0000 0.17343  0.06741  0.82115  Biso   1.000  N
  C664     1.0000 0.15420  0.13470  0.80436  Biso   1.000  C
  C665     1.0000 0.14129  0.96339  0.89252  Biso   1.000  C
  H376     1.0000 0.18781  0.94029  0.91741  Biso   1.000  H
  H377     1.0000 0.16471  0.85161  0.99699  Biso   1.000  H
  C666     1.0000 0.10671  0.83451  0.00601  Biso   1.000  C
  O48      1.0000 0.07747  0.98149  0.86422  Biso   1.000  O
  H378     1.0000 0.05120  0.81410  0.00469  Biso   1.000  H
  C667     1.0000 0.13341  0.06076  0.82875  Biso   1.000  C
  C668     1.0000 0.11660  0.12840  0.81134  Biso   1.000  C
  H379     1.0000 0.16280  0.15911  0.79591  Biso   1.000  H
  H380     1.0000 0.15081  0.98960  0.89199  Biso   1.000  H
  H381     1.0000 0.10830  0.83499  0.02909  Biso   1.000  H
  C669     1.0000 0.08838  0.01807  0.85101  Biso   1.000  C
  N48      1.0000 0.12529  0.02403  0.84147  Biso   1.000  N
  C670     1.0000 0.10360  0.09060  0.82492  Biso   1.000  C
  H382     1.0000 0.09791  0.14860  0.80751  Biso   1.000  H
  C671     1.0000 0.05701  0.04458  0.84855  Biso   1.000  C
  C672     1.0000 0.06495  0.08098  0.83496  Biso   1.000  C
  H383     1.0000 0.03140  0.03790  0.85590  Biso   1.000  H
  H384     1.0000 0.04440  0.09961  0.83240  Biso   1.000  H
  C673     1.0000 0.90461  0.39031  0.23705  Biso   1.000  C
  C674     1.0000 0.90365  0.38530  0.20292  Biso   1.000  C
  H385     1.0000 0.89841  0.41469  0.24699  Biso   1.000  H
  C675     1.0000 0.91549  0.35669  0.25601  Biso   1.000  C
  C676     1.0000 0.91297  0.34899  0.18792  Biso   1.000  C
  C677     1.0000 0.88945  0.41763  0.17818  Biso   1.000  C
  C678     1.0000 0.92669  0.32221  0.24150  Biso   1.000  C
  H386     1.0000 0.91501  0.35831  0.27911  Biso   1.000  H
  C679     1.0000 0.90680  0.34929  0.15051  Biso   1.000  C
  C680     1.0000 0.92480  0.31730  0.20739  Biso   1.000  C
  C681     1.0000 0.85488  0.39881  0.15982  Biso   1.000  C
  C682     1.0000 0.92378  0.42065  0.15197  Biso   1.000  C
  H387     1.0000 0.88280  0.44330  0.18869  Biso   1.000  H
  H388     1.0000 0.93589  0.30121  0.25469  Biso   1.000  H
  C683     1.0000 0.86414  0.36163  0.14489  Biso   1.000  C
  C684     1.0000 0.93235  0.38461  0.13687  Biso   1.000  C
  H389     1.0000 0.91339  0.32359  0.14010  Biso   1.000  H
  H390     1.0000 0.93151  0.29291  0.19780  Biso   1.000  H
  C685     1.0000 0.81596  0.41316  0.15803  Biso   1.000  C
  C686     1.0000 0.94350  0.45514  0.14308  Biso   1.000  C
  C687     1.0000 0.83490  0.33964  0.12870  Biso   1.000  C
  C688     1.0000 0.96075  0.38213  0.11215  Biso   1.000  C
  C689     1.0000 0.78660  0.39129  0.14251  Biso   1.000  C
  H391     1.0000 0.80970  0.43779  0.16740  Biso   1.000  H
  C690     1.0000 0.97214  0.45343  0.11814  Biso   1.000  C
  H392     1.0000 0.93781  0.47931  0.15359  Biso   1.000  H
  C691     1.0000 0.79595  0.35483  0.12758  Biso   1.000  C
  H393     1.0000 0.84110  0.31520  0.11881  Biso   1.000  H
  C692     1.0000 0.97978  0.41697  0.10314  Biso   1.000  C
  H394     1.0000 0.96681  0.35789  0.10199  Biso   1.000  H
  H395     1.0000 0.76039  0.40079  0.14199  Biso   1.000  H
  H396     1.0000 0.98589  0.47629  0.11161  Biso   1.000  H
  O49      1.0000 0.76851  0.32748  0.11422  Biso   1.000  O
  O50      1.0000 0.01022  0.41445  0.07840  Biso   1.000  O
  C693     1.0000 0.73193  0.33836  0.10100  Biso   1.000  C
  C694     1.0000 0.00054  0.42772  0.04690  Biso   1.000  C
  C695     1.0000 0.70541  0.30699  0.09854  Biso   1.000  C
  N49      1.0000 0.72597  0.37527  0.09149  Biso   1.000  N
  N50      1.0000 0.96612  0.44402  0.04210  Biso   1.000  N
  C696     1.0000 0.03143  0.42143  0.02382  Biso   1.000  C
  C697     1.0000 0.66901  0.31496  0.08495  Biso   1.000  C
  H397     1.0000 0.71209  0.28140  0.10589  Biso   1.000  H
  C698     1.0000 0.68924  0.38341  0.07874  Biso   1.000  C
  C699     1.0000 0.95881  0.45693  0.01018  Biso   1.000  C
  C700     1.0000 0.02325  0.43399  0.99205  Biso   1.000  C
  H398     1.0000 0.05569  0.40960  0.02961  Biso   1.000  H
  C701     1.0000 0.65940  0.35361  0.07492  Biso   1.000  C
  H399     1.0000 0.65041  0.29441  0.08240  Biso   1.000  H
  N51      1.0000 0.68258  0.42344  0.07117  Biso   1.000  N
  N52      1.0000 0.92223  0.47467  0.00542  Biso   1.000  N
  C702     1.0000 0.98751  0.45244  0.98482  Biso   1.000  C
  H400     1.0000 0.04200  0.43000  0.97531  Biso   1.000  H
  C703     1.0000 0.62159  0.36661  0.06133  Biso   1.000  C
  C704     1.0000 0.64792  0.43231  0.06029  Biso   1.000  C
  C705     1.0000 0.91516  0.48869  0.97573  Biso   1.000  C
  C706     1.0000 0.97654  0.46718  0.95233  Biso   1.000  C
  H401     1.0000 0.60140  0.34791  0.05751  Biso   1.000  H
  C707     1.0000 0.61530  0.40421  0.05435  Biso   1.000  C
  O51      1.0000 0.63813  0.47134  0.05249  Biso   1.000  O
  O52      1.0000 0.87852  0.50433  0.96783  Biso   1.000  O
  C708     1.0000 0.94152  0.48504  0.94813  Biso   1.000  C
  H402     1.0000 0.99401  0.46409  0.93450  Biso   1.000  H
  H403     1.0000 0.59091  0.41280  0.04591  Biso   1.000  H
  C709     1.0000 0.66928  0.49960  0.05224  Biso   1.000  C
  C710     1.0000 0.85320  0.52186  0.99068  Biso   1.000  C
  H404     1.0000 0.93421  0.49510  0.92739  Biso   1.000  H
  C711     1.0000 0.68867  0.50607  0.02136  Biso   1.000  C
  C712     1.0000 0.67881  0.52099  0.07934  Biso   1.000  C
  C713     1.0000 0.81240  0.52096  0.98038  Biso   1.000  C
  C714     1.0000 0.86453  0.54295  0.01870  Biso   1.000  C
  H405     1.0000 0.68190  0.49139  0.00261  Biso   1.000  H
  C715     1.0000 0.71761  0.53474  0.02047  Biso   1.000  C
  C716     1.0000 0.70826  0.55035  0.07825  Biso   1.000  C
  H406     1.0000 0.66551  0.51610  0.09919  Biso   1.000  H
  C717     1.0000 0.78454  0.54274  0.99868  Biso   1.000  C
  H407     1.0000 0.80461  0.50619  0.96189  Biso   1.000  H
  C718     1.0000 0.83565  0.56488  0.03664  Biso   1.000  C
  H408     1.0000 0.89110  0.54271  0.02571  Biso   1.000  H
  C719     1.0000 0.72827  0.55679  0.04824  Biso   1.000  C
  C720     1.0000 0.74059  0.54723  0.98905  Biso   1.000  C
  H409     1.0000 0.71449  0.56530  0.09700  Biso   1.000  H
  C721     1.0000 0.79574  0.56446  0.02621  Biso   1.000  C
  H410     1.0000 0.84310  0.57950  0.05529  Biso   1.000  H
  C722     1.0000 0.76084  0.58761  0.04176  Biso   1.000  C
  H411     1.0000 0.73310  0.53189  0.96920  Biso   1.000  H
  C723     1.0000 0.73352  0.59214  0.98564  Biso   1.000  C
  H412     1.0000 0.76851  0.60289  0.06160  Biso   1.000  H
  C724     1.0000 0.74397  0.61419  0.01329  Biso   1.000  C
  C725     1.0000 0.71713  0.61239  0.95812  Biso   1.000  C
  C726     1.0000 0.73801  0.65466  0.01485  Biso   1.000  C
  C727     1.0000 0.71170  0.65179  0.95894  Biso   1.000  C
  H413     1.0000 0.71009  0.59801  0.93919  Biso   1.000  H
  H414     1.0000 0.74511  0.66919  0.03371  Biso   1.000  H
  C728     1.0000 0.72069  0.67381  0.98721  Biso   1.000  C
  H415     1.0000 0.70161  0.66479  0.94031  Biso   1.000  H
  H416     1.0000 0.71530  0.70110  0.98790  Biso   1.000  H
  C729     1.0000 0.09539  0.60969  0.76295  Biso   1.000  C
  C730     1.0000 0.09635  0.61470  0.79708  Biso   1.000  C
  H417     1.0000 0.10159  0.58531  0.75301  Biso   1.000  H
  C731     1.0000 0.08451  0.64331  0.74399  Biso   1.000  C
  C732     1.0000 0.11055  0.58237  0.82182  Biso   1.000  C
  C733     1.0000 0.08703  0.65101  0.81208  Biso   1.000  C
  H418     1.0000 0.08499  0.64169  0.72089  Biso   1.000  H
  C734     1.0000 0.07331  0.67779  0.75850  Biso   1.000  C
  C735     1.0000 0.07622  0.57935  0.84803  Biso   1.000  C
  H419     1.0000 0.11720  0.55670  0.81131  Biso   1.000  H
  C736     1.0000 0.14512  0.60119  0.84018  Biso   1.000  C
  C737     1.0000 0.09320  0.65071  0.84949  Biso   1.000  C
  C738     1.0000 0.07520  0.68270  0.79261  Biso   1.000  C
  H420     1.0000 0.06411  0.69879  0.74531  Biso   1.000  H
  C739     1.0000 0.05650  0.54486  0.85692  Biso   1.000  C
  C740     1.0000 0.06765  0.61539  0.86313  Biso   1.000  C
  C741     1.0000 0.13586  0.63837  0.85511  Biso   1.000  C
  C742     1.0000 0.18404  0.58684  0.84197  Biso   1.000  C
  H421     1.0000 0.08661  0.67641  0.85990  Biso   1.000  H
  H422     1.0000 0.06849  0.70709  0.80220  Biso   1.000  H
  C743     1.0000 0.02786  0.54657  0.88186  Biso   1.000  C
  H423     1.0000 0.06219  0.52069  0.84641  Biso   1.000  H
  C744     1.0000 0.03925  0.61787  0.88785  Biso   1.000  C
  C745     1.0000 0.16510  0.66036  0.87130  Biso   1.000  C
  C746     1.0000 0.21340  0.60871  0.85749  Biso   1.000  C
  H424     1.0000 0.19030  0.56221  0.83260  Biso   1.000  H
  C747     1.0000 0.02022  0.58303  0.89686  Biso   1.000  C
  H425     1.0000 0.01411  0.52371  0.88839  Biso   1.000  H
  H426     1.0000 0.03319  0.64211  0.89801  Biso   1.000  H
  H427     1.0000 0.15890  0.68480  0.88119  Biso   1.000  H
  C748     1.0000 0.20405  0.64517  0.87242  Biso   1.000  C
  H428     1.0000 0.23961  0.59921  0.85801  Biso   1.000  H
  O53      1.0000 0.98978  0.58555  0.92160  Biso   1.000  O
  O54      1.0000 0.23149  0.67252  0.88578  Biso   1.000  O
  C749     1.0000 0.99946  0.57228  0.95310  Biso   1.000  C
  C750     1.0000 0.26807  0.66164  0.89900  Biso   1.000  C
  N53      1.0000 0.03388  0.55598  0.95790  Biso   1.000  N
  C751     1.0000 0.96857  0.57857  0.97618  Biso   1.000  C
  N54      1.0000 0.27403  0.62473  0.90851  Biso   1.000  N
  C752     1.0000 0.29459  0.69301  0.90146  Biso   1.000  C
  C753     1.0000 0.04119  0.54307  0.98982  Biso   1.000  C
  H429     1.0000 0.94431  0.59040  0.97039  Biso   1.000  H
  C754     1.0000 0.97675  0.56601  0.00795  Biso   1.000  C
  C755     1.0000 0.31076  0.61659  0.92126  Biso   1.000  C
  H430     1.0000 0.28791  0.71860  0.89411  Biso   1.000  H
  C756     1.0000 0.33099  0.68504  0.91505  Biso   1.000  C
  N55      1.0000 0.07777  0.52533  0.99458  Biso   1.000  N
  C757     1.0000 0.01249  0.54756  0.01518  Biso   1.000  C
  H431     1.0000 0.95800  0.57000  0.02469  Biso   1.000  H
  N56      1.0000 0.31742  0.57656  0.92883  Biso   1.000  N
  C758     1.0000 0.34060  0.64639  0.92508  Biso   1.000  C
  H432     1.0000 0.34959  0.70559  0.91760  Biso   1.000  H
  C759     1.0000 0.08484  0.51131  0.02427  Biso   1.000  C
  C760     1.0000 0.02346  0.53282  0.04767  Biso   1.000  C
  C761     1.0000 0.35208  0.56769  0.93971  Biso   1.000  C
  C762     1.0000 0.37841  0.63339  0.93867  Biso   1.000  C
  O55      1.0000 0.12148  0.49567  0.03217  Biso   1.000  O
  C763     1.0000 0.05848  0.51496  0.05187  Biso   1.000  C
  H433     1.0000 0.00599  0.53591  0.06550  Biso   1.000  H
  O56      1.0000 0.36187  0.52866  0.94751  Biso   1.000  O
  C764     1.0000 0.38470  0.59579  0.94565  Biso   1.000  C
  H434     1.0000 0.39860  0.65209  0.94249  Biso   1.000  H
  C765     1.0000 0.14680  0.47814  0.00932  Biso   1.000  C
  H435     1.0000 0.06579  0.50490  0.07261  Biso   1.000  H
  C766     1.0000 0.33072  0.50040  0.94776  Biso   1.000  C
  H436     1.0000 0.40909  0.58720  0.95409  Biso   1.000  H
  C767     1.0000 0.13547  0.45705  0.98130  Biso   1.000  C
  C768     1.0000 0.18760  0.47904  0.01962  Biso   1.000  C
  C769     1.0000 0.31133  0.49393  0.97864  Biso   1.000  C
  C770     1.0000 0.32119  0.47901  0.92066  Biso   1.000  C
  C771     1.0000 0.16435  0.43512  0.96336  Biso   1.000  C
  H437     1.0000 0.10890  0.45729  0.97429  Biso   1.000  H
  C772     1.0000 0.21546  0.45726  0.00132  Biso   1.000  C
  H438     1.0000 0.19539  0.49381  0.03811  Biso   1.000  H
  H439     1.0000 0.31810  0.50861  0.99739  Biso   1.000  H
  C773     1.0000 0.28239  0.46526  0.97953  Biso   1.000  C
  C774     1.0000 0.29174  0.44965  0.92175  Biso   1.000  C
  H440     1.0000 0.33449  0.48390  0.90081  Biso   1.000  H
  C775     1.0000 0.20426  0.43554  0.97379  Biso   1.000  C
  H441     1.0000 0.15690  0.42050  0.94471  Biso   1.000  H
  C776     1.0000 0.25941  0.45277  0.01095  Biso   1.000  C
  C777     1.0000 0.27173  0.44321  0.95176  Biso   1.000  C
  H442     1.0000 0.28551  0.43470  0.90300  Biso   1.000  H
  C778     1.0000 0.23916  0.41239  0.95824  Biso   1.000  C
  H443     1.0000 0.26690  0.46811  0.03080  Biso   1.000  H
  C779     1.0000 0.26648  0.40786  0.01436  Biso   1.000  C
  H444     1.0000 0.23149  0.39711  0.93840  Biso   1.000  H
  C780     1.0000 0.25603  0.38581  0.98671  Biso   1.000  C
  C781     1.0000 0.28287  0.38761  0.04188  Biso   1.000  C
  C782     1.0000 0.26199  0.34534  0.98515  Biso   1.000  C
  C783     1.0000 0.28830  0.34821  0.04106  Biso   1.000  C
  H445     1.0000 0.28991  0.40199  0.06081  Biso   1.000  H
  H446     1.0000 0.25489  0.33081  0.96629  Biso   1.000  H
  C784     1.0000 0.27931  0.32619  0.01279  Biso   1.000  C
  H447     1.0000 0.29839  0.33521  0.05969  Biso   1.000  H
  H448     1.0000 0.28470  0.29890  0.01210  Biso   1.000  H
  C785     1.0000 0.70541  0.80700  0.90146  Biso   1.000  C
  C786     1.0000 0.73193  0.83837  0.89900  Biso   1.000  C
  H449     1.0000 0.71209  0.78139  0.89411  Biso   1.000  H
  C787     1.0000 0.66901  0.81497  0.91505  Biso   1.000  C
  O57      1.0000 0.76851  0.82747  0.88578  Biso   1.000  O
  N57      1.0000 0.72597  0.87528  0.90851  Biso   1.000  N
  H450     1.0000 0.65041  0.79439  0.91760  Biso   1.000  H
  C788     1.0000 0.65940  0.85359  0.92508  Biso   1.000  C
  C789     1.0000 0.79595  0.85482  0.87242  Biso   1.000  C
  C790     1.0000 0.68924  0.88340  0.92126  Biso   1.000  C
  C791     1.0000 0.62159  0.86659  0.93867  Biso   1.000  C
  C792     1.0000 0.83490  0.83966  0.87130  Biso   1.000  C
  C793     1.0000 0.78660  0.89128  0.85749  Biso   1.000  C
  N58      1.0000 0.68258  0.92345  0.92883  Biso   1.000  N
  H451     1.0000 0.60140  0.84790  0.94249  Biso   1.000  H
  C794     1.0000 0.61530  0.90419  0.94565  Biso   1.000  C
  C795     1.0000 0.86414  0.86162  0.85511  Biso   1.000  C
  H452     1.0000 0.84110  0.81521  0.88119  Biso   1.000  H
  H453     1.0000 0.76039  0.90081  0.85801  Biso   1.000  H
  C796     1.0000 0.81596  0.91318  0.84197  Biso   1.000  C
  C797     1.0000 0.64792  0.93229  0.93971  Biso   1.000  C
  H454     1.0000 0.59091  0.91279  0.95409  Biso   1.000  H
  C798     1.0000 0.90680  0.84928  0.84949  Biso   1.000  C
  C799     1.0000 0.85488  0.89880  0.84018  Biso   1.000  C
  H455     1.0000 0.80970  0.93781  0.83260  Biso   1.000  H
  O58      1.0000 0.63813  0.97136  0.94751  Biso   1.000  O
  C800     1.0000 0.93235  0.88460  0.86313  Biso   1.000  C
  H456     1.0000 0.91339  0.82360  0.85990  Biso   1.000  H
  C801     1.0000 0.91297  0.84901  0.81208  Biso   1.000  C
  C802     1.0000 0.88945  0.91764  0.82182  Biso   1.000  C
  C803     1.0000 0.66928  0.99961  0.94776  Biso   1.000  C
  C804     1.0000 0.92378  0.92067  0.84803  Biso   1.000  C
  C805     1.0000 0.96075  0.88214  0.88785  Biso   1.000  C
  C806     1.0000 0.90365  0.88529  0.79708  Biso   1.000  C
  C807     1.0000 0.92480  0.81731  0.79261  Biso   1.000  C
  H457     1.0000 0.88280  0.94329  0.81131  Biso   1.000  H
  C808     1.0000 0.68867  0.00605  0.97864  Biso   1.000  C
  C809     1.0000 0.67881  0.02100  0.92066  Biso   1.000  C
  C810     1.0000 0.94350  0.95515  0.85692  Biso   1.000  C
  C811     1.0000 0.97978  0.91695  0.89686  Biso   1.000  C
  H458     1.0000 0.96681  0.85790  0.89801  Biso   1.000  H
  C812     1.0000 0.90461  0.89029  0.76295  Biso   1.000  C
  C813     1.0000 0.92669  0.82219  0.75850  Biso   1.000  C
  H459     1.0000 0.93151  0.79289  0.80220  Biso   1.000  H
  H460     1.0000 0.68190  0.99140  0.99739  Biso   1.000  H
  C814     1.0000 0.71761  0.03475  0.97953  Biso   1.000  C
  C815     1.0000 0.70826  0.05036  0.92175  Biso   1.000  C
  H461     1.0000 0.66551  0.01609  0.90081  Biso   1.000  H
  C816     1.0000 0.97214  0.95341  0.88186  Biso   1.000  C
  H462     1.0000 0.93781  0.97930  0.84641  Biso   1.000  H
  O59      1.0000 0.01022  0.91444  0.92160  Biso   1.000  O
  H463     1.0000 0.89841  0.91471  0.75301  Biso   1.000  H
  C817     1.0000 0.91549  0.85671  0.74399  Biso   1.000  C
  H464     1.0000 0.93589  0.80119  0.74531  Biso   1.000  H
  C818     1.0000 0.72827  0.05680  0.95176  Biso   1.000  C
  C819     1.0000 0.74059  0.04722  0.01095  Biso   1.000  C
  H465     1.0000 0.71449  0.06531  0.90300  Biso   1.000  H
  H466     1.0000 0.98589  0.97630  0.88839  Biso   1.000  H
  C820     1.0000 0.00054  0.92771  0.95310  Biso   1.000  C
  H467     1.0000 0.91501  0.85829  0.72089  Biso   1.000  H
  C821     1.0000 0.76084  0.08763  0.95824  Biso   1.000  C
  H468     1.0000 0.73310  0.03191  0.03080  Biso   1.000  H
  C822     1.0000 0.78454  0.04275  0.00132  Biso   1.000  C
  C823     1.0000 0.73352  0.09215  0.01436  Biso   1.000  C
  N59      1.0000 0.96612  0.94404  0.95790  Biso   1.000  N
  C824     1.0000 0.03143  0.92142  0.97618  Biso   1.000  C
  C825     1.0000 0.79574  0.06447  0.97379  Biso   1.000  C
  H469     1.0000 0.76851  0.10291  0.93840  Biso   1.000  H
  C826     1.0000 0.74397  0.11417  0.98671  Biso   1.000  C
  C827     1.0000 0.81240  0.02097  0.01962  Biso   1.000  C
  C828     1.0000 0.71713  0.11241  0.04188  Biso   1.000  C
  C829     1.0000 0.95881  0.95692  0.98982  Biso   1.000  C
  H470     1.0000 0.05569  0.90961  0.97039  Biso   1.000  H
  C830     1.0000 0.02325  0.93400  0.00795  Biso   1.000  C
  C831     1.0000 0.83565  0.06486  0.96336  Biso   1.000  C
  C832     1.0000 0.73801  0.15468  0.98515  Biso   1.000  C
  C833     1.0000 0.85320  0.02187  0.00932  Biso   1.000  C
  H471     1.0000 0.80461  0.00620  0.03811  Biso   1.000  H
  C834     1.0000 0.71170  0.15180  0.04106  Biso   1.000  C
  H472     1.0000 0.71009  0.09800  0.06081  Biso   1.000  H
  N60      1.0000 0.92223  0.97465  0.99458  Biso   1.000  N
  C835     1.0000 0.98751  0.95243  0.01518  Biso   1.000  C
  H473     1.0000 0.04200  0.92999  0.02469  Biso   1.000  H
  H474     1.0000 0.84310  0.07951  0.94471  Biso   1.000  H
  C836     1.0000 0.86453  0.04293  0.98130  Biso   1.000  C
  H475     1.0000 0.74511  0.16921  0.96629  Biso   1.000  H
  C837     1.0000 0.72069  0.17379  0.01279  Biso   1.000  C
  O60      1.0000 0.87852  0.00431  0.03217  Biso   1.000  O
  H476     1.0000 0.70161  0.16480  0.05969  Biso   1.000  H
  C838     1.0000 0.91516  0.98868  0.02427  Biso   1.000  C
  C839     1.0000 0.97654  0.96716  0.04767  Biso   1.000  C
  H477     1.0000 0.89110  0.04269  0.97429  Biso   1.000  H
  H478     1.0000 0.71530  0.20111  0.01210  Biso   1.000  H
  C840     1.0000 0.94152  0.98502  0.05187  Biso   1.000  C
  H479     1.0000 0.99401  0.96411  0.06550  Biso   1.000  H
  H480     1.0000 0.93421  0.99509  0.07261  Biso   1.000  H
  C841     1.0000 0.29459  0.19300  0.09854  Biso   1.000  C
  C842     1.0000 0.26807  0.16163  0.10100  Biso   1.000  C
  H481     1.0000 0.28791  0.21861  0.10589  Biso   1.000  H
  C843     1.0000 0.33099  0.18503  0.08495  Biso   1.000  C
  O61      1.0000 0.23149  0.17253  0.11422  Biso   1.000  O
  N61      1.0000 0.27403  0.12472  0.09149  Biso   1.000  N
  C844     1.0000 0.34060  0.14641  0.07492  Biso   1.000  C
  H482     1.0000 0.34959  0.20561  0.08240  Biso   1.000  H
  C845     1.0000 0.20405  0.14518  0.12758  Biso   1.000  C
  C846     1.0000 0.31076  0.11660  0.07874  Biso   1.000  C
  C847     1.0000 0.37841  0.13341  0.06133  Biso   1.000  C
  C848     1.0000 0.16510  0.16034  0.12870  Biso   1.000  C
  C849     1.0000 0.21340  0.10872  0.14251  Biso   1.000  C
  N62      1.0000 0.31742  0.07655  0.07117  Biso   1.000  N
  C850     1.0000 0.38470  0.09581  0.05435  Biso   1.000  C
  H483     1.0000 0.39860  0.15210  0.05751  Biso   1.000  H
  C851     1.0000 0.13586  0.13838  0.14489  Biso   1.000  C
  H484     1.0000 0.15890  0.18479  0.11881  Biso   1.000  H
  H485     1.0000 0.23961  0.09919  0.14199  Biso   1.000  H
  C852     1.0000 0.18404  0.08682  0.15803  Biso   1.000  C
  C853     1.0000 0.35208  0.06771  0.06029  Biso   1.000  C
  H486     1.0000 0.40909  0.08721  0.04591  Biso   1.000  H
  C854     1.0000 0.09320  0.15072  0.15051  Biso   1.000  C
  C855     1.0000 0.14512  0.10120  0.15982  Biso   1.000  C
  H487     1.0000 0.19030  0.06219  0.16740  Biso   1.000  H
  O62      1.0000 0.36187  0.02864  0.05249  Biso   1.000  O
  C856     1.0000 0.06765  0.11540  0.13687  Biso   1.000  C
  H488     1.0000 0.08661  0.17640  0.14010  Biso   1.000  H
  C857     1.0000 0.08703  0.15099  0.18792  Biso   1.000  C
  C858     1.0000 0.11055  0.08236  0.17818  Biso   1.000  C
  C859     1.0000 0.33072  0.00039  0.05224  Biso   1.000  C
  C860     1.0000 0.07622  0.07933  0.15197  Biso   1.000  C
  C861     1.0000 0.03925  0.11786  0.11215  Biso   1.000  C
  C862     1.0000 0.09635  0.11471  0.20292  Biso   1.000  C
  C863     1.0000 0.07520  0.18269  0.20739  Biso   1.000  C
  H489     1.0000 0.11720  0.05671  0.18869  Biso   1.000  H
  C864     1.0000 0.31133  0.99395  0.02136  Biso   1.000  C
  C865     1.0000 0.32119  0.97900  0.07934  Biso   1.000  C
  C866     1.0000 0.05650  0.04485  0.14308  Biso   1.000  C
  C867     1.0000 0.02022  0.08305  0.10314  Biso   1.000  C
  H490     1.0000 0.03319  0.14210  0.10199  Biso   1.000  H
  C868     1.0000 0.09539  0.10971  0.23705  Biso   1.000  C
  C869     1.0000 0.07331  0.17781  0.24150  Biso   1.000  C
  H491     1.0000 0.06849  0.20711  0.19780  Biso   1.000  H
  H492     1.0000 0.31810  0.00860  0.00261  Biso   1.000  H
  C870     1.0000 0.28239  0.96525  0.02047  Biso   1.000  C
  C871     1.0000 0.29174  0.94964  0.07825  Biso   1.000  C
  H493     1.0000 0.33449  0.98391  0.09919  Biso   1.000  H
  C872     1.0000 0.02786  0.04659  0.11814  Biso   1.000  C
  H494     1.0000 0.06219  0.02070  0.15359  Biso   1.000  H
  O63      1.0000 0.98978  0.08556  0.07840  Biso   1.000  O
  H495     1.0000 0.10159  0.08529  0.24699  Biso   1.000  H
  C873     1.0000 0.08451  0.14329  0.25601  Biso   1.000  C
  H496     1.0000 0.06411  0.19881  0.25469  Biso   1.000  H
  C874     1.0000 0.25941  0.95278  0.98905  Biso   1.000  C
  C875     1.0000 0.27173  0.94320  0.04824  Biso   1.000  C
  H497     1.0000 0.28551  0.93469  0.09700  Biso   1.000  H
  H498     1.0000 0.01411  0.02370  0.11161  Biso   1.000  H
  C876     1.0000 0.99946  0.07229  0.04690  Biso   1.000  C
  H499     1.0000 0.08499  0.14171  0.27911  Biso   1.000  H
  H500     1.0000 0.26690  0.96809  0.96920  Biso   1.000  H
  C877     1.0000 0.21546  0.95725  0.99868  Biso   1.000  C
  C878     1.0000 0.26648  0.90785  0.98564  Biso   1.000  C
  C879     1.0000 0.23916  0.91237  0.04176  Biso   1.000  C
  N63      1.0000 0.03388  0.05596  0.04210  Biso   1.000  N
  C880     1.0000 0.96857  0.07858  0.02382  Biso   1.000  C
  C881     1.0000 0.18760  0.97903  0.98038  Biso   1.000  C
  C882     1.0000 0.20426  0.93553  0.02621  Biso   1.000  C
  C883     1.0000 0.28287  0.88759  0.95812  Biso   1.000  C
  C884     1.0000 0.25603  0.88583  0.01329  Biso   1.000  C
  H501     1.0000 0.23149  0.89709  0.06160  Biso   1.000  H
  C885     1.0000 0.04119  0.04308  0.01018  Biso   1.000  C
  C886     1.0000 0.97675  0.06600  0.99205  Biso   1.000  C
  H502     1.0000 0.94431  0.09039  0.02961  Biso   1.000  H
  C887     1.0000 0.14680  0.97813  0.99068  Biso   1.000  C
  H503     1.0000 0.19539  0.99380  0.96189  Biso   1.000  H
  C888     1.0000 0.16435  0.93514  0.03664  Biso   1.000  C
  C889     1.0000 0.28830  0.84820  0.95894  Biso   1.000  C
  H504     1.0000 0.28991  0.90200  0.93919  Biso   1.000  H
  C890     1.0000 0.26199  0.84532  0.01485  Biso   1.000  C
  N64      1.0000 0.07777  0.02535  0.00542  Biso   1.000  N
  C891     1.0000 0.01249  0.04757  0.98482  Biso   1.000  C
  H505     1.0000 0.95800  0.07001  0.97531  Biso   1.000  H
  O64      1.0000 0.12148  0.99569  0.96783  Biso   1.000  O
  C892     1.0000 0.13547  0.95707  0.01870  Biso   1.000  C
  H506     1.0000 0.15690  0.92049  0.05529  Biso   1.000  H
  C893     1.0000 0.27931  0.82621  0.98721  Biso   1.000  C
  H507     1.0000 0.29839  0.83520  0.94031  Biso   1.000  H
  H508     1.0000 0.25489  0.83079  0.03371  Biso   1.000  H
  C894     1.0000 0.08484  0.01132  0.97573  Biso   1.000  C
  C895     1.0000 0.02346  0.03284  0.95233  Biso   1.000  C
  H509     1.0000 0.10890  0.95731  0.02571  Biso   1.000  H
  H510     1.0000 0.28470  0.79889  0.98790  Biso   1.000  H
  C896     1.0000 0.05848  0.01498  0.94813  Biso   1.000  C
  H511     1.0000 0.00599  0.03589  0.93450  Biso   1.000  H
  H512     1.0000 0.06579  0.00491  0.92739  Biso   1.000  H
  Ne1      1.0000 0.29747  0.07372  0.32090  Biso   1.000  Ne
  He1      1.0000 0.22917  0.05708  0.37258  Biso   1.000  He
  He2      1.0000 0.00000  0.00000  0.00000  Biso   1.000  He
  Ar1      1.0000 0.35875  0.07309  0.27009  Biso   1.000  Ar
  Ne2      1.0000 0.20253  0.42628  0.17910  Biso   1.000  Ne
  He3      1.0000 0.19696  0.40138  0.17953  Biso   1.000  He
  He4      1.0000 0.24100  0.39727  0.14794  Biso   1.000  He
  Ar2      1.0000 0.20402  0.42538  0.18083  Biso   1.000  Ar
  Ne3      1.0000 0.32372  0.45253  0.42910  Biso   1.000  Ne
  He5      1.0000 0.34750  0.44619  0.43028  Biso   1.000  He
  He6      1.0000 0.35423  0.48301  0.40464  Biso   1.000  He
  Ar3      1.0000 0.32462  0.45401  0.43083  Biso   1.000  Ar
  Ne4      1.0000 0.17628  0.04747  0.07090  Biso   1.000  Ne
  He7      1.0000 0.20269  0.01061  0.09448  Biso   1.000  He
  He8      1.0000 0.00000  0.00000  0.00000  Biso   1.000  He
  Ar4      1.0000 0.17865  0.10532  0.02011  Biso   1.000  Ar
  Ne5      1.0000 0.67628  0.04747  0.42910  Biso   1.000  Ne
  He9      1.0000 0.67349  0.12108  0.48429  Biso   1.000  He
  He10     1.0000 0.64695  0.01065  0.39932  Biso   1.000  He
  Ar5      1.0000 0.67691  0.10874  0.47990  Biso   1.000  Ar
  Ne6      1.0000 0.70253  0.42628  0.32090  Biso   1.000  Ne
  He11     1.0000 0.74050  0.45231  0.34547  Biso   1.000  He
  He12     1.0000 0.69747  0.44603  0.30718  Biso   1.000  He
  Ar6      1.0000 0.70401  0.42538  0.31916  Biso   1.000  Ar
  Ne7      1.0000 0.79747  0.07372  0.17910  Biso   1.000  Ne
  He13     1.0000 0.80450  0.09644  0.18098  Biso   1.000  He
  He14     1.0000 0.74846  0.05110  0.14465  Biso   1.000  He
  Ar7      1.0000 0.79599  0.07462  0.18083  Biso   1.000  Ar
  Ne8      1.0000 0.82372  0.45253  0.07090  Biso   1.000  Ne
  He15     1.0000 0.79954  0.49650  0.10084  Biso   1.000  He
  He16     1.0000 0.80686  0.45247  0.06024  Biso   1.000  He
  Ar8      1.0000 0.82462  0.45402  0.06916  Biso   1.000  Ar
  Ne9      1.0000 0.67628  0.54747  0.57090  Biso   1.000  Ne
  He17     1.0000 0.64725  0.50907  0.60200  Biso   1.000  He
  He18     1.0000 0.00000  0.00000  0.00000  Biso   1.000  He
  Ar9      1.0000 0.67691  0.60873  0.52011  Biso   1.000  Ar
  Ne10     1.0000 0.29747  0.57372  0.67910  Biso   1.000  Ne
  He19     1.0000 0.00000  0.00000  0.00000  Biso   1.000  He
  He20     1.0000 0.25286  0.54975  0.64860  Biso   1.000  He
  Ar10     1.0000 0.35875  0.57309  0.72990  Biso   1.000  Ar
  Ne11     1.0000 0.79747  0.57372  0.82090  Biso   1.000  Ne
  He21     1.0000 0.74920  0.55089  0.85469  Biso   1.000  He
  He22     1.0000 0.80131  0.55297  0.80773  Biso   1.000  He
  Ar11     1.0000 0.79598  0.57462  0.81917  Biso   1.000  Ar
  Ne12     1.0000 0.32372  0.95253  0.57090  Biso   1.000  Ne
  He23     1.0000 0.29953  0.99650  0.60084  Biso   1.000  He
  He24     1.0000 0.00000  0.00000  0.00000  Biso   1.000  He
  Ar12     1.0000 0.32194  0.89431  0.52073  Biso   1.000  Ar
  Ne13     1.0000 0.70253  0.92628  0.67910  Biso   1.000  Ne
  He25     1.0000 0.69698  0.90141  0.67954  Biso   1.000  He
  He26     1.0000 0.74103  0.89726  0.64793  Biso   1.000  He
  Ar13     1.0000 0.70401  0.92538  0.68083  Biso   1.000  Ar
  Ne14     1.0000 0.17628  0.54747  0.92910  Biso   1.000  Ne
  He27     1.0000 0.15452  0.55513  0.93163  Biso   1.000  He
  He28     1.0000 0.20456  0.51670  0.91096  Biso   1.000  He
  Ar14     1.0000 0.17538  0.54598  0.93084  Biso   1.000  Ar
  Ne15     1.0000 0.20253  0.92628  0.82090  Biso   1.000  Ne
  He29     1.0000 0.24594  0.95063  0.85034  Biso   1.000  He
  He30     1.0000 0.00000  0.00000  0.00000  Biso   1.000  He
  Ar15     1.0000 0.14127  0.92690  0.77011  Biso   1.000  Ar
  Ne16     1.0000 0.82372  0.95253  0.92910  Biso   1.000  Ne
  He31     1.0000 0.82792  0.86747  0.99120  Biso   1.000  He
  He32     1.0000 0.85424  0.98302  0.90465  Biso   1.000  He
  Ar16     1.0000 0.82136  0.89467  0.97989  Biso   1.000  Ar
