data_image0
_cell_length_a       32.2
_cell_length_b       32.2
_cell_length_c       32.581
_cell_angle_alpha    90
_cell_angle_beta     90
_cell_angle_gamma    120

_symmetry_space_group_name_H-M    "P 1"
_symmetry_int_tables_number       1

loop_
  _symmetry_equiv_pos_as_xyz
  'x, y, z'

loop_
  _atom_site_label
  _atom_site_occupancy
  _atom_site_fract_x
  _atom_site_fract_y
  _atom_site_fract_z
  _atom_site_thermal_displace_type
  _atom_site_B_iso_or_equiv
  _atom_site_type_symbol
  C1       1.0000 0.55177  0.54149  0.59016  Biso   1.000  C
  N1       1.0000 0.55733  0.50839  0.61702  Biso   1.000  N
  N2       1.0000 0.55563  0.58287  0.61269  Biso   1.000  N
  H1       1.0000 0.52015  0.52428  0.57647  Biso   1.000  H
  H2       1.0000 0.57672  0.55307  0.56855  Biso   1.000  H
  C2       1.0000 0.52095  0.46364  0.62558  Biso   1.000  C
  C3       1.0000 0.60386  0.51474  0.62831  Biso   1.000  C
  C4       1.0000 0.60243  0.62666  0.61794  Biso   1.000  C
  C5       1.0000 0.51892  0.59263  0.61346  Biso   1.000  C
  O1       1.0000 0.47885  0.44671  0.61517  Biso   1.000  O
  N3       1.0000 0.53890  0.44065  0.64845  Biso   1.000  N
  C6       1.0000 0.59043  0.46708  0.65066  Biso   1.000  C
  N4       1.0000 0.62943  0.55042  0.65922  Biso   1.000  N
  H3       1.0000 0.62433  0.51965  0.60366  Biso   1.000  H
  N5       1.0000 0.63042  0.62569  0.65210  Biso   1.000  N
  C7       1.0000 0.58736  0.66385  0.63181  Biso   1.000  C
  H4       1.0000 0.62132  0.63656  0.59188  Biso   1.000  H
  O2       1.0000 0.47757  0.56527  0.60195  Biso   1.000  O
  N6       1.0000 0.53651  0.63756  0.62810  Biso   1.000  N
  C8       1.0000 0.51122  0.38977  0.65679  Biso   1.000  C
  N7       1.0000 0.61017  0.48264  0.69172  Biso   1.000  N
  H5       1.0000 0.60485  0.44958  0.63666  Biso   1.000  H
  C9       1.0000 0.65801  0.60199  0.65023  Biso   1.000  C
  C10      1.0000 0.63593  0.53098  0.69470  Biso   1.000  C
  C11      1.0000 0.63367  0.65474  0.68288  Biso   1.000  C
  N8       1.0000 0.60559  0.67485  0.67364  Biso   1.000  N
  H6       1.0000 0.60203  0.69307  0.61398  Biso   1.000  H
  C12      1.0000 0.50730  0.66119  0.63009  Biso   1.000  C
  N9       1.0000 0.50353  0.37768  0.70001  Biso   1.000  N
  H7       1.0000 0.52781  0.37395  0.64446  Biso   1.000  H
  H8       1.0000 0.47962  0.37657  0.64317  Biso   1.000  H
  C13      1.0000 0.61800  0.45184  0.71852  Biso   1.000  C
  H9       1.0000 0.68473  0.61716  0.67018  Biso   1.000  H
  H10      1.0000 0.67212  0.60636  0.62248  Biso   1.000  H
  O3       1.0000 0.66220  0.55365  0.72370  Biso   1.000  O
  O4       1.0000 0.65726  0.66291  0.71447  Biso   1.000  O
  C14      1.0000 0.60765  0.71344  0.69792  Biso   1.000  C
  N10      1.0000 0.49466  0.66596  0.67131  Biso   1.000  N
  H11      1.0000 0.52544  0.69336  0.61748  Biso   1.000  H
  H12      1.0000 0.47762  0.64226  0.61385  Biso   1.000  H
  C15      1.0000 0.53832  0.37366  0.72558  Biso   1.000  C
  C16      1.0000 0.45774  0.35082  0.71569  Biso   1.000  C
  N11      1.0000 0.57622  0.41860  0.74154  Biso   1.000  N
  H13      1.0000 0.64394  0.47185  0.73798  Biso   1.000  H
  H14      1.0000 0.62904  0.43348  0.70188  Biso   1.000  H
  N12      1.0000 0.56369  0.70128  0.71812  Biso   1.000  N
  H15      1.0000 0.63313  0.72316  0.71885  Biso   1.000  H
  H16      1.0000 0.61665  0.74138  0.67987  Biso   1.000  H
  C17      1.0000 0.52529  0.70555  0.69835  Biso   1.000  C
  C18      1.0000 0.44805  0.64125  0.68558  Biso   1.000  C
  H17      1.0000 0.55124  0.35466  0.71186  Biso   1.000  H
  C19      1.0000 0.50875  0.34799  0.76440  Biso   1.000  C
  O5       1.0000 0.42120  0.34426  0.69820  Biso   1.000  O
  N13      1.0000 0.46013  0.33257  0.75209  Biso   1.000  N
  C20      1.0000 0.57012  0.42466  0.78245  Biso   1.000  C
  C21      1.0000 0.55718  0.69411  0.75925  Biso   1.000  C
  C22      1.0000 0.49184  0.70057  0.73469  Biso   1.000  C
  H18      1.0000 0.53794  0.73718  0.68417  Biso   1.000  H
  O6       1.0000 0.41382  0.60826  0.66747  Biso   1.000  O
  N14      1.0000 0.44611  0.65893  0.72275  Biso   1.000  N
  N15      1.0000 0.52907  0.38510  0.79519  Biso   1.000  N
  H19      1.0000 0.51264  0.32005  0.77208  Biso   1.000  H
  C23      1.0000 0.41895  0.30051  0.77659  Biso   1.000  C
  O7       1.0000 0.59731  0.45865  0.80372  Biso   1.000  O
  O8       1.0000 0.58444  0.69081  0.78343  Biso   1.000  O
  N16      1.0000 0.51464  0.69189  0.76968  Biso   1.000  N
  H20      1.0000 0.48923  0.73008  0.73838  Biso   1.000  H
  C24      1.0000 0.40299  0.64276  0.74534  Biso   1.000  C
  C25      1.0000 0.51850  0.37531  0.83886  Biso   1.000  C
  N17      1.0000 0.40663  0.32339  0.80826  Biso   1.000  N
  H21      1.0000 0.39104  0.28326  0.75817  Biso   1.000  H
  H22      1.0000 0.42525  0.27627  0.78936  Biso   1.000  H
  C26      1.0000 0.49796  0.68884  0.81090  Biso   1.000  C
  N18      1.0000 0.39619  0.60704  0.77619  Biso   1.000  N
  H23      1.0000 0.37554  0.62877  0.72616  Biso   1.000  H
  H24      1.0000 0.40362  0.67048  0.75906  Biso   1.000  H
  N19      1.0000 0.47584  0.37560  0.85120  Biso   1.000  N
  H25      1.0000 0.51474  0.34358  0.84537  Biso   1.000  H
  H26      1.0000 0.54592  0.39966  0.85498  Biso   1.000  H
  C27      1.0000 0.42795  0.33354  0.84896  Biso   1.000  C
  C28      1.0000 0.36526  0.32629  0.80716  Biso   1.000  C
  N20      1.0000 0.46465  0.63968  0.82253  Biso   1.000  N
  H27      1.0000 0.48194  0.70817  0.81348  Biso   1.000  H
  H28      1.0000 0.52562  0.70236  0.82987  Biso   1.000  H
  C29      1.0000 0.43447  0.60199  0.79479  Biso   1.000  C
  C30      1.0000 0.35204  0.56799  0.78386  Biso   1.000  C
  C31      1.0000 0.47654  0.41189  0.87318  Biso   1.000  C
  H29      1.0000 0.42702  0.30467  0.86136  Biso   1.000  H
  C32      1.0000 0.39622  0.34871  0.87305  Biso   1.000  C
  O9       1.0000 0.33714  0.31353  0.77821  Biso   1.000  O
  N21      1.0000 0.36014  0.34239  0.84420  Biso   1.000  N
  C33      1.0000 0.44890  0.62723  0.86207  Biso   1.000  C
  C34      1.0000 0.40658  0.55795  0.82330  Biso   1.000  C
  H30      1.0000 0.45364  0.59628  0.77367  Biso   1.000  H
  O10      1.0000 0.31345  0.56168  0.77054  Biso   1.000  O
  N22      1.0000 0.35768  0.53704  0.80832  Biso   1.000  N
  O11      1.0000 0.51243  0.44908  0.88223  Biso   1.000  O
  N23      1.0000 0.43001  0.39884  0.88420  Biso   1.000  N
  H31      1.0000 0.38195  0.32837  0.89798  Biso   1.000  H
  C35      1.0000 0.31943  0.34849  0.85501  Biso   1.000  C
  O12      1.0000 0.46523  0.65531  0.89178  Biso   1.000  O
  N24      1.0000 0.41472  0.58086  0.86342  Biso   1.000  N
  H32      1.0000 0.41893  0.53507  0.82177  Biso   1.000  H
  C36      1.0000 0.31581  0.49423  0.82431  Biso   1.000  C
  C37      1.0000 0.42127  0.42186  0.91854  Biso   1.000  C
  N25      1.0000 0.33131  0.39690  0.85961  Biso   1.000  N
  H33      1.0000 0.29462  0.33346  0.83337  Biso   1.000  H
  H34      1.0000 0.30533  0.33128  0.88107  Biso   1.000  H
  C38      1.0000 0.39129  0.55612  0.90157  Biso   1.000  C
  N26      1.0000 0.32944  0.46385  0.84562  Biso   1.000  N
  H35      1.0000 0.29815  0.50387  0.84325  Biso   1.000  H
  H36      1.0000 0.29413  0.47615  0.80136  Biso   1.000  H
  N27      1.0000 0.39624  0.44739  0.90596  Biso   1.000  N
  H37      1.0000 0.45225  0.44488  0.93146  Biso   1.000  H
  H38      1.0000 0.40173  0.39737  0.93926  Biso   1.000  H
  C39      1.0000 0.34528  0.42416  0.89776  Biso   1.000  C
  C40      1.0000 0.32262  0.42182  0.82913  Biso   1.000  C
  N28      1.0000 0.38151  0.50717  0.90316  Biso   1.000  N
  H39      1.0000 0.41203  0.57405  0.92508  Biso   1.000  H
  H40      1.0000 0.36072  0.55616  0.90458  Biso   1.000  H
  C41      1.0000 0.33713  0.46661  0.89012  Biso   1.000  C
  C42      1.0000 0.41656  0.49541  0.90970  Biso   1.000  C
  H41      1.0000 0.32594  0.40418  0.92158  Biso   1.000  H
  O13      1.0000 0.31063  0.40791  0.79417  Biso   1.000  O
  H42      1.0000 0.30893  0.46346  0.90577  Biso   1.000  H
  O14      1.0000 0.45875  0.52421  0.91796  Biso   1.000  O
  C43      1.0000 0.44823  0.45851  0.40984  Biso   1.000  C
  N29      1.0000 0.44437  0.41713  0.38731  Biso   1.000  N
  N30      1.0000 0.44267  0.49161  0.38298  Biso   1.000  N
  H43      1.0000 0.47985  0.47572  0.42353  Biso   1.000  H
  H44      1.0000 0.42328  0.44693  0.43145  Biso   1.000  H
  C44      1.0000 0.39757  0.37334  0.38206  Biso   1.000  C
  C45      1.0000 0.48108  0.40737  0.38654  Biso   1.000  C
  C46      1.0000 0.39614  0.48526  0.37169  Biso   1.000  C
  C47      1.0000 0.47905  0.53636  0.37442  Biso   1.000  C
  N31      1.0000 0.36958  0.37431  0.34790  Biso   1.000  N
  C48      1.0000 0.41264  0.33615  0.36819  Biso   1.000  C
  H45      1.0000 0.37868  0.36344  0.40812  Biso   1.000  H
  N32      1.0000 0.46349  0.36244  0.37190  Biso   1.000  N
  O15      1.0000 0.52243  0.43473  0.39805  Biso   1.000  O
  N33      1.0000 0.37057  0.44958  0.34078  Biso   1.000  N
  H46      1.0000 0.37567  0.48035  0.39634  Biso   1.000  H
  C49      1.0000 0.40957  0.53292  0.34934  Biso   1.000  C
  N34      1.0000 0.46110  0.55935  0.35155  Biso   1.000  N
  O16      1.0000 0.52115  0.55329  0.38483  Biso   1.000  O
  C50      1.0000 0.36633  0.34526  0.31712  Biso   1.000  C
  C51      1.0000 0.34199  0.39801  0.34977  Biso   1.000  C
  N35      1.0000 0.39442  0.32518  0.32636  Biso   1.000  N
  H47      1.0000 0.39797  0.30693  0.38602  Biso   1.000  H
  C52      1.0000 0.49270  0.33881  0.36991  Biso   1.000  C
  C53      1.0000 0.36407  0.46902  0.30530  Biso   1.000  C
  N36      1.0000 0.38983  0.51736  0.30828  Biso   1.000  N
  H48      1.0000 0.39515  0.55042  0.36334  Biso   1.000  H
  C54      1.0000 0.48878  0.61023  0.34321  Biso   1.000  C
  O17      1.0000 0.34274  0.33709  0.28553  Biso   1.000  O
  H49      1.0000 0.31527  0.38284  0.32982  Biso   1.000  H
  H50      1.0000 0.32787  0.39364  0.37752  Biso   1.000  H
  C55      1.0000 0.39235  0.28656  0.30208  Biso   1.000  C
  N37      1.0000 0.50534  0.33404  0.32869  Biso   1.000  N
  H51      1.0000 0.47456  0.30664  0.38252  Biso   1.000  H
  H52      1.0000 0.52238  0.35774  0.38615  Biso   1.000  H
  O18      1.0000 0.33780  0.44635  0.27630  Biso   1.000  O
  C56      1.0000 0.38200  0.54816  0.28148  Biso   1.000  C
  N38      1.0000 0.49647  0.62232  0.29999  Biso   1.000  N
  H53      1.0000 0.47219  0.62605  0.35554  Biso   1.000  H
  H54      1.0000 0.52038  0.62343  0.35683  Biso   1.000  H
  N39      1.0000 0.43631  0.29872  0.28188  Biso   1.000  N
  H55      1.0000 0.36687  0.27684  0.28115  Biso   1.000  H
  H56      1.0000 0.38335  0.25862  0.32013  Biso   1.000  H
  C57      1.0000 0.47474  0.29445  0.30165  Biso   1.000  C
  C58      1.0000 0.55195  0.35875  0.31442  Biso   1.000  C
  N40      1.0000 0.42378  0.58140  0.25846  Biso   1.000  N
  H57      1.0000 0.35606  0.52815  0.26202  Biso   1.000  H
  H58      1.0000 0.37096  0.56652  0.29812  Biso   1.000  H
  C59      1.0000 0.46168  0.62634  0.27442  Biso   1.000  C
  C60      1.0000 0.54226  0.64918  0.28431  Biso   1.000  C
  C61      1.0000 0.44282  0.30589  0.24075  Biso   1.000  C
  C62      1.0000 0.50816  0.29943  0.26531  Biso   1.000  C
  H59      1.0000 0.46206  0.26282  0.31583  Biso   1.000  H
  N41      1.0000 0.55389  0.34107  0.27725  Biso   1.000  N
  O19      1.0000 0.58618  0.39174  0.33253  Biso   1.000  O
  C63      1.0000 0.42988  0.57534  0.21755  Biso   1.000  C
  H60      1.0000 0.44876  0.64534  0.28814  Biso   1.000  H
  C64      1.0000 0.49125  0.65201  0.23560  Biso   1.000  C
  N42      1.0000 0.53986  0.66743  0.24791  Biso   1.000  N
  O20      1.0000 0.57880  0.65574  0.30180  Biso   1.000  O
  O21      1.0000 0.41556  0.30919  0.21657  Biso   1.000  O
  N43      1.0000 0.48536  0.30811  0.23032  Biso   1.000  N
  H61      1.0000 0.51077  0.26992  0.26162  Biso   1.000  H
  C65      1.0000 0.59701  0.35724  0.25466  Biso   1.000  C
  O22      1.0000 0.40269  0.54135  0.19628  Biso   1.000  O
  N44      1.0000 0.47093  0.61490  0.20481  Biso   1.000  N
  H62      1.0000 0.48736  0.67995  0.22792  Biso   1.000  H
  C66      1.0000 0.58105  0.69949  0.22341  Biso   1.000  C
  C67      1.0000 0.50204  0.31116  0.18910  Biso   1.000  C
  N45      1.0000 0.60381  0.39296  0.22381  Biso   1.000  N
  H63      1.0000 0.62446  0.37123  0.27384  Biso   1.000  H
  H64      1.0000 0.59637  0.32952  0.24094  Biso   1.000  H
  C68      1.0000 0.48150  0.62469  0.16114  Biso   1.000  C
  N46      1.0000 0.59337  0.67661  0.19174  Biso   1.000  N
  H65      1.0000 0.60896  0.71674  0.24183  Biso   1.000  H
  H66      1.0000 0.57475  0.72373  0.21064  Biso   1.000  H
  N47      1.0000 0.53535  0.36032  0.17747  Biso   1.000  N
  H67      1.0000 0.51806  0.29183  0.18652  Biso   1.000  H
  H68      1.0000 0.47438  0.29764  0.17013  Biso   1.000  H
  C69      1.0000 0.56553  0.39801  0.20521  Biso   1.000  C
  C70      1.0000 0.64796  0.43201  0.21614  Biso   1.000  C
  N48      1.0000 0.52416  0.62440  0.14880  Biso   1.000  N
  H69      1.0000 0.48526  0.65642  0.15463  Biso   1.000  H
  H70      1.0000 0.45408  0.60034  0.14502  Biso   1.000  H
  C71      1.0000 0.57205  0.66646  0.15104  Biso   1.000  C
  C72      1.0000 0.63474  0.67371  0.19284  Biso   1.000  C
  C73      1.0000 0.55110  0.37277  0.13793  Biso   1.000  C
  C74      1.0000 0.59342  0.44205  0.17670  Biso   1.000  C
  H71      1.0000 0.54638  0.40375  0.22633  Biso   1.000  H
  N49      1.0000 0.64232  0.46296  0.19168  Biso   1.000  N
  O23      1.0000 0.68655  0.43832  0.22946  Biso   1.000  O
  C75      1.0000 0.52346  0.58811  0.12682  Biso   1.000  C
  H72      1.0000 0.57298  0.69533  0.13864  Biso   1.000  H
  C76      1.0000 0.60378  0.65129  0.12695  Biso   1.000  C
  N50      1.0000 0.63986  0.65761  0.15580  Biso   1.000  N
  O24      1.0000 0.66286  0.68647  0.22179  Biso   1.000  O
  O25      1.0000 0.53477  0.34469  0.10822  Biso   1.000  O
  N51      1.0000 0.58528  0.41913  0.13658  Biso   1.000  N
  H73      1.0000 0.58107  0.46493  0.17823  Biso   1.000  H
  C77      1.0000 0.68419  0.50577  0.17569  Biso   1.000  C
  O26      1.0000 0.48757  0.55092  0.11777  Biso   1.000  O
  N52      1.0000 0.56999  0.60116  0.11580  Biso   1.000  N
  H74      1.0000 0.61805  0.67163  0.10202  Biso   1.000  H
  C78      1.0000 0.68057  0.65151  0.14499  Biso   1.000  C
  C79      1.0000 0.60871  0.44388  0.09843  Biso   1.000  C
  N53      1.0000 0.67056  0.53615  0.15438  Biso   1.000  N
  H75      1.0000 0.70185  0.49613  0.15675  Biso   1.000  H
  H76      1.0000 0.70587  0.52385  0.19864  Biso   1.000  H
  C80      1.0000 0.57873  0.57814  0.08146  Biso   1.000  C
  N54      1.0000 0.66869  0.60310  0.14039  Biso   1.000  N
  H77      1.0000 0.70538  0.66653  0.16663  Biso   1.000  H
  H78      1.0000 0.69467  0.66872  0.11893  Biso   1.000  H
  N55      1.0000 0.61849  0.49283  0.09684  Biso   1.000  N
  H79      1.0000 0.58797  0.42595  0.07492  Biso   1.000  H
  H80      1.0000 0.63928  0.44384  0.09542  Biso   1.000  H
  C81      1.0000 0.66287  0.53339  0.10988  Biso   1.000  C
  C82      1.0000 0.67740  0.57821  0.17087  Biso   1.000  C
  N56      1.0000 0.60376  0.55261  0.09404  Biso   1.000  N
  H81      1.0000 0.54774  0.55512  0.06854  Biso   1.000  H
  H82      1.0000 0.59827  0.60263  0.06074  Biso   1.000  H
  C83      1.0000 0.65472  0.57584  0.10224  Biso   1.000  C
  C84      1.0000 0.58344  0.50459  0.09030  Biso   1.000  C
  H83      1.0000 0.69107  0.53654  0.09423  Biso   1.000  H
  O27      1.0000 0.68937  0.59209  0.20583  Biso   1.000  O
  H84      1.0000 0.67406  0.59582  0.07842  Biso   1.000  H
  O28      1.0000 0.54125  0.47579  0.08204  Biso   1.000  O
  O29      1.0000 0.56938  0.64398  0.53915  Biso   1.000  O
  C85      1.0000 0.56746  0.65592  0.50419  Biso   1.000  C
  N57      1.0000 0.53225  0.66277  0.48774  Biso   1.000  N
  N58      1.0000 0.60104  0.66463  0.47374  Biso   1.000  N
  C86      1.0000 0.53718  0.67044  0.44320  Biso   1.000  C
  C87      1.0000 0.48827  0.64914  0.50901  Biso   1.000  C
  C88      1.0000 0.58779  0.67862  0.43556  Biso   1.000  C
  C89      1.0000 0.63762  0.65276  0.47832  Biso   1.000  C
  N59      1.0000 0.54099  0.71484  0.43016  Biso   1.000  N
  H85      1.0000 0.51212  0.64226  0.42758  Biso   1.000  H
  N60      1.0000 0.48731  0.69103  0.52500  Biso   1.000  N
  H86      1.0000 0.46092  0.63146  0.49007  Biso   1.000  H
  H87      1.0000 0.48464  0.62748  0.53197  Biso   1.000  H
  N61      1.0000 0.61553  0.72958  0.42737  Biso   1.000  N
  H88      1.0000 0.58842  0.65926  0.41177  Biso   1.000  H
  N62      1.0000 0.68440  0.69347  0.48912  Biso   1.000  N
  H89      1.0000 0.62783  0.62795  0.49995  Biso   1.000  H
  H90      1.0000 0.64073  0.63867  0.45226  Biso   1.000  H
  C90      1.0000 0.58784  0.74991  0.42365  Biso   1.000  C
  C91      1.0000 0.50182  0.72463  0.43175  Biso   1.000  C
  C92      1.0000 0.51529  0.73990  0.51002  Biso   1.000  C
  C93      1.0000 0.45069  0.68536  0.54946  Biso   1.000  C
  C94      1.0000 0.66609  0.75461  0.41478  Biso   1.000  C
  C95      1.0000 0.71418  0.72954  0.46027  Biso   1.000  C
  C96      1.0000 0.70563  0.69859  0.52617  Biso   1.000  C
  O30      1.0000 0.60120  0.79208  0.41536  Biso   1.000  O
  N63      1.0000 0.50051  0.74805  0.46991  Biso   1.000  N
  H91      1.0000 0.50463  0.74536  0.40827  Biso   1.000  H
  H92      1.0000 0.47123  0.69408  0.42878  Biso   1.000  H
  H93      1.0000 0.55055  0.75228  0.51156  Biso   1.000  H
  C97      1.0000 0.49915  0.76780  0.53853  Biso   1.000  C
  O31      1.0000 0.41844  0.64681  0.56278  Biso   1.000  O
  N64      1.0000 0.45583  0.72954  0.55713  Biso   1.000  N
  N65      1.0000 0.69786  0.76336  0.44913  Biso   1.000  N
  H94      1.0000 0.67402  0.78555  0.40186  Biso   1.000  H
  H95      1.0000 0.67104  0.73506  0.39406  Biso   1.000  H
  C98      1.0000 0.76107  0.76128  0.48439  Biso   1.000  C
  H96      1.0000 0.72024  0.71527  0.43538  Biso   1.000  H
  O32      1.0000 0.69027  0.67048  0.55514  Biso   1.000  O
  N66      1.0000 0.74993  0.73998  0.52506  Biso   1.000  N
  C99      1.0000 0.48831  0.78222  0.47126  Biso   1.000  C
  N67      1.0000 0.49164  0.79800  0.51079  Biso   1.000  N
  H97      1.0000 0.52404  0.78695  0.55965  Biso   1.000  H
  C100     1.0000 0.42690  0.73635  0.58798  Biso   1.000  C
  C101     1.0000 0.73130  0.80987  0.46015  Biso   1.000  C
  N68      1.0000 0.76687  0.80915  0.48212  Biso   1.000  N
  H98      1.0000 0.78904  0.76038  0.47196  Biso   1.000  H
  C102     1.0000 0.78511  0.75228  0.55677  Biso   1.000  C
  O33      1.0000 0.47658  0.79857  0.44158  Biso   1.000  O
  C103     1.0000 0.47579  0.83128  0.52242  Biso   1.000  C
  N69      1.0000 0.45384  0.77942  0.61057  Biso   1.000  N
  H99      1.0000 0.41343  0.70885  0.60716  Biso   1.000  H
  H100     1.0000 0.39982  0.73696  0.57426  Biso   1.000  H
  O34      1.0000 0.73003  0.84576  0.45112  Biso   1.000  O
  C104     1.0000 0.80984  0.85179  0.49446  Biso   1.000  C
  N70      1.0000 0.79424  0.79344  0.58123  Biso   1.000  N
  H101     1.0000 0.77442  0.72438  0.57518  Biso   1.000  H
  H102     1.0000 0.81561  0.75855  0.54397  Biso   1.000  H
  N71      1.0000 0.48943  0.84799  0.56364  Biso   1.000  N
  H103     1.0000 0.44044  0.81528  0.51987  Biso   1.000  H
  H104     1.0000 0.48992  0.85896  0.50345  Biso   1.000  H
  C105     1.0000 0.45793  0.82518  0.59866  Biso   1.000  C
  C106     1.0000 0.47344  0.78136  0.64777  Biso   1.000  C
  N72      1.0000 0.81064  0.86240  0.53817  Biso   1.000  N
  H105     1.0000 0.83782  0.84806  0.48795  Biso   1.000  H
  H106     1.0000 0.81292  0.87926  0.47838  Biso   1.000  H
  C107     1.0000 0.82743  0.84207  0.56892  Biso   1.000  C
  C108     1.0000 0.77361  0.79108  0.61766  Biso   1.000  C
  C109     1.0000 0.52973  0.89052  0.57408  Biso   1.000  C
  H107     1.0000 0.42585  0.82256  0.59498  Biso   1.000  H
  C110     1.0000 0.48638  0.85860  0.63497  Biso   1.000  C
  O35      1.0000 0.47223  0.74718  0.66585  Biso   1.000  O
  N73      1.0000 0.49540  0.82801  0.66201  Biso   1.000  N
  C111     1.0000 0.81214  0.90346  0.55090  Biso   1.000  C
  C112     1.0000 0.83134  0.87169  0.60778  Biso   1.000  C
  H108     1.0000 0.85923  0.84598  0.56128  Biso   1.000  H
  O36      1.0000 0.74360  0.75454  0.63512  Biso   1.000  O
  N74      1.0000 0.79253  0.83687  0.63334  Biso   1.000  N
  O37      1.0000 0.56031  0.91777  0.54992  Biso   1.000  O
  N75      1.0000 0.52908  0.89704  0.61524  Biso   1.000  N
  H109     1.0000 0.46743  0.87126  0.64915  Biso   1.000  H
  C113     1.0000 0.51277  0.84064  0.70326  Biso   1.000  C
  O38      1.0000 0.80530  0.93061  0.52960  Biso   1.000  O
  N76      1.0000 0.82428  0.90956  0.59179  Biso   1.000  N
  H110     1.0000 0.86325  0.88457  0.62147  Biso   1.000  H
  C114     1.0000 0.78811  0.84455  0.67653  Biso   1.000  C
  C115     1.0000 0.56088  0.94101  0.63543  Biso   1.000  C
  N77      1.0000 0.56561  0.86986  0.70526  Biso   1.000  N
  H111     1.0000 0.49874  0.85878  0.71588  Biso   1.000  H
  H112     1.0000 0.50204  0.81098  0.71947  Biso   1.000  H
  C116     1.0000 0.83284  0.95134  0.61484  Biso   1.000  C
  N78      1.0000 0.76493  0.87223  0.68488  Biso   1.000  N
  H113     1.0000 0.82053  0.86118  0.68887  Biso   1.000  H
  H114     1.0000 0.76974  0.81295  0.69016  Biso   1.000  H
  N79      1.0000 0.59741  0.93893  0.65968  Biso   1.000  N
  H115     1.0000 0.57662  0.96647  0.61447  Biso   1.000  H
  H116     1.0000 0.54194  0.94997  0.65348  Biso   1.000  H
  C117     1.0000 0.59020  0.92071  0.70154  Biso   1.000  C
  C118     1.0000 0.59294  0.85222  0.71987  Biso   1.000  C
  N80      1.0000 0.79421  0.94352  0.64163  Biso   1.000  N
  H117     1.0000 0.83873  0.97726  0.59538  Biso   1.000  H
  H118     1.0000 0.86225  0.96238  0.63147  Biso   1.000  H
  C119     1.0000 0.79002  0.92376  0.68267  Biso   1.000  C
  C120     1.0000 0.72396  0.85426  0.70774  Biso   1.000  C
  C121     1.0000 0.64558  0.96701  0.65044  Biso   1.000  C
  H119     1.0000 0.57564  0.93538  0.71938  Biso   1.000  H
  C122     1.0000 0.64243  0.93574  0.71539  Biso   1.000  C
  O39      1.0000 0.57899  0.81091  0.73138  Biso   1.000  O
  N81      1.0000 0.63941  0.88894  0.72063  Biso   1.000  N
  C123     1.0000 0.77157  0.96923  0.63865  Biso   1.000  C
  C124     1.0000 0.75578  0.93721  0.70501  Biso   1.000  C
  H120     1.0000 0.82195  0.93818  0.69666  Biso   1.000  H
  O40      1.0000 0.69883  0.81220  0.71815  Biso   1.000  O
  N82      1.0000 0.71561  0.89066  0.71631  Biso   1.000  N
  O41      1.0000 0.66105  0.99060  0.61886  Biso   1.000  O
  N83      1.0000 0.67139  0.96378  0.68126  Biso   1.000  N
  H121     1.0000 0.65144  0.95467  0.74148  Biso   1.000  H
  C125     1.0000 0.67696  0.88510  0.74319  Biso   1.000  C
  O42      1.0000 0.77523  0.99555  0.60965  Biso   1.000  O
  N84      1.0000 0.74566  0.96274  0.67410  Biso   1.000  N
  H122     1.0000 0.77136  0.95768  0.72966  Biso   1.000  H
  C126     1.0000 0.72268  0.99132  0.68313  Biso   1.000  C
  H123     1.0000 0.66254  0.85347  0.75685  Biso   1.000  H
  H124     1.0000 0.69034  0.91006  0.76477  Biso   1.000  H
  H125     1.0000 0.73422  0.01807  0.66318  Biso   1.000  H
  H126     1.0000 0.73241  0.00545  0.71087  Biso   1.000  H
  O43      1.0000 0.64255  0.56032  0.45008  Biso   1.000  O
  C127     1.0000 0.63921  0.52973  0.42592  Biso   1.000  C
  N85      1.0000 0.63206  0.52908  0.38476  Biso   1.000  N
  N86      1.0000 0.64145  0.48942  0.43636  Biso   1.000  N
  C128     1.0000 0.62780  0.48641  0.36503  Biso   1.000  C
  C129     1.0000 0.61989  0.56089  0.36457  Biso   1.000  C
  C130     1.0000 0.63276  0.45794  0.40134  Biso   1.000  C
  C131     1.0000 0.64451  0.47579  0.47758  Biso   1.000  C
  N87      1.0000 0.66738  0.49537  0.33799  Biso   1.000  N
  H127     1.0000 0.59617  0.46744  0.35085  Biso   1.000  H
  N88      1.0000 0.65848  0.59740  0.34032  Biso   1.000  N
  H128     1.0000 0.61018  0.57663  0.38553  Biso   1.000  H
  H129     1.0000 0.59195  0.54192  0.34652  Biso   1.000  H
  N89      1.0000 0.67441  0.45385  0.38943  Biso   1.000  N
  H130     1.0000 0.60326  0.42584  0.40502  Biso   1.000  H
  N90      1.0000 0.69365  0.49164  0.48921  Biso   1.000  N
  H131     1.0000 0.62516  0.44044  0.48013  Biso   1.000  H
  H132     1.0000 0.63096  0.48992  0.49655  Biso   1.000  H
  C132     1.0000 0.69210  0.47346  0.35223  Biso   1.000  C
  C133     1.0000 0.67213  0.51277  0.29674  Biso   1.000  C
  C134     1.0000 0.67857  0.64559  0.34956  Biso   1.000  C
  C135     1.0000 0.66947  0.59019  0.29846  Biso   1.000  C
  C136     1.0000 0.69057  0.42692  0.41202  Biso   1.000  C
  C137     1.0000 0.70611  0.48831  0.52874  Biso   1.000  C
  C138     1.0000 0.73134  0.49914  0.46147  Biso   1.000  C
  O44      1.0000 0.72505  0.47221  0.33415  Biso   1.000  O
  N91      1.0000 0.69576  0.56562  0.29474  Biso   1.000  N
  H133     1.0000 0.63996  0.49874  0.28412  Biso   1.000  H
  H134     1.0000 0.69108  0.50204  0.28053  Biso   1.000  H
  O45      1.0000 0.67044  0.66101  0.38114  Biso   1.000  O
  N92      1.0000 0.70761  0.67138  0.31874  Biso   1.000  N
  H135     1.0000 0.64027  0.57563  0.28062  Biso   1.000  H
  C139     1.0000 0.70668  0.64244  0.28461  Biso   1.000  C
  N93      1.0000 0.72630  0.45582  0.44287  Biso   1.000  N
  H136     1.0000 0.70457  0.41343  0.39284  Biso   1.000  H
  H137     1.0000 0.66287  0.39984  0.42574  Biso   1.000  H
  O46      1.0000 0.67801  0.47658  0.55842  Biso   1.000  O
  N94      1.0000 0.75246  0.50050  0.53009  Biso   1.000  N
  C140     1.0000 0.77537  0.51528  0.48998  Biso   1.000  C
  H138     1.0000 0.73708  0.52403  0.44035  Biso   1.000  H
  C141     1.0000 0.74073  0.59295  0.28013  Biso   1.000  C
  C142     1.0000 0.73133  0.72266  0.31687  Biso   1.000  C
  N95      1.0000 0.75049  0.63942  0.27937  Biso   1.000  N
  H139     1.0000 0.69677  0.65144  0.25852  Biso   1.000  H
  C143     1.0000 0.76535  0.45069  0.45054  Biso   1.000  C
  C144     1.0000 0.77722  0.50183  0.56825  Biso   1.000  C
  N96      1.0000 0.79626  0.48731  0.47500  Biso   1.000  N
  H140     1.0000 0.79828  0.55053  0.48844  Biso   1.000  H
  O47      1.0000 0.76808  0.57896  0.26862  Biso   1.000  O
  N97      1.0000 0.78290  0.74568  0.32590  Biso   1.000  N
  H141     1.0000 0.71616  0.73424  0.33682  Biso   1.000  H
  H142     1.0000 0.72697  0.73245  0.28913  Biso   1.000  H
  C145     1.0000 0.79184  0.67697  0.25681  Biso   1.000  C
  O48      1.0000 0.77165  0.41845  0.43722  Biso   1.000  O
  N98      1.0000 0.82615  0.54099  0.56984  Biso   1.000  N
  H143     1.0000 0.75927  0.50463  0.59173  Biso   1.000  H
  H144     1.0000 0.77717  0.47124  0.57122  Biso   1.000  H
  C146     1.0000 0.83914  0.48827  0.49099  Biso   1.000  C
  C147     1.0000 0.80236  0.77161  0.36135  Biso   1.000  C
  C148     1.0000 0.81858  0.75579  0.29499  Biso   1.000  C
  N99      1.0000 0.82496  0.71563  0.28369  Biso   1.000  N
  H145     1.0000 0.80905  0.66252  0.24315  Biso   1.000  H
  H146     1.0000 0.78027  0.69035  0.23523  Biso   1.000  H
  C149     1.0000 0.83792  0.58782  0.57635  Biso   1.000  C
  C150     1.0000 0.86673  0.53719  0.55680  Biso   1.000  C
  N100     1.0000 0.86947  0.53224  0.51226  Biso   1.000  N
  H147     1.0000 0.82948  0.46095  0.50993  Biso   1.000  H
  H148     1.0000 0.85715  0.48462  0.46803  Biso   1.000  H
  O49      1.0000 0.77969  0.77523  0.39035  Biso   1.000  O
  N101     1.0000 0.85067  0.79420  0.35837  Biso   1.000  N
  H149     1.0000 0.81367  0.77132  0.27034  Biso   1.000  H
  C151     1.0000 0.86624  0.79000  0.31733  Biso   1.000  C
  C152     1.0000 0.86969  0.72398  0.29226  Biso   1.000  C
  O50      1.0000 0.80914  0.60120  0.58464  Biso   1.000  O
  N102     1.0000 0.88594  0.61554  0.57263  Biso   1.000  N
  C153     1.0000 0.90917  0.58779  0.56444  Biso   1.000  C
  H150     1.0000 0.86985  0.51212  0.57242  Biso   1.000  H
  C154     1.0000 0.91152  0.56745  0.49581  Biso   1.000  C
  C155     1.0000 0.88150  0.83282  0.38516  Biso   1.000  C
  N103     1.0000 0.89269  0.76494  0.31512  Biso   1.000  N
  H151     1.0000 0.88375  0.82192  0.30334  Biso   1.000  H
  O51      1.0000 0.88664  0.69881  0.28185  Biso   1.000  O
  C156     1.0000 0.91148  0.66607  0.58522  Biso   1.000  C
  N104     1.0000 0.93643  0.60105  0.52626  Biso   1.000  N
  H152     1.0000 0.92915  0.58843  0.58823  Biso   1.000  H
  O52      1.0000 0.92541  0.56939  0.46085  Biso   1.000  O
  N105     1.0000 0.91472  0.82428  0.40821  Biso   1.000  N
  H153     1.0000 0.86148  0.83874  0.40462  Biso   1.000  H
  H154     1.0000 0.89987  0.86222  0.36853  Biso   1.000  H
  C157     1.0000 0.94355  0.78810  0.32347  Biso   1.000  C
  N106     1.0000 0.93448  0.69784  0.55087  Biso   1.000  N
  H155     1.0000 0.88847  0.67403  0.59814  Biso   1.000  H
  H156     1.0000 0.93594  0.67102  0.60594  Biso   1.000  H
  C158     1.0000 0.98487  0.63763  0.52168  Biso   1.000  C
  C159     1.0000 0.90867  0.81213  0.44910  Biso   1.000  C
  C160     1.0000 0.95965  0.83135  0.39222  Biso   1.000  C
  N107     1.0000 0.95563  0.79251  0.36666  Biso   1.000  N
  H157     1.0000 0.95936  0.82052  0.31113  Biso   1.000  H
  H158     1.0000 0.95676  0.76974  0.30984  Biso   1.000  H
  C161     1.0000 0.92143  0.73130  0.53985  Biso   1.000  C
  C162     1.0000 0.98464  0.71419  0.53973  Biso   1.000  C
  N108     1.0000 0.99094  0.68443  0.51088  Biso   1.000  N
  H159     1.0000 0.99988  0.62784  0.50005  Biso   1.000  H
  H160     1.0000 0.00208  0.64075  0.54774  Biso   1.000  H
  O53      1.0000 0.87471  0.80531  0.47040  Biso   1.000  O
  N109     1.0000 0.94825  0.81066  0.46183  Biso   1.000  N
  H161     1.0000 0.97866  0.86323  0.37853  Biso   1.000  H
  C163     1.0000 0.98537  0.82744  0.43108  Biso   1.000  C
  C164     1.0000 0.98252  0.77361  0.38234  Biso   1.000  C
  O54      1.0000 0.88423  0.73001  0.54888  Biso   1.000  O
  N110     1.0000 0.95774  0.76691  0.51788  Biso   1.000  N
  C165     1.0000 0.99980  0.76110  0.51561  Biso   1.000  C
  H162     1.0000 0.00495  0.72022  0.56462  Biso   1.000  H
  C166     1.0000 0.00703  0.70562  0.47383  Biso   1.000  C
  C167     1.0000 0.95802  0.80983  0.50554  Biso   1.000  C
  N111     1.0000 0.00078  0.79423  0.41877  Biso   1.000  N
  H163     1.0000 0.01329  0.85925  0.43872  Biso   1.000  H
  O55      1.0000 0.98907  0.74360  0.36488  Biso   1.000  O
  N112     1.0000 0.00995  0.74991  0.47494  Biso   1.000  N
  H164     1.0000 0.02868  0.78903  0.52804  Biso   1.000  H
  O56      1.0000 0.01980  0.69027  0.44486  Biso   1.000  O
  H165     1.0000 0.98976  0.83784  0.51205  Biso   1.000  H
  H166     1.0000 0.93366  0.81292  0.52162  Biso   1.000  H
  C168     1.0000 0.03282  0.78509  0.44323  Biso   1.000  C
  H167     1.0000 0.05008  0.77444  0.42482  Biso   1.000  H
  H168     1.0000 0.05708  0.81564  0.45603  Biso   1.000  H
  O57      1.0000 0.43062  0.35602  0.46085  Biso   1.000  O
  C169     1.0000 0.43254  0.34408  0.49581  Biso   1.000  C
  N113     1.0000 0.39896  0.33537  0.52626  Biso   1.000  N
  N114     1.0000 0.46775  0.33723  0.51226  Biso   1.000  N
  C170     1.0000 0.36238  0.34723  0.52168  Biso   1.000  C
  C171     1.0000 0.41221  0.32138  0.56444  Biso   1.000  C
  C172     1.0000 0.46282  0.32956  0.55680  Biso   1.000  C
  C173     1.0000 0.51173  0.35086  0.49099  Biso   1.000  C
  N115     1.0000 0.31560  0.30653  0.51088  Biso   1.000  N
  H169     1.0000 0.37217  0.37205  0.50005  Biso   1.000  H
  H170     1.0000 0.35927  0.36133  0.54774  Biso   1.000  H
  N116     1.0000 0.38447  0.27042  0.57263  Biso   1.000  N
  H171     1.0000 0.41158  0.34074  0.58823  Biso   1.000  H
  N117     1.0000 0.45901  0.28516  0.56984  Biso   1.000  N
  H172     1.0000 0.48788  0.35774  0.57242  Biso   1.000  H
  N118     1.0000 0.51268  0.30897  0.47500  Biso   1.000  N
  H173     1.0000 0.53908  0.36854  0.50993  Biso   1.000  H
  H174     1.0000 0.51536  0.37252  0.46803  Biso   1.000  H
  C174     1.0000 0.29437  0.30141  0.47383  Biso   1.000  C
  C175     1.0000 0.28582  0.27046  0.53973  Biso   1.000  C
  C176     1.0000 0.33391  0.24539  0.58522  Biso   1.000  C
  C177     1.0000 0.41216  0.25009  0.57635  Biso   1.000  C
  C178     1.0000 0.49818  0.27537  0.56825  Biso   1.000  C
  C179     1.0000 0.54931  0.31464  0.45054  Biso   1.000  C
  C180     1.0000 0.48471  0.26009  0.48998  Biso   1.000  C
  N119     1.0000 0.25007  0.26002  0.47494  Biso   1.000  N
  O58      1.0000 0.30973  0.32952  0.44486  Biso   1.000  O
  C181     1.0000 0.23893  0.23872  0.51561  Biso   1.000  C
  N120     1.0000 0.30214  0.23664  0.55087  Biso   1.000  N
  H175     1.0000 0.27976  0.28473  0.56462  Biso   1.000  H
  H176     1.0000 0.32598  0.21444  0.59814  Biso   1.000  H
  H177     1.0000 0.32896  0.26494  0.60594  Biso   1.000  H
  O59      1.0000 0.39880  0.20792  0.58464  Biso   1.000  O
  N121     1.0000 0.49949  0.25195  0.53009  Biso   1.000  N
  H178     1.0000 0.49537  0.25464  0.59173  Biso   1.000  H
  H179     1.0000 0.52877  0.30592  0.57122  Biso   1.000  H
  N122     1.0000 0.54417  0.27046  0.44287  Biso   1.000  N
  O60      1.0000 0.58156  0.35319  0.43722  Biso   1.000  O
  C182     1.0000 0.50085  0.23220  0.46147  Biso   1.000  C
  H180     1.0000 0.44945  0.24772  0.48844  Biso   1.000  H
  C183     1.0000 0.21489  0.24772  0.44323  Biso   1.000  C
  N123     1.0000 0.23313  0.19085  0.51788  Biso   1.000  N
  H181     1.0000 0.21096  0.23962  0.52804  Biso   1.000  H
  C184     1.0000 0.26870  0.19013  0.53985  Biso   1.000  C
  C185     1.0000 0.51168  0.21778  0.52874  Biso   1.000  C
  C186     1.0000 0.57310  0.26364  0.41202  Biso   1.000  C
  N124     1.0000 0.50836  0.20200  0.48921  Biso   1.000  N
  H182     1.0000 0.47596  0.21305  0.44035  Biso   1.000  H
  N125     1.0000 0.20576  0.20656  0.41877  Biso   1.000  N
  H183     1.0000 0.22557  0.27562  0.42482  Biso   1.000  H
  H184     1.0000 0.18439  0.24145  0.45603  Biso   1.000  H
  C187     1.0000 0.19016  0.14821  0.50554  Biso   1.000  C
  O61      1.0000 0.26997  0.15424  0.54888  Biso   1.000  O
  O62      1.0000 0.52342  0.20143  0.55842  Biso   1.000  O
  N126     1.0000 0.54616  0.22058  0.38943  Biso   1.000  N
  H185     1.0000 0.58657  0.29115  0.39284  Biso   1.000  H
  H186     1.0000 0.60018  0.26304  0.42574  Biso   1.000  H
  C188     1.0000 0.52421  0.16872  0.47758  Biso   1.000  C
  C189     1.0000 0.22639  0.20892  0.38234  Biso   1.000  C
  C190     1.0000 0.17257  0.15793  0.43108  Biso   1.000  C
  N127     1.0000 0.18936  0.13760  0.46183  Biso   1.000  N
  H187     1.0000 0.16218  0.15194  0.51205  Biso   1.000  H
  H188     1.0000 0.18708  0.12074  0.52162  Biso   1.000  H
  C191     1.0000 0.52656  0.21864  0.35223  Biso   1.000  C
  C192     1.0000 0.54207  0.17482  0.40134  Biso   1.000  C
  N128     1.0000 0.51057  0.15201  0.43636  Biso   1.000  N
  H189     1.0000 0.55956  0.18472  0.48013  Biso   1.000  H
  H190     1.0000 0.51008  0.14104  0.49655  Biso   1.000  H
  N129     1.0000 0.20746  0.16313  0.36666  Biso   1.000  N
  O63      1.0000 0.25640  0.24546  0.36488  Biso   1.000  O
  C193     1.0000 0.16866  0.12831  0.39222  Biso   1.000  C
  H191     1.0000 0.14077  0.15402  0.43872  Biso   1.000  H
  C194     1.0000 0.18786  0.09654  0.44910  Biso   1.000  C
  N130     1.0000 0.50460  0.17199  0.33799  Biso   1.000  N
  O64      1.0000 0.52779  0.25285  0.33415  Biso   1.000  O
  C195     1.0000 0.51362  0.14140  0.36503  Biso   1.000  C
  H192     1.0000 0.57415  0.17744  0.40502  Biso   1.000  H
  C196     1.0000 0.47027  0.10948  0.42592  Biso   1.000  C
  C197     1.0000 0.21189  0.15545  0.32347  Biso   1.000  C
  N131     1.0000 0.17572  0.09044  0.40821  Biso   1.000  N
  H193     1.0000 0.13675  0.11543  0.37853  Biso   1.000  H
  O65      1.0000 0.19469  0.06939  0.47040  Biso   1.000  O
  C198     1.0000 0.48723  0.15936  0.29674  Biso   1.000  C
  N132     1.0000 0.47094  0.10299  0.38476  Biso   1.000  N
  H194     1.0000 0.53257  0.12874  0.35085  Biso   1.000  H
  O66      1.0000 0.43969  0.08223  0.45008  Biso   1.000  O
  N133     1.0000 0.23507  0.12777  0.31512  Biso   1.000  N
  H195     1.0000 0.17949  0.13885  0.31113  Biso   1.000  H
  H196     1.0000 0.23026  0.18705  0.30984  Biso   1.000  H
  C199     1.0000 0.16716  0.04866  0.38516  Biso   1.000  C
  N134     1.0000 0.43439  0.13014  0.29474  Biso   1.000  N
  H197     1.0000 0.50126  0.14122  0.28412  Biso   1.000  H
  H198     1.0000 0.49796  0.18902  0.28053  Biso   1.000  H
  C200     1.0000 0.43912  0.05899  0.36457  Biso   1.000  C
  C201     1.0000 0.27604  0.14574  0.29226  Biso   1.000  C
  C202     1.0000 0.20998  0.07624  0.31733  Biso   1.000  C
  N135     1.0000 0.20579  0.05648  0.35837  Biso   1.000  N
  H199     1.0000 0.16127  0.02274  0.40462  Biso   1.000  H
  H200     1.0000 0.13775  0.03762  0.36853  Biso   1.000  H
  C203     1.0000 0.40706  0.14778  0.28013  Biso   1.000  C
  C204     1.0000 0.40980  0.07929  0.29846  Biso   1.000  C
  N136     1.0000 0.40258  0.06107  0.34032  Biso   1.000  N
  H201     1.0000 0.42338  0.03353  0.38553  Biso   1.000  H
  H202     1.0000 0.45806  0.05003  0.34652  Biso   1.000  H
  O67      1.0000 0.30117  0.18780  0.28185  Biso   1.000  O
  N137     1.0000 0.28439  0.10934  0.28369  Biso   1.000  N
  C205     1.0000 0.24422  0.06279  0.29499  Biso   1.000  C
  H203     1.0000 0.17805  0.06182  0.30334  Biso   1.000  H
  C206     1.0000 0.22843  0.03077  0.36135  Biso   1.000  C
  N138     1.0000 0.36059  0.11106  0.27937  Biso   1.000  N
  O68      1.0000 0.42101  0.18909  0.26862  Biso   1.000  O
  C207     1.0000 0.35757  0.06426  0.28461  Biso   1.000  C
  H204     1.0000 0.42436  0.06462  0.28062  Biso   1.000  H
  C208     1.0000 0.35441  0.03299  0.34956  Biso   1.000  C
  C209     1.0000 0.32304  0.11490  0.25681  Biso   1.000  C
  N139     1.0000 0.25434  0.03726  0.32590  Biso   1.000  N
  H205     1.0000 0.22869  0.04235  0.27034  Biso   1.000  H
  O69      1.0000 0.22477  0.00445  0.39035  Biso   1.000  O
  N140     1.0000 0.32861  0.03622  0.31874  Biso   1.000  N
  H206     1.0000 0.34856  0.04533  0.25852  Biso   1.000  H
  O70      1.0000 0.33897  0.00943  0.38114  Biso   1.000  O
  H207     1.0000 0.33746  0.14653  0.24315  Biso   1.000  H
  H208     1.0000 0.30966  0.08994  0.23523  Biso   1.000  H
  C210     1.0000 0.27732  0.00868  0.31687  Biso   1.000  C
  H209     1.0000 0.26578  0.98193  0.33682  Biso   1.000  H
  H210     1.0000 0.26759  0.99455  0.28913  Biso   1.000  H
  O71      1.0000 0.35745  0.43968  0.54992  Biso   1.000  O
  C211     1.0000 0.36079  0.47027  0.57408  Biso   1.000  C
  N141     1.0000 0.35855  0.51058  0.56364  Biso   1.000  N
  N142     1.0000 0.36794  0.47092  0.61524  Biso   1.000  N
  C212     1.0000 0.35549  0.52421  0.52242  Biso   1.000  C
  C213     1.0000 0.36724  0.54206  0.59866  Biso   1.000  C
  C214     1.0000 0.37220  0.51359  0.63497  Biso   1.000  C
  C215     1.0000 0.38011  0.43911  0.63543  Biso   1.000  C
  N143     1.0000 0.30635  0.50836  0.51079  Biso   1.000  N
  H211     1.0000 0.37484  0.55956  0.51987  Biso   1.000  H
  H212     1.0000 0.36904  0.51008  0.50345  Biso   1.000  H
  N144     1.0000 0.32559  0.54615  0.61057  Biso   1.000  N
  H213     1.0000 0.39674  0.57416  0.59498  Biso   1.000  H
  N145     1.0000 0.33262  0.50463  0.66201  Biso   1.000  N
  H214     1.0000 0.40383  0.53256  0.64915  Biso   1.000  H
  N146     1.0000 0.34152  0.40260  0.65968  Biso   1.000  N
  H215     1.0000 0.38982  0.42337  0.61447  Biso   1.000  H
  H216     1.0000 0.40805  0.45808  0.65348  Biso   1.000  H
  C216     1.0000 0.29389  0.51169  0.47126  Biso   1.000  C
  C217     1.0000 0.26866  0.50086  0.53853  Biso   1.000  C
  C218     1.0000 0.30943  0.57308  0.58798  Biso   1.000  C
  C219     1.0000 0.30790  0.52654  0.64777  Biso   1.000  C
  C220     1.0000 0.32787  0.48723  0.70326  Biso   1.000  C
  C221     1.0000 0.32143  0.35441  0.65044  Biso   1.000  C
  C222     1.0000 0.33053  0.40981  0.70154  Biso   1.000  C
  N147     1.0000 0.24754  0.49950  0.46991  Biso   1.000  N
  O72      1.0000 0.32199  0.52342  0.44158  Biso   1.000  O
  C223     1.0000 0.22463  0.48472  0.51002  Biso   1.000  C
  N148     1.0000 0.27370  0.54418  0.55713  Biso   1.000  N
  H217     1.0000 0.26292  0.47597  0.55965  Biso   1.000  H
  H218     1.0000 0.29543  0.58657  0.60716  Biso   1.000  H
  H219     1.0000 0.33713  0.60016  0.57426  Biso   1.000  H
  O73      1.0000 0.27495  0.52779  0.66585  Biso   1.000  O
  N149     1.0000 0.30424  0.43438  0.70526  Biso   1.000  N
  H220     1.0000 0.36004  0.50125  0.71588  Biso   1.000  H
  H221     1.0000 0.30892  0.49796  0.71947  Biso   1.000  H
  O74      1.0000 0.32956  0.33899  0.61886  Biso   1.000  O
  N150     1.0000 0.29239  0.32862  0.68126  Biso   1.000  N
  H222     1.0000 0.35973  0.42437  0.71938  Biso   1.000  H
  C224     1.0000 0.29332  0.35756  0.71539  Biso   1.000  C
  C225     1.0000 0.22278  0.49817  0.43175  Biso   1.000  C
  N151     1.0000 0.20374  0.51269  0.52500  Biso   1.000  N
  H223     1.0000 0.20172  0.44947  0.51156  Biso   1.000  H
  C226     1.0000 0.23465  0.54931  0.54946  Biso   1.000  C
  C227     1.0000 0.25927  0.40705  0.71987  Biso   1.000  C
  C228     1.0000 0.26867  0.27734  0.68313  Biso   1.000  C
  N152     1.0000 0.24951  0.36057  0.72063  Biso   1.000  N
  H224     1.0000 0.30322  0.34856  0.74148  Biso   1.000  H
  N153     1.0000 0.17385  0.45901  0.43016  Biso   1.000  N
  H225     1.0000 0.24073  0.49537  0.40827  Biso   1.000  H
  H226     1.0000 0.22283  0.52876  0.42878  Biso   1.000  H
  C229     1.0000 0.16086  0.51173  0.50901  Biso   1.000  C
  O75      1.0000 0.22835  0.58155  0.56278  Biso   1.000  O
  O76      1.0000 0.23192  0.42104  0.73138  Biso   1.000  O
  N154     1.0000 0.21710  0.25432  0.67410  Biso   1.000  N
  H227     1.0000 0.28384  0.26576  0.66318  Biso   1.000  H
  H228     1.0000 0.27303  0.26755  0.71087  Biso   1.000  H
  C230     1.0000 0.20816  0.32303  0.74319  Biso   1.000  C
  C231     1.0000 0.16208  0.41218  0.42365  Biso   1.000  C
  C232     1.0000 0.13327  0.46281  0.44320  Biso   1.000  C
  N155     1.0000 0.13053  0.46776  0.48774  Biso   1.000  N
  H229     1.0000 0.17052  0.53905  0.49007  Biso   1.000  H
  H230     1.0000 0.14285  0.51538  0.53197  Biso   1.000  H
  C233     1.0000 0.19764  0.22839  0.63865  Biso   1.000  C
  C234     1.0000 0.18142  0.24421  0.70501  Biso   1.000  C
  N156     1.0000 0.17504  0.28437  0.71631  Biso   1.000  N
  H231     1.0000 0.19095  0.33748  0.75685  Biso   1.000  H
  H232     1.0000 0.21973  0.30965  0.76477  Biso   1.000  H
  O77      1.0000 0.19086  0.39880  0.41536  Biso   1.000  O
  N157     1.0000 0.11406  0.38446  0.42737  Biso   1.000  N
  C235     1.0000 0.09083  0.41221  0.43556  Biso   1.000  C
  H233     1.0000 0.13015  0.48788  0.42758  Biso   1.000  H
  C236     1.0000 0.08848  0.43255  0.50419  Biso   1.000  C
  N158     1.0000 0.14933  0.20580  0.64163  Biso   1.000  N
  O78      1.0000 0.22031  0.22477  0.60965  Biso   1.000  O
  C237     1.0000 0.13376  0.21000  0.68267  Biso   1.000  C
  H234     1.0000 0.18633  0.22868  0.72966  Biso   1.000  H
  C238     1.0000 0.13031  0.27602  0.70774  Biso   1.000  C
  C239     1.0000 0.08852  0.33393  0.41478  Biso   1.000  C
  N159     1.0000 0.06357  0.39895  0.47374  Biso   1.000  N
  H235     1.0000 0.07085  0.41157  0.41177  Biso   1.000  H
  O79      1.0000 0.07459  0.43061  0.53915  Biso   1.000  O
  C240     1.0000 0.11850  0.16718  0.61484  Biso   1.000  C
  N160     1.0000 0.10731  0.23506  0.68488  Biso   1.000  N
  H236     1.0000 0.11625  0.17808  0.69666  Biso   1.000  H
  O80      1.0000 0.11336  0.30119  0.71815  Biso   1.000  O
  N161     1.0000 0.06552  0.30216  0.44913  Biso   1.000  N
  H237     1.0000 0.11153  0.32597  0.40186  Biso   1.000  H
  H238     1.0000 0.06406  0.32898  0.39406  Biso   1.000  H
  C241     1.0000 0.01513  0.36237  0.47832  Biso   1.000  C
  N162     1.0000 0.08528  0.17572  0.59179  Biso   1.000  N
  H239     1.0000 0.13852  0.16126  0.59538  Biso   1.000  H
  H240     1.0000 0.10013  0.13778  0.63147  Biso   1.000  H
  C242     1.0000 0.05645  0.21190  0.67653  Biso   1.000  C
  C243     1.0000 0.07857  0.26870  0.46015  Biso   1.000  C
  C244     1.0000 0.01536  0.28581  0.46027  Biso   1.000  C
  N163     1.0000 0.00906  0.31557  0.48912  Biso   1.000  N
  H241     1.0000 0.00012  0.37216  0.49995  Biso   1.000  H
  H242     1.0000 0.99793  0.35928  0.45226  Biso   1.000  H
  C245     1.0000 0.09133  0.18787  0.55090  Biso   1.000  C
  C246     1.0000 0.04035  0.16865  0.60778  Biso   1.000  C
  N164     1.0000 0.04436  0.20749  0.63334  Biso   1.000  N
  H243     1.0000 0.04064  0.17948  0.68887  Biso   1.000  H
  H244     1.0000 0.04323  0.23026  0.69016  Biso   1.000  H
  O81      1.0000 0.11577  0.26999  0.45112  Biso   1.000  O
  N165     1.0000 0.04226  0.23309  0.48212  Biso   1.000  N
  C247     1.0000 0.00020  0.23890  0.48439  Biso   1.000  C
  H245     1.0000 0.99505  0.27978  0.43538  Biso   1.000  H
  C248     1.0000 0.99296  0.29438  0.52617  Biso   1.000  C
  N166     1.0000 0.05175  0.18934  0.53817  Biso   1.000  N
  O82      1.0000 0.12529  0.19469  0.52960  Biso   1.000  O
  C249     1.0000 0.01463  0.17256  0.56892  Biso   1.000  C
  H246     1.0000 0.02134  0.13677  0.62147  Biso   1.000  H
  C250     1.0000 0.01748  0.22639  0.61766  Biso   1.000  C
  C251     1.0000 0.04198  0.19017  0.49446  Biso   1.000  C
  N167     1.0000 0.99004  0.25009  0.52506  Biso   1.000  N
  H247     1.0000 0.97132  0.21097  0.47196  Biso   1.000  H
  O83      1.0000 0.98020  0.30973  0.55514  Biso   1.000  O
  N168     1.0000 0.99922  0.20577  0.58123  Biso   1.000  N
  H248     1.0000 0.98671  0.14075  0.56128  Biso   1.000  H
  O84      1.0000 0.01093  0.25640  0.63512  Biso   1.000  O
  H249     1.0000 0.01024  0.16216  0.48795  Biso   1.000  H
  H250     1.0000 0.06634  0.18708  0.47838  Biso   1.000  H
  C252     1.0000 0.96718  0.21491  0.55677  Biso   1.000  C
  H251     1.0000 0.94992  0.22556  0.57518  Biso   1.000  H
  H252     1.0000 0.94292  0.18436  0.54397  Biso   1.000  H
  C253     1.0000 0.75518  0.66725  0.74810  Biso   1.000  C
  N169     1.0000 0.73218  0.63548  0.78245  Biso   1.000  N
  N170     1.0000 0.78074  0.71781  0.76072  Biso   1.000  N
  H253     1.0000 0.77819  0.65929  0.73521  Biso   1.000  H
  H254     1.0000 0.73072  0.66230  0.72739  Biso   1.000  H
  C254     1.0000 0.68202  0.61913  0.79359  Biso   1.000  C
  C255     1.0000 0.74523  0.60202  0.79350  Biso   1.000  C
  C256     1.0000 0.82874  0.74550  0.75697  Biso   1.000  C
  C257     1.0000 0.75749  0.74553  0.76891  Biso   1.000  C
  N171     1.0000 0.67574  0.64893  0.82244  Biso   1.000  N
  C258     1.0000 0.66687  0.57226  0.81772  Biso   1.000  C
  H255     1.0000 0.66171  0.61310  0.76870  Biso   1.000  H
  N172     1.0000 0.70894  0.56645  0.81548  Biso   1.000  N
  O85      1.0000 0.78243  0.60331  0.78444  Biso   1.000  O
  O86      1.0000 0.85752  0.73212  0.74869  Biso   1.000  O
  N173     1.0000 0.84051  0.79233  0.76351  Biso   1.000  N
  N174     1.0000 0.73023  0.73227  0.80707  Biso   1.000  N
  H256     1.0000 0.73751  0.74489  0.74510  Biso   1.000  H
  C259     1.0000 0.79993  0.79613  0.77653  Biso   1.000  C
  C260     1.0000 0.65963  0.62770  0.85949  Biso   1.000  C
  C261     1.0000 0.68181  0.69573  0.81167  Biso   1.000  C
  N175     1.0000 0.65671  0.58341  0.85841  Biso   1.000  N
  H257     1.0000 0.63798  0.54429  0.80529  Biso   1.000  H
  C262     1.0000 0.70864  0.52349  0.82781  Biso   1.000  C
  C263     1.0000 0.88946  0.83153  0.76511  Biso   1.000  C
  C264     1.0000 0.75514  0.76587  0.83754  Biso   1.000  C
  N176     1.0000 0.79719  0.80108  0.82106  Biso   1.000  N
  H258     1.0000 0.79681  0.82120  0.76090  Biso   1.000  H
  O87      1.0000 0.64686  0.64305  0.88846  Biso   1.000  O
  H259     1.0000 0.66679  0.70551  0.83331  Biso   1.000  H
  H260     1.0000 0.66459  0.69261  0.78561  Biso   1.000  H
  C265     1.0000 0.63384  0.54823  0.89009  Biso   1.000  C
  N177     1.0000 0.71841  0.52266  0.87149  Biso   1.000  N
  H261     1.0000 0.67692  0.49552  0.82131  Biso   1.000  H
  H262     1.0000 0.73300  0.52040  0.81170  Biso   1.000  H
  N178     1.0000 0.91420  0.83282  0.80323  Biso   1.000  N
  H263     1.0000 0.90739  0.82869  0.74160  Biso   1.000  H
  H264     1.0000 0.88951  0.86212  0.76210  Biso   1.000  H
  O88      1.0000 0.74125  0.76393  0.87247  Biso   1.000  O
  C266     1.0000 0.82754  0.84508  0.84233  Biso   1.000  C
  N179     1.0000 0.66588  0.53909  0.91458  Biso   1.000  N
  H265     1.0000 0.61658  0.55888  0.90850  Biso   1.000  H
  H266     1.0000 0.60960  0.51771  0.87729  Biso   1.000  H
  C267     1.0000 0.75799  0.52119  0.88423  Biso   1.000  C
  C268     1.0000 0.68131  0.50592  0.90224  Biso   1.000  C
  C269     1.0000 0.96055  0.84501  0.80458  Biso   1.000  C
  C270     1.0000 0.89129  0.81804  0.84337  Biso   1.000  C
  N180     1.0000 0.87040  0.84602  0.85832  Biso   1.000  N
  H267     1.0000 0.83720  0.87241  0.82339  Biso   1.000  H
  H268     1.0000 0.80951  0.84870  0.86529  Biso   1.000  H
  C271     1.0000 0.68416  0.55974  0.95098  Biso   1.000  C
  O89      1.0000 0.79195  0.52801  0.86296  Biso   1.000  O
  N181     1.0000 0.75194  0.50904  0.92511  Biso   1.000  N
  C272     1.0000 0.70703  0.50201  0.94110  Biso   1.000  C
  H269     1.0000 0.65339  0.47411  0.89460  Biso   1.000  H
  O90      1.0000 0.98865  0.85674  0.77490  Biso   1.000  O
  N182     1.0000 0.97301  0.84168  0.84414  Biso   1.000  N
  H270     1.0000 0.86838  0.78279  0.84491  Biso   1.000  H
  C273     1.0000 0.93532  0.83418  0.87189  Biso   1.000  C
  C274     1.0000 0.90131  0.88263  0.88282  Biso   1.000  C
  O91      1.0000 0.67761  0.58976  0.96845  Biso   1.000  O
  N183     1.0000 0.71103  0.54081  0.96667  Biso   1.000  N
  C275     1.0000 0.78516  0.50050  0.94816  Biso   1.000  C
  H271     1.0000 0.68800  0.47009  0.95479  Biso   1.000  H
  C276     1.0000 0.02217  0.85756  0.85574  Biso   1.000  C
  N184     1.0000 0.94037  0.87750  0.89046  Biso   1.000  N
  H272     1.0000 0.92959  0.80929  0.89301  Biso   1.000  H
  O92      1.0000 0.89503  0.91490  0.89611  Biso   1.000  O
  C277     1.0000 0.72311  0.54522  0.00985  Biso   1.000  C
  N185     1.0000 0.81599  0.53912  0.97495  Biso   1.000  N
  H273     1.0000 0.80518  0.49458  0.92870  Biso   1.000  H
  H274     1.0000 0.76679  0.47110  0.96480  Biso   1.000  H
  N186     1.0000 0.02521  0.84390  0.89700  Biso   1.000  N
  H275     1.0000 0.04150  0.89288  0.85320  Biso   1.000  H
  H276     1.0000 0.03570  0.84340  0.83681  Biso   1.000  H
  C278     1.0000 0.97611  0.90644  0.92130  Biso   1.000  C
  N187     1.0000 0.77398  0.56839  0.01823  Biso   1.000  N
  H277     1.0000 0.70730  0.51280  0.02219  Biso   1.000  H
  H278     1.0000 0.70991  0.56362  0.02351  Biso   1.000  H
  C279     1.0000 0.86432  0.56175  0.97198  Biso   1.000  C
  C280     1.0000 0.80042  0.54332  0.01602  Biso   1.000  C
  C281     1.0000 0.02745  0.80359  0.90740  Biso   1.000  C
  C282     1.0000 0.03392  0.87542  0.93198  Biso   1.000  C
  N188     1.0000 0.99227  0.87951  0.94389  Biso   1.000  N
  H279     1.0000 0.96209  0.91989  0.94049  Biso   1.000  H
  H280     1.0000 0.00381  0.93351  0.90761  Biso   1.000  H
  C283     1.0000 0.79697  0.60934  0.04110  Biso   1.000  C
  O93      1.0000 0.88697  0.55809  0.94297  Biso   1.000  O
  N189     1.0000 0.88378  0.58768  0.00746  Biso   1.000  N
  C284     1.0000 0.84810  0.57757  0.03837  Biso   1.000  C
  H281     1.0000 0.78291  0.51140  0.02999  Biso   1.000  H
  O94      1.0000 0.02411  0.77300  0.88324  Biso   1.000  O
  N190     1.0000 0.03462  0.80427  0.94856  Biso   1.000  N
  H282     1.0000 0.06342  0.90752  0.92830  Biso   1.000  H
  C285     1.0000 0.03888  0.84695  0.96833  Biso   1.000  C
  C286     1.0000 0.97457  0.85989  0.98109  Biso   1.000  C
  O95      1.0000 0.78002  0.63451  0.05150  Biso   1.000  O
  N191     1.0000 0.84172  0.61773  0.04966  Biso   1.000  N
  C287     1.0000 0.93533  0.61066  0.01645  Biso   1.000  C
  H283     1.0000 0.85299  0.56200  0.06301  Biso   1.000  H
  C288     1.0000 0.04679  0.77247  0.96875  Biso   1.000  C
  N192     1.0000 0.99928  0.83795  0.99537  Biso   1.000  N
  H284     1.0000 0.07051  0.86592  0.98251  Biso   1.000  H
  O96      1.0000 0.94161  0.86111  0.99920  Biso   1.000  O
  C289     1.0000 0.87484  0.65639  0.07652  Biso   1.000  C
  H285     1.0000 0.95052  0.59912  0.99650  Biso   1.000  H
  N193     1.0000 0.95905  0.66194  0.01458  Biso   1.000  N
  H286     1.0000 0.93971  0.60091  0.04420  Biso   1.000  H
  N194     1.0000 0.00818  0.73592  0.99300  Biso   1.000  N
  H287     1.0000 0.05648  0.75669  0.94779  Biso   1.000  H
  H288     1.0000 0.07471  0.79140  0.98680  Biso   1.000  H
  C290     1.0000 0.99453  0.82055  0.03659  Biso   1.000  C
  N195     1.0000 0.91617  0.69390  0.05399  Biso   1.000  N
  H289     1.0000 0.85761  0.67080  0.09021  Biso   1.000  H
  H290     1.0000 0.88641  0.64301  0.09809  Biso   1.000  H
  C291     1.0000 0.98809  0.68773  0.98379  Biso   1.000  C
  C292     1.0000 0.95999  0.69092  0.04871  Biso   1.000  C
  C293     1.0000 0.99719  0.74313  0.03487  Biso   1.000  C
  N196     1.0000 0.97092  0.76773  0.03858  Biso   1.000  N
  H291     1.0000 0.97559  0.83131  0.05279  Biso   1.000  H
  H292     1.0000 0.02672  0.83461  0.04920  Biso   1.000  H
  C294     1.0000 0.92593  0.74037  0.05322  Biso   1.000  C
  O97      1.0000 0.99622  0.67231  0.95218  Biso   1.000  O
  H293     1.0000 0.96989  0.68188  0.07480  Biso   1.000  H
  H294     1.0000 0.02639  0.75769  0.05270  Biso   1.000  H
  O98      1.0000 0.89858  0.75436  0.06473  Biso   1.000  O
  C295     1.0000 0.31798  0.38087  0.20641  Biso   1.000  C
  N197     1.0000 0.26782  0.36452  0.21755  Biso   1.000  N
  N198     1.0000 0.32426  0.35107  0.17756  Biso   1.000  N
  C296     1.0000 0.33313  0.42774  0.18228  Biso   1.000  C
  H295     1.0000 0.33829  0.38690  0.23130  Biso   1.000  H
  C297     1.0000 0.24482  0.33275  0.25190  Biso   1.000  C
  C298     1.0000 0.25477  0.39798  0.20650  Biso   1.000  C
  C299     1.0000 0.31819  0.30427  0.18833  Biso   1.000  C
  C300     1.0000 0.34037  0.37230  0.14051  Biso   1.000  C
  N199     1.0000 0.29106  0.43355  0.18452  Biso   1.000  N
  N200     1.0000 0.34329  0.41659  0.14159  Biso   1.000  N
  H296     1.0000 0.36202  0.45571  0.19471  Biso   1.000  H
  N201     1.0000 0.21926  0.28218  0.23928  Biso   1.000  N
  H297     1.0000 0.22181  0.34071  0.26479  Biso   1.000  H
  H298     1.0000 0.26928  0.33770  0.27261  Biso   1.000  H
  O99      1.0000 0.21757  0.39669  0.21556  Biso   1.000  O
  N202     1.0000 0.26977  0.26773  0.19293  Biso   1.000  N
  H299     1.0000 0.33320  0.29448  0.16669  Biso   1.000  H
  H300     1.0000 0.33541  0.30739  0.21439  Biso   1.000  H
  O100     1.0000 0.35313  0.35695  0.11154  Biso   1.000  O
  C301     1.0000 0.29136  0.47651  0.17219  Biso   1.000  C
  C302     1.0000 0.36616  0.45177  0.10991  Biso   1.000  C
  C303     1.0000 0.24251  0.25446  0.23109  Biso   1.000  C
  C304     1.0000 0.17126  0.25450  0.24303  Biso   1.000  C
  C305     1.0000 0.24486  0.23413  0.16246  Biso   1.000  C
  N203     1.0000 0.28159  0.47734  0.12851  Biso   1.000  N
  H301     1.0000 0.32308  0.50448  0.17869  Biso   1.000  H
  H302     1.0000 0.26700  0.47960  0.18830  Biso   1.000  H
  N204     1.0000 0.33412  0.46091  0.08542  Biso   1.000  N
  H303     1.0000 0.38342  0.44112  0.09150  Biso   1.000  H
  H304     1.0000 0.39040  0.48228  0.12271  Biso   1.000  H
  H305     1.0000 0.26249  0.25511  0.25490  Biso   1.000  H
  C306     1.0000 0.20007  0.20387  0.22347  Biso   1.000  C
  N205     1.0000 0.15949  0.20767  0.23649  Biso   1.000  N
  O101     1.0000 0.14248  0.26788  0.25131  Biso   1.000  O
  N206     1.0000 0.20281  0.19892  0.17894  Biso   1.000  N
  O102     1.0000 0.25875  0.23607  0.12753  Biso   1.000  O
  C307     1.0000 0.24201  0.47881  0.11577  Biso   1.000  C
  C308     1.0000 0.31869  0.49408  0.09776  Biso   1.000  C
  C309     1.0000 0.31584  0.44026  0.04902  Biso   1.000  C
  H306     1.0000 0.20319  0.17880  0.23910  Biso   1.000  H
  C310     1.0000 0.11056  0.16851  0.23489  Biso   1.000  C
  C311     1.0000 0.17246  0.15492  0.15767  Biso   1.000  C
  O103     1.0000 0.20805  0.47199  0.13704  Biso   1.000  O
  N207     1.0000 0.24806  0.49096  0.07489  Biso   1.000  N
  C312     1.0000 0.29297  0.49799  0.05890  Biso   1.000  C
  H307     1.0000 0.34661  0.52589  0.10540  Biso   1.000  H
  O104     1.0000 0.32241  0.41028  0.03155  Biso   1.000  O
  N208     1.0000 0.28897  0.45919  0.03333  Biso   1.000  N
  N209     1.0000 0.08580  0.16718  0.19677  Biso   1.000  N
  H308     1.0000 0.09261  0.17130  0.25840  Biso   1.000  H
  H309     1.0000 0.11049  0.13788  0.23790  Biso   1.000  H
  N210     1.0000 0.12960  0.15398  0.14168  Biso   1.000  N
  H310     1.0000 0.16280  0.12759  0.17661  Biso   1.000  H
  H311     1.0000 0.19049  0.15129  0.13471  Biso   1.000  H
  C313     1.0000 0.21484  0.49950  0.05184  Biso   1.000  C
  H312     1.0000 0.31200  0.52991  0.04521  Biso   1.000  H
  C314     1.0000 0.27689  0.45478  0.99015  Biso   1.000  C
  C315     1.0000 0.03945  0.15499  0.19542  Biso   1.000  C
  C316     1.0000 0.10871  0.18195  0.15663  Biso   1.000  C
  C317     1.0000 0.09869  0.11737  0.11718  Biso   1.000  C
  N211     1.0000 0.18401  0.46088  0.02505  Biso   1.000  N
  H313     1.0000 0.19482  0.50541  0.07130  Biso   1.000  H
  H314     1.0000 0.23321  0.52890  0.03520  Biso   1.000  H
  N212     1.0000 0.22602  0.43161  0.98177  Biso   1.000  N
  H315     1.0000 0.29270  0.48720  0.97781  Biso   1.000  H
  H316     1.0000 0.29009  0.43638  0.97649  Biso   1.000  H
  O105     1.0000 0.01135  0.14326  0.22510  Biso   1.000  O
  N213     1.0000 0.02699  0.15832  0.15586  Biso   1.000  N
  H317     1.0000 0.13162  0.21721  0.15509  Biso   1.000  H
  C318     1.0000 0.06468  0.16582  0.12811  Biso   1.000  C
  O106     1.0000 0.10497  0.08510  0.10389  Biso   1.000  O
  N214     1.0000 0.05963  0.12250  0.10954  Biso   1.000  N
  C319     1.0000 0.13568  0.43825  0.02802  Biso   1.000  C
  C320     1.0000 0.19958  0.45668  0.98398  Biso   1.000  C
  C321     1.0000 0.20303  0.39066  0.95890  Biso   1.000  C
  C322     1.0000 0.97783  0.14244  0.14426  Biso   1.000  C
  H318     1.0000 0.07041  0.19070  0.10699  Biso   1.000  H
  C323     1.0000 0.02389  0.09356  0.07870  Biso   1.000  C
  O107     1.0000 0.11303  0.44191  0.05703  Biso   1.000  O
  N215     1.0000 0.11622  0.41232  0.99254  Biso   1.000  N
  C324     1.0000 0.15190  0.42243  0.96163  Biso   1.000  C
  H319     1.0000 0.21709  0.48860  0.97001  Biso   1.000  H
  O108     1.0000 0.21998  0.36549  0.94850  Biso   1.000  O
  N216     1.0000 0.15828  0.38227  0.95034  Biso   1.000  N
  N217     1.0000 0.97479  0.15610  0.10300  Biso   1.000  N
  H320     1.0000 0.95850  0.10711  0.14680  Biso   1.000  H
  H321     1.0000 0.96429  0.15660  0.16319  Biso   1.000  H
  N218     1.0000 0.00773  0.12049  0.05611  Biso   1.000  N
  H322     1.0000 0.03791  0.08011  0.05951  Biso   1.000  H
  H323     1.0000 0.99619  0.06648  0.09239  Biso   1.000  H
  C325     1.0000 0.06467  0.38933  0.98355  Biso   1.000  C
  H324     1.0000 0.14701  0.43800  0.93699  Biso   1.000  H
  C326     1.0000 0.12516  0.34361  0.92348  Biso   1.000  C
  C327     1.0000 0.97255  0.19641  0.09260  Biso   1.000  C
  C328     1.0000 0.96608  0.12458  0.06802  Biso   1.000  C
  C329     1.0000 0.02543  0.14011  0.01891  Biso   1.000  C
  N219     1.0000 0.04095  0.33805  0.98542  Biso   1.000  N
  H325     1.0000 0.04950  0.40092  0.00350  Biso   1.000  H
  H326     1.0000 0.06029  0.39909  0.95580  Biso   1.000  H
  N220     1.0000 0.08383  0.30610  0.94601  Biso   1.000  N
  H327     1.0000 0.14239  0.32920  0.90979  Biso   1.000  H
  H328     1.0000 0.11359  0.35699  0.90191  Biso   1.000  H
  O109     1.0000 0.97589  0.22700  0.11676  Biso   1.000  O
  N221     1.0000 0.96538  0.19573  0.05144  Biso   1.000  N
  H329     1.0000 0.93658  0.09248  0.07170  Biso   1.000  H
  C330     1.0000 0.96112  0.15305  0.03167  Biso   1.000  C
  O110     1.0000 0.05839  0.13889  0.00080  Biso   1.000  O
  N222     1.0000 0.00072  0.16205  0.00463  Biso   1.000  N
  C331     1.0000 0.01191  0.31227  0.01621  Biso   1.000  C
  C332     1.0000 0.04001  0.30908  0.95129  Biso   1.000  C
  C333     1.0000 0.07407  0.25963  0.94678  Biso   1.000  C
  C334     1.0000 0.95321  0.22753  0.03125  Biso   1.000  C
  H330     1.0000 0.92951  0.13412  0.01749  Biso   1.000  H
  C335     1.0000 0.00547  0.17944  0.96341  Biso   1.000  C
  N223     1.0000 0.99182  0.26407  0.00700  Biso   1.000  N
  O111     1.0000 0.00378  0.32769  0.04782  Biso   1.000  O
  C336     1.0000 0.00281  0.25687  0.96513  Biso   1.000  C
  H331     1.0000 0.03011  0.31812  0.92520  Biso   1.000  H
  N224     1.0000 0.02908  0.23227  0.96142  Biso   1.000  N
  O112     1.0000 0.10142  0.24564  0.93527  Biso   1.000  O
  H332     1.0000 0.94352  0.24331  0.05221  Biso   1.000  H
  H333     1.0000 0.92529  0.20860  0.01320  Biso   1.000  H
  H334     1.0000 0.97328  0.16539  0.95080  Biso   1.000  H
  H335     1.0000 0.02441  0.16869  0.94721  Biso   1.000  H
  H336     1.0000 0.97361  0.24231  0.94730  Biso   1.000  H
  C337     1.0000 0.84609  0.50728  0.36991  Biso   1.000  C
  N225     1.0000 0.82873  0.49466  0.32869  Biso   1.000  N
  N226     1.0000 0.89894  0.53651  0.37190  Biso   1.000  N
  H337     1.0000 0.83206  0.52542  0.38252  Biso   1.000  H
  H338     1.0000 0.83536  0.47762  0.38615  Biso   1.000  H
  C338     1.0000 0.80678  0.44804  0.31442  Biso   1.000  C
  C339     1.0000 0.81972  0.52528  0.30165  Biso   1.000  C
  C340     1.0000 0.92354  0.58739  0.36819  Biso   1.000  C
  C341     1.0000 0.92628  0.51890  0.38654  Biso   1.000  C
  N227     1.0000 0.78718  0.44610  0.27725  Biso   1.000  N
  O113     1.0000 0.80555  0.41383  0.33253  Biso   1.000  O
  C342     1.0000 0.79125  0.49182  0.26531  Biso   1.000  C
  N228     1.0000 0.86240  0.56369  0.28188  Biso   1.000  N
  H339     1.0000 0.80077  0.53794  0.31583  Biso   1.000  H
  N229     1.0000 0.93074  0.60557  0.32636  Biso   1.000  N
  H340     1.0000 0.90896  0.60202  0.38602  Biso   1.000  H
  C343     1.0000 0.97577  0.60242  0.38206  Biso   1.000  C
  O114     1.0000 0.91232  0.47755  0.39805  Biso   1.000  O
  N230     1.0000 0.97275  0.55562  0.38731  Biso   1.000  N
  C344     1.0000 0.76023  0.40300  0.25466  Biso   1.000  C
  N231     1.0000 0.82275  0.51463  0.23032  Biso   1.000  N
  H341     1.0000 0.75919  0.48924  0.26162  Biso   1.000  H
  C345     1.0000 0.86307  0.55720  0.24075  Biso   1.000  C
  C346     1.0000 0.89420  0.60765  0.30208  Biso   1.000  C
  C347     1.0000 0.97892  0.63369  0.31712  Biso   1.000  C
  N232     1.0000 0.00471  0.63042  0.34790  Biso   1.000  N
  H342     1.0000 0.98477  0.62135  0.40812  Biso   1.000  H
  C348     1.0000 0.01030  0.55178  0.40984  Biso   1.000  C
  N233     1.0000 0.78917  0.39622  0.22381  Biso   1.000  N
  H343     1.0000 0.74677  0.37553  0.27384  Biso   1.000  H
  H344     1.0000 0.73316  0.40364  0.24094  Biso   1.000  H
  C349     1.0000 0.80913  0.49796  0.18910  Biso   1.000  C
  O115     1.0000 0.89365  0.58445  0.21657  Biso   1.000  O
  H345     1.0000 0.90996  0.63315  0.28115  Biso   1.000  H
  H346     1.0000 0.87527  0.61662  0.32013  Biso   1.000  H
  O116     1.0000 0.99437  0.65725  0.28553  Biso   1.000  O
  C350     1.0000 0.05602  0.65800  0.34977  Biso   1.000  C
  H347     1.0000 0.99587  0.52012  0.42353  Biso   1.000  H
  N234     1.0000 0.04895  0.55734  0.38298  Biso   1.000  N
  H348     1.0000 0.02368  0.57674  0.43145  Biso   1.000  H
  C351     1.0000 0.83249  0.43448  0.20521  Biso   1.000  C
  C352     1.0000 0.78403  0.35204  0.21614  Biso   1.000  C
  N235     1.0000 0.82496  0.46464  0.17747  Biso   1.000  N
  H349     1.0000 0.77376  0.48193  0.18652  Biso   1.000  H
  H350     1.0000 0.82325  0.52564  0.17013  Biso   1.000  H
  N236     1.0000 0.07900  0.62942  0.34078  Biso   1.000  N
  H351     1.0000 0.06754  0.68472  0.32982  Biso   1.000  H
  H352     1.0000 0.06575  0.67213  0.37752  Biso   1.000  H
  C353     1.0000 0.08910  0.60385  0.37169  Biso   1.000  C
  C354     1.0000 0.05730  0.52094  0.37442  Biso   1.000  C
  C355     1.0000 0.84863  0.40658  0.17670  Biso   1.000  C
  H353     1.0000 0.85738  0.45363  0.22633  Biso   1.000  H
  O117     1.0000 0.75176  0.31345  0.22946  Biso   1.000  O
  N237     1.0000 0.82065  0.35771  0.19168  Biso   1.000  N
  C356     1.0000 0.82165  0.44890  0.13793  Biso   1.000  C
  C357     1.0000 0.10491  0.63591  0.30530  Biso   1.000  C
  H354     1.0000 0.10468  0.62433  0.39634  Biso   1.000  H
  C358     1.0000 0.12336  0.59044  0.34934  Biso   1.000  C
  O118     1.0000 0.03215  0.47884  0.38483  Biso   1.000  O
  N238     1.0000 0.09827  0.53891  0.35155  Biso   1.000  N
  N239     1.0000 0.83385  0.41472  0.13658  Biso   1.000  N
  H355     1.0000 0.88387  0.41892  0.17823  Biso   1.000  H
  C359     1.0000 0.82161  0.31582  0.17569  Biso   1.000  C
  O119     1.0000 0.80992  0.46525  0.10822  Biso   1.000  O
  O120     1.0000 0.10855  0.66220  0.27630  Biso   1.000  O
  N240     1.0000 0.12755  0.61020  0.30828  Biso   1.000  N
  H356     1.0000 0.15527  0.60482  0.36334  Biso   1.000  H
  C360     1.0000 0.12145  0.51122  0.34321  Biso   1.000  C
  C361     1.0000 0.83514  0.39127  0.09843  Biso   1.000  C
  N241     1.0000 0.86559  0.32945  0.15438  Biso   1.000  N
  H357     1.0000 0.79426  0.29814  0.15675  Biso   1.000  H
  H358     1.0000 0.81796  0.29413  0.19864  Biso   1.000  H
  C362     1.0000 0.16616  0.61798  0.28148  Biso   1.000  C
  N242     1.0000 0.12587  0.50355  0.29999  Biso   1.000  N
  H359     1.0000 0.15385  0.52783  0.35554  Biso   1.000  H
  H360     1.0000 0.10308  0.47963  0.35683  Biso   1.000  H
  N243     1.0000 0.87433  0.38152  0.09684  Biso   1.000  N
  H361     1.0000 0.83797  0.41203  0.07492  Biso   1.000  H
  H362     1.0000 0.80455  0.36072  0.09542  Biso   1.000  H
  C363     1.0000 0.87052  0.33712  0.10988  Biso   1.000  C
  C364     1.0000 0.90080  0.32260  0.17087  Biso   1.000  C
  N244     1.0000 0.15762  0.57624  0.25846  Biso   1.000  N
  H363     1.0000 0.17206  0.64394  0.26202  Biso   1.000  H
  H364     1.0000 0.19557  0.62902  0.29812  Biso   1.000  H
  C365     1.0000 0.10695  0.45776  0.28431  Biso   1.000  C
  C366     1.0000 0.16466  0.53833  0.27442  Biso   1.000  C
  C367     1.0000 0.92116  0.41655  0.09030  Biso   1.000  C
  C368     1.0000 0.92113  0.34530  0.10224  Biso   1.000  C
  H365     1.0000 0.84546  0.30894  0.09423  Biso   1.000  H
  O121     1.0000 0.90272  0.31066  0.20583  Biso   1.000  O
  N245     1.0000 0.93438  0.33131  0.14039  Biso   1.000  N
  C369     1.0000 0.14547  0.57014  0.21755  Biso   1.000  C
  N246     1.0000 0.12758  0.46012  0.24791  Biso   1.000  N
  O122     1.0000 0.07692  0.42118  0.30180  Biso   1.000  O
  C370     1.0000 0.16077  0.50875  0.23560  Biso   1.000  C
  H366     1.0000 0.19658  0.55124  0.28814  Biso   1.000  H
  O123     1.0000 0.93454  0.45876  0.08204  Biso   1.000  O
  N247     1.0000 0.94887  0.39626  0.09404  Biso   1.000  N
  H367     1.0000 0.92176  0.32593  0.07842  Biso   1.000  H
  C371     1.0000 0.97096  0.31944  0.14499  Biso   1.000  C
  N248     1.0000 0.14398  0.52908  0.20481  Biso   1.000  N
  O124     1.0000 0.13864  0.59729  0.19628  Biso   1.000  O
  C372     1.0000 0.11845  0.41896  0.22341  Biso   1.000  C
  H368     1.0000 0.19255  0.51262  0.22792  Biso   1.000  H
  C373     1.0000 0.99943  0.42129  0.08146  Biso   1.000  C
  H369     1.0000 0.96116  0.29463  0.16663  Biso   1.000  H
  H370     1.0000 0.97407  0.30535  0.11893  Biso   1.000  H
  N249     1.0000 0.01774  0.36014  0.15580  Biso   1.000  N
  C374     1.0000 0.14318  0.51847  0.16114  Biso   1.000  C
  N250     1.0000 0.08325  0.40662  0.19174  Biso   1.000  N
  H371     1.0000 0.10775  0.39102  0.24183  Biso   1.000  H
  H372     1.0000 0.14895  0.42523  0.21064  Biso   1.000  H
  N251     1.0000 0.03120  0.43004  0.11580  Biso   1.000  N
  H373     1.0000 0.00736  0.45223  0.06854  Biso   1.000  H
  H374     1.0000 0.00438  0.40174  0.06074  Biso   1.000  H
  C375     1.0000 0.04752  0.39622  0.12695  Biso   1.000  C
  C376     1.0000 0.03895  0.36524  0.19284  Biso   1.000  C
  N252     1.0000 0.10021  0.47583  0.14880  Biso   1.000  N
  H375     1.0000 0.17116  0.51474  0.15463  Biso   1.000  H
  H376     1.0000 0.14626  0.54594  0.14502  Biso   1.000  H
  C377     1.0000 0.09441  0.42796  0.15104  Biso   1.000  C
  C378     1.0000 0.06464  0.47655  0.12682  Biso   1.000  C
  H377     1.0000 0.05358  0.38195  0.10202  Biso   1.000  H
  O125     1.0000 0.02361  0.33716  0.22179  Biso   1.000  O
  H378     1.0000 0.12236  0.42702  0.13864  Biso   1.000  H
  O126     1.0000 0.06336  0.51244  0.11777  Biso   1.000  O
  C379     1.0000 0.15391  0.49272  0.63009  Biso   1.000  C
  N253     1.0000 0.10106  0.46349  0.62810  Biso   1.000  N
  N254     1.0000 0.17127  0.50534  0.67131  Biso   1.000  N
  H379     1.0000 0.16794  0.47457  0.61748  Biso   1.000  H
  H380     1.0000 0.16464  0.52238  0.61385  Biso   1.000  H
  C380     1.0000 0.07648  0.41264  0.63181  Biso   1.000  C
  C381     1.0000 0.07372  0.48110  0.61346  Biso   1.000  C
  C382     1.0000 0.18028  0.47472  0.69835  Biso   1.000  C
  C383     1.0000 0.19322  0.55196  0.68558  Biso   1.000  C
  N255     1.0000 0.06926  0.39443  0.67364  Biso   1.000  N
  H381     1.0000 0.09104  0.39798  0.61398  Biso   1.000  H
  C384     1.0000 0.02423  0.39758  0.61794  Biso   1.000  C
  N256     1.0000 0.02725  0.44438  0.61269  Biso   1.000  N
  O127     1.0000 0.08768  0.52245  0.60195  Biso   1.000  O
  N257     1.0000 0.13760  0.43631  0.71812  Biso   1.000  N
  C385     1.0000 0.20875  0.50818  0.73469  Biso   1.000  C
  H382     1.0000 0.19923  0.46206  0.68417  Biso   1.000  H
  O128     1.0000 0.19445  0.58617  0.66747  Biso   1.000  O
  N258     1.0000 0.21282  0.55390  0.72275  Biso   1.000  N
  C386     1.0000 0.10580  0.39235  0.69792  Biso   1.000  C
  C387     1.0000 0.02108  0.36631  0.68288  Biso   1.000  C
  H383     1.0000 0.01524  0.37868  0.59188  Biso   1.000  H
  N259     1.0000 0.99528  0.36958  0.65210  Biso   1.000  N
  C388     1.0000 0.98970  0.44822  0.59016  Biso   1.000  C
  C389     1.0000 0.13693  0.44280  0.75925  Biso   1.000  C
  N260     1.0000 0.17725  0.48537  0.76968  Biso   1.000  N
  H384     1.0000 0.24081  0.51076  0.73838  Biso   1.000  H
  C390     1.0000 0.23977  0.59700  0.74534  Biso   1.000  C
  H385     1.0000 0.09004  0.36685  0.71885  Biso   1.000  H
  H386     1.0000 0.12473  0.38338  0.67987  Biso   1.000  H
  O129     1.0000 0.00563  0.34275  0.71447  Biso   1.000  O
  C391     1.0000 0.94398  0.34200  0.65023  Biso   1.000  C
  H387     1.0000 0.00413  0.47988  0.57647  Biso   1.000  H
  N261     1.0000 0.95105  0.44266  0.61702  Biso   1.000  N
  H388     1.0000 0.97632  0.42326  0.56855  Biso   1.000  H
  O130     1.0000 0.10635  0.41555  0.78343  Biso   1.000  O
  C392     1.0000 0.19087  0.50204  0.81090  Biso   1.000  C
  N262     1.0000 0.21083  0.60378  0.77619  Biso   1.000  N
  H389     1.0000 0.25323  0.62447  0.72616  Biso   1.000  H
  H390     1.0000 0.26684  0.59636  0.75906  Biso   1.000  H
  N263     1.0000 0.92100  0.37058  0.65922  Biso   1.000  N
  H391     1.0000 0.93246  0.31528  0.67018  Biso   1.000  H
  H392     1.0000 0.93425  0.32787  0.62248  Biso   1.000  H
  C393     1.0000 0.91090  0.39615  0.62831  Biso   1.000  C
  C394     1.0000 0.94270  0.47906  0.62558  Biso   1.000  C
  N264     1.0000 0.17504  0.53536  0.82253  Biso   1.000  N
  H393     1.0000 0.22624  0.51807  0.81348  Biso   1.000  H
  H394     1.0000 0.17675  0.47436  0.82987  Biso   1.000  H
  C395     1.0000 0.16751  0.56552  0.79479  Biso   1.000  C
  C396     1.0000 0.21597  0.64796  0.78386  Biso   1.000  C
  C397     1.0000 0.89509  0.36409  0.69470  Biso   1.000  C
  H395     1.0000 0.89535  0.37567  0.60366  Biso   1.000  H
  C398     1.0000 0.87664  0.40956  0.65066  Biso   1.000  C
  O131     1.0000 0.96785  0.52116  0.61517  Biso   1.000  O
  N265     1.0000 0.90173  0.46109  0.64845  Biso   1.000  N
  C399     1.0000 0.17835  0.55110  0.86207  Biso   1.000  C
  C400     1.0000 0.15137  0.59342  0.82330  Biso   1.000  C
  H396     1.0000 0.14262  0.54637  0.77367  Biso   1.000  H
  O132     1.0000 0.24824  0.68654  0.77054  Biso   1.000  O
  N266     1.0000 0.17935  0.64229  0.80832  Biso   1.000  N
  O133     1.0000 0.89145  0.33780  0.72370  Biso   1.000  O
  N267     1.0000 0.87245  0.38980  0.69172  Biso   1.000  N
  H397     1.0000 0.84473  0.39518  0.63666  Biso   1.000  H
  C401     1.0000 0.87855  0.48878  0.65679  Biso   1.000  C
  O134     1.0000 0.19009  0.53478  0.89178  Biso   1.000  O
  N268     1.0000 0.16615  0.58528  0.86342  Biso   1.000  N
  H398     1.0000 0.11613  0.58108  0.82177  Biso   1.000  H
  C402     1.0000 0.17839  0.68418  0.82431  Biso   1.000  C
  C403     1.0000 0.83384  0.38202  0.71852  Biso   1.000  C
  N269     1.0000 0.87413  0.49645  0.70001  Biso   1.000  N
  H399     1.0000 0.84615  0.47217  0.64446  Biso   1.000  H
  H400     1.0000 0.89692  0.52037  0.64317  Biso   1.000  H
  C404     1.0000 0.16486  0.60873  0.90157  Biso   1.000  C
  N270     1.0000 0.13441  0.67055  0.84562  Biso   1.000  N
  H401     1.0000 0.20574  0.70186  0.84325  Biso   1.000  H
  H402     1.0000 0.18204  0.70587  0.80136  Biso   1.000  H
  N271     1.0000 0.84238  0.42376  0.74154  Biso   1.000  N
  H403     1.0000 0.82794  0.35606  0.73798  Biso   1.000  H
  H404     1.0000 0.80443  0.37097  0.70188  Biso   1.000  H
  C405     1.0000 0.83534  0.46167  0.72558  Biso   1.000  C
  C406     1.0000 0.89305  0.54224  0.71569  Biso   1.000  C
  N272     1.0000 0.12567  0.61848  0.90316  Biso   1.000  N
  H405     1.0000 0.16203  0.58796  0.92508  Biso   1.000  H
  H406     1.0000 0.19545  0.63928  0.90458  Biso   1.000  H
  C407     1.0000 0.12948  0.66288  0.89012  Biso   1.000  C
  C408     1.0000 0.09920  0.67740  0.82913  Biso   1.000  C
  C409     1.0000 0.85452  0.42986  0.78245  Biso   1.000  C
  H407     1.0000 0.80341  0.44876  0.71186  Biso   1.000  H
  C410     1.0000 0.83923  0.49125  0.76440  Biso   1.000  C
  O135     1.0000 0.92307  0.57882  0.69820  Biso   1.000  O
  N273     1.0000 0.87242  0.53988  0.75209  Biso   1.000  N
  C411     1.0000 0.07884  0.58345  0.90970  Biso   1.000  C
  C412     1.0000 0.07887  0.65470  0.89776  Biso   1.000  C
  H408     1.0000 0.15454  0.69106  0.90577  Biso   1.000  H
  O136     1.0000 0.09728  0.68934  0.79417  Biso   1.000  O
  N274     1.0000 0.06562  0.66869  0.85961  Biso   1.000  N
  O137     1.0000 0.86136  0.40271  0.80372  Biso   1.000  O
  N275     1.0000 0.85602  0.47092  0.79519  Biso   1.000  N
  H409     1.0000 0.80745  0.48738  0.77208  Biso   1.000  H
  C413     1.0000 0.88155  0.58104  0.77659  Biso   1.000  C
  O138     1.0000 0.06546  0.54124  0.91796  Biso   1.000  O
  N276     1.0000 0.05113  0.60374  0.90596  Biso   1.000  N
  H410     1.0000 0.07824  0.67407  0.92158  Biso   1.000  H
  C414     1.0000 0.02904  0.68056  0.85501  Biso   1.000  C
  C415     1.0000 0.85682  0.48153  0.83886  Biso   1.000  C
  N277     1.0000 0.91675  0.59338  0.80826  Biso   1.000  N
  H411     1.0000 0.89225  0.60898  0.75817  Biso   1.000  H
  H412     1.0000 0.85105  0.57477  0.78936  Biso   1.000  H
  C416     1.0000 0.00057  0.57871  0.91854  Biso   1.000  C
  N278     1.0000 0.98226  0.63985  0.84420  Biso   1.000  N
  H413     1.0000 0.03883  0.70537  0.83337  Biso   1.000  H
  H414     1.0000 0.02593  0.69465  0.88107  Biso   1.000  H
  N279     1.0000 0.89979  0.52417  0.85120  Biso   1.000  N
  H415     1.0000 0.82884  0.48526  0.84537  Biso   1.000  H
  H416     1.0000 0.85374  0.45406  0.85498  Biso   1.000  H
  C417     1.0000 0.90559  0.57204  0.84896  Biso   1.000  C
  C418     1.0000 0.96105  0.63476  0.80716  Biso   1.000  C
  N280     1.0000 0.96880  0.56996  0.88420  Biso   1.000  N
  H417     1.0000 0.99264  0.54777  0.93146  Biso   1.000  H
  H418     1.0000 0.99562  0.59826  0.93926  Biso   1.000  H
  C419     1.0000 0.95248  0.60378  0.87305  Biso   1.000  C
  C420     1.0000 0.93536  0.52345  0.87318  Biso   1.000  C
  H419     1.0000 0.87764  0.57298  0.86136  Biso   1.000  H
  O139     1.0000 0.97639  0.66284  0.77821  Biso   1.000  O
  H420     1.0000 0.94642  0.61805  0.89798  Biso   1.000  H
  O140     1.0000 0.93664  0.48756  0.88223  Biso   1.000  O
  O141     1.0000 0.35321  0.77164  0.56278  Biso   1.000  O
  C421     1.0000 0.31462  0.76533  0.54946  Biso   1.000  C
  N281     1.0000 0.27047  0.72628  0.55713  Biso   1.000  N
  N282     1.0000 0.30898  0.79628  0.52500  Biso   1.000  N
  C422     1.0000 0.23219  0.73133  0.53853  Biso   1.000  C
  C423     1.0000 0.26367  0.69056  0.58798  Biso   1.000  C
  C424     1.0000 0.26008  0.77537  0.51002  Biso   1.000  C
  C425     1.0000 0.35087  0.83913  0.50901  Biso   1.000  C
  N283     1.0000 0.20201  0.69365  0.51079  Biso   1.000  N
  H421     1.0000 0.21304  0.73707  0.55965  Biso   1.000  H
  N284     1.0000 0.22055  0.67439  0.61057  Biso   1.000  N
  H422     1.0000 0.29114  0.70458  0.60716  Biso   1.000  H
  H423     1.0000 0.26305  0.66288  0.57426  Biso   1.000  H
  N285     1.0000 0.25194  0.75246  0.46991  Biso   1.000  N
  H424     1.0000 0.24773  0.79825  0.51156  Biso   1.000  H
  N286     1.0000 0.33722  0.86947  0.48774  Biso   1.000  N
  H425     1.0000 0.36853  0.82948  0.49007  Biso   1.000  H
  H426     1.0000 0.37253  0.85717  0.53197  Biso   1.000  H
  C426     1.0000 0.21778  0.70612  0.47126  Biso   1.000  C
  C427     1.0000 0.16872  0.64452  0.52242  Biso   1.000  C
  C428     1.0000 0.17482  0.63275  0.59866  Biso   1.000  C
  C429     1.0000 0.21863  0.69210  0.64777  Biso   1.000  C
  C430     1.0000 0.27537  0.77720  0.43175  Biso   1.000  C
  C431     1.0000 0.32955  0.86674  0.44320  Biso   1.000  C
  C432     1.0000 0.34406  0.91153  0.50419  Biso   1.000  C
  O142     1.0000 0.20143  0.67801  0.44158  Biso   1.000  O
  N287     1.0000 0.15204  0.64147  0.56364  Biso   1.000  N
  H427     1.0000 0.18472  0.62515  0.51987  Biso   1.000  H
  H428     1.0000 0.14104  0.63096  0.50345  Biso   1.000  H
  H429     1.0000 0.17745  0.60328  0.59498  Biso   1.000  H
  C433     1.0000 0.14140  0.62777  0.63497  Biso   1.000  C
  N288     1.0000 0.17202  0.66740  0.66201  Biso   1.000  N
  O143     1.0000 0.25284  0.72506  0.66585  Biso   1.000  O
  N289     1.0000 0.28516  0.82615  0.43016  Biso   1.000  N
  H430     1.0000 0.25463  0.75927  0.40827  Biso   1.000  H
  H431     1.0000 0.30594  0.77716  0.42878  Biso   1.000  H
  C434     1.0000 0.32138  0.90917  0.43556  Biso   1.000  C
  H432     1.0000 0.35773  0.86986  0.42758  Biso   1.000  H
  N290     1.0000 0.33535  0.93642  0.47374  Biso   1.000  N
  O144     1.0000 0.35603  0.92541  0.53915  Biso   1.000  O
  C435     1.0000 0.10948  0.63921  0.57408  Biso   1.000  C
  N291     1.0000 0.10298  0.63204  0.61524  Biso   1.000  N
  H433     1.0000 0.12874  0.59618  0.64915  Biso   1.000  H
  C436     1.0000 0.15936  0.67213  0.70326  Biso   1.000  C
  C437     1.0000 0.25012  0.83795  0.42365  Biso   1.000  C
  N292     1.0000 0.27044  0.88596  0.42737  Biso   1.000  N
  H434     1.0000 0.34074  0.92918  0.41177  Biso   1.000  H
  C438     1.0000 0.34725  0.98487  0.47832  Biso   1.000  C
  O145     1.0000 0.08223  0.64254  0.54992  Biso   1.000  O
  C439     1.0000 0.05901  0.61988  0.63543  Biso   1.000  C
  N293     1.0000 0.13015  0.69576  0.70526  Biso   1.000  N
  H435     1.0000 0.14122  0.63996  0.71588  Biso   1.000  H
  H436     1.0000 0.18904  0.69106  0.71947  Biso   1.000  H
  O146     1.0000 0.20791  0.80912  0.41536  Biso   1.000  O
  C440     1.0000 0.24539  0.91146  0.41478  Biso   1.000  C
  N294     1.0000 0.30654  0.99096  0.48912  Biso   1.000  N
  H437     1.0000 0.37204  0.99986  0.49995  Biso   1.000  H
  H438     1.0000 0.36135  0.00208  0.45226  Biso   1.000  H
  N295     1.0000 0.06108  0.65850  0.65968  Biso   1.000  N
  H439     1.0000 0.03353  0.61016  0.61447  Biso   1.000  H
  H440     1.0000 0.05003  0.59198  0.65348  Biso   1.000  H
  C441     1.0000 0.07930  0.66948  0.70154  Biso   1.000  C
  C442     1.0000 0.14776  0.74073  0.71987  Biso   1.000  C
  N296     1.0000 0.23665  0.93448  0.44913  Biso   1.000  N
  H441     1.0000 0.21442  0.88847  0.40186  Biso   1.000  H
  H442     1.0000 0.26493  0.93595  0.39406  Biso   1.000  H
  C443     1.0000 0.27046  0.98465  0.46027  Biso   1.000  C
  C444     1.0000 0.30142  0.00706  0.52617  Biso   1.000  C
  C445     1.0000 0.03299  0.67858  0.65044  Biso   1.000  C
  H443     1.0000 0.06463  0.64025  0.71938  Biso   1.000  H
  C446     1.0000 0.06423  0.70666  0.71539  Biso   1.000  C
  N297     1.0000 0.11105  0.75048  0.72063  Biso   1.000  N
  O147     1.0000 0.18911  0.76809  0.73138  Biso   1.000  O
  C447     1.0000 0.19012  0.92143  0.46015  Biso   1.000  C
  C448     1.0000 0.23873  0.99982  0.48439  Biso   1.000  C
  H444     1.0000 0.28473  0.00498  0.43538  Biso   1.000  H
  N298     1.0000 0.26005  0.00997  0.52506  Biso   1.000  N
  O148     1.0000 0.32952  0.01979  0.55514  Biso   1.000  O
  O149     1.0000 0.00941  0.67044  0.61886  Biso   1.000  O
  N299     1.0000 0.03624  0.70763  0.68126  Biso   1.000  N
  H445     1.0000 0.04534  0.69676  0.74148  Biso   1.000  H
  C449     1.0000 0.11489  0.79183  0.74319  Biso   1.000  C
  O150     1.0000 0.15423  0.88424  0.45112  Biso   1.000  O
  N300     1.0000 0.19082  0.95772  0.48212  Biso   1.000  N
  H446     1.0000 0.23964  0.02865  0.47196  Biso   1.000  H
  C450     1.0000 0.24771  0.03281  0.55677  Biso   1.000  C
  C451     1.0000 0.00865  0.73133  0.68313  Biso   1.000  C
  N301     1.0000 0.10933  0.82493  0.71631  Biso   1.000  N
  H447     1.0000 0.14653  0.80908  0.75685  Biso   1.000  H
  H448     1.0000 0.08996  0.78028  0.76477  Biso   1.000  H
  C452     1.0000 0.14818  0.95804  0.49446  Biso   1.000  C
  N302     1.0000 0.20654  0.00079  0.58123  Biso   1.000  N
  H449     1.0000 0.27562  0.05006  0.57518  Biso   1.000  H
  H450     1.0000 0.24141  0.05705  0.54397  Biso   1.000  H
  N303     1.0000 0.03723  0.78290  0.67410  Biso   1.000  N
  H451     1.0000 0.98193  0.71617  0.66318  Biso   1.000  H
  H452     1.0000 0.99454  0.72696  0.71087  Biso   1.000  H
  C453     1.0000 0.06280  0.81858  0.70501  Biso   1.000  C
  C454     1.0000 0.14573  0.86972  0.70774  Biso   1.000  C
  N304     1.0000 0.13760  0.94825  0.53817  Biso   1.000  N
  H453     1.0000 0.15194  0.98978  0.48795  Biso   1.000  H
  H454     1.0000 0.12074  0.93366  0.47838  Biso   1.000  H
  C455     1.0000 0.15791  0.98533  0.56892  Biso   1.000  C
  C456     1.0000 0.20894  0.98254  0.61766  Biso   1.000  C
  C457     1.0000 0.03073  0.80234  0.63865  Biso   1.000  C
  H455     1.0000 0.04233  0.81367  0.72966  Biso   1.000  H
  C458     1.0000 0.07623  0.86624  0.68267  Biso   1.000  C
  N305     1.0000 0.12778  0.89271  0.68488  Biso   1.000  N
  O151     1.0000 0.18783  0.88665  0.71815  Biso   1.000  O
  C459     1.0000 0.09654  0.90866  0.55090  Biso   1.000  C
  C460     1.0000 0.12834  0.95966  0.60778  Biso   1.000  C
  H456     1.0000 0.15403  0.01327  0.56128  Biso   1.000  H
  N306     1.0000 0.16313  0.95564  0.63334  Biso   1.000  N
  O152     1.0000 0.24546  0.98906  0.63512  Biso   1.000  O
  O153     1.0000 0.00446  0.77967  0.60965  Biso   1.000  O
  N307     1.0000 0.05649  0.85068  0.64163  Biso   1.000  N
  H457     1.0000 0.06183  0.88378  0.69666  Biso   1.000  H
  C461     1.0000 0.15544  0.94356  0.67653  Biso   1.000  C
  O154     1.0000 0.06937  0.87470  0.52960  Biso   1.000  O
  N308     1.0000 0.09044  0.91472  0.59179  Biso   1.000  N
  H458     1.0000 0.11542  0.97866  0.62147  Biso   1.000  H
  C462     1.0000 0.04866  0.88148  0.61484  Biso   1.000  C
  H459     1.0000 0.13885  0.95937  0.68887  Biso   1.000  H
  H460     1.0000 0.18704  0.95675  0.69016  Biso   1.000  H
  H461     1.0000 0.02272  0.86147  0.59538  Biso   1.000  H
  H462     1.0000 0.03764  0.89988  0.63147  Biso   1.000  H
  O155     1.0000 0.64679  0.22836  0.43722  Biso   1.000  O
  C463     1.0000 0.68538  0.23467  0.45054  Biso   1.000  C
  N309     1.0000 0.69102  0.20372  0.47500  Biso   1.000  N
  N310     1.0000 0.72953  0.27372  0.44287  Biso   1.000  N
  C464     1.0000 0.73992  0.22463  0.48998  Biso   1.000  C
  C465     1.0000 0.64913  0.16087  0.49099  Biso   1.000  C
  C466     1.0000 0.76781  0.26867  0.46147  Biso   1.000  C
  C467     1.0000 0.73633  0.30944  0.41202  Biso   1.000  C
  N311     1.0000 0.74806  0.24754  0.53009  Biso   1.000  N
  H463     1.0000 0.75227  0.20175  0.48844  Biso   1.000  H
  N312     1.0000 0.66278  0.13053  0.51226  Biso   1.000  N
  H464     1.0000 0.63147  0.17052  0.50993  Biso   1.000  H
  H465     1.0000 0.62747  0.14283  0.46803  Biso   1.000  H
  N313     1.0000 0.79799  0.30635  0.48921  Biso   1.000  N
  H466     1.0000 0.78696  0.26293  0.44035  Biso   1.000  H
  N314     1.0000 0.77945  0.32561  0.38943  Biso   1.000  N
  H467     1.0000 0.70886  0.29542  0.39284  Biso   1.000  H
  H468     1.0000 0.73695  0.33712  0.42574  Biso   1.000  H
  C468     1.0000 0.78223  0.29391  0.52874  Biso   1.000  C
  C469     1.0000 0.72463  0.22280  0.56825  Biso   1.000  C
  C470     1.0000 0.67045  0.13326  0.55680  Biso   1.000  C
  C471     1.0000 0.65594  0.08847  0.49581  Biso   1.000  C
  C472     1.0000 0.83128  0.35548  0.47758  Biso   1.000  C
  C473     1.0000 0.82518  0.36724  0.40134  Biso   1.000  C
  C474     1.0000 0.78137  0.30790  0.35223  Biso   1.000  C
  O156     1.0000 0.79857  0.32199  0.55842  Biso   1.000  O
  N315     1.0000 0.71484  0.17385  0.56984  Biso   1.000  N
  H469     1.0000 0.74536  0.24073  0.59173  Biso   1.000  H
  H470     1.0000 0.69406  0.22284  0.57122  Biso   1.000  H
  C475     1.0000 0.67862  0.09083  0.56444  Biso   1.000  C
  H471     1.0000 0.64227  0.13014  0.57242  Biso   1.000  H
  O157     1.0000 0.64397  0.07459  0.46085  Biso   1.000  O
  N316     1.0000 0.66465  0.06358  0.52626  Biso   1.000  N
  N317     1.0000 0.84796  0.35853  0.43636  Biso   1.000  N
  H472     1.0000 0.81528  0.37485  0.48013  Biso   1.000  H
  H473     1.0000 0.85896  0.36904  0.49655  Biso   1.000  H
  H474     1.0000 0.82255  0.39672  0.40502  Biso   1.000  H
  C476     1.0000 0.85860  0.37223  0.36503  Biso   1.000  C
  O158     1.0000 0.74716  0.27494  0.33415  Biso   1.000  O
  N318     1.0000 0.82798  0.33260  0.33799  Biso   1.000  N
  C477     1.0000 0.74988  0.16205  0.57635  Biso   1.000  C
  N319     1.0000 0.72956  0.11404  0.57263  Biso   1.000  N
  H475     1.0000 0.65926  0.07082  0.58823  Biso   1.000  H
  C478     1.0000 0.65275  0.01513  0.52168  Biso   1.000  C
  C479     1.0000 0.89052  0.36079  0.42592  Biso   1.000  C
  N320     1.0000 0.89702  0.36796  0.38476  Biso   1.000  N
  H476     1.0000 0.87126  0.40382  0.35085  Biso   1.000  H
  C480     1.0000 0.84064  0.32787  0.29674  Biso   1.000  C
  O159     1.0000 0.79209  0.19088  0.58464  Biso   1.000  O
  C481     1.0000 0.75461  0.08854  0.58522  Biso   1.000  C
  N321     1.0000 0.69346  0.00904  0.51088  Biso   1.000  N
  H477     1.0000 0.62796  0.00014  0.50005  Biso   1.000  H
  H478     1.0000 0.63865  0.99792  0.54774  Biso   1.000  H
  O160     1.0000 0.91776  0.35746  0.45008  Biso   1.000  O
  C482     1.0000 0.94099  0.38012  0.36457  Biso   1.000  C
  N322     1.0000 0.86985  0.30424  0.29474  Biso   1.000  N
  H479     1.0000 0.85878  0.36004  0.28412  Biso   1.000  H
  H480     1.0000 0.81096  0.30894  0.28053  Biso   1.000  H
  N323     1.0000 0.76335  0.06552  0.55087  Biso   1.000  N
  H481     1.0000 0.78558  0.11153  0.59814  Biso   1.000  H
  H482     1.0000 0.73507  0.06405  0.60594  Biso   1.000  H
  C483     1.0000 0.72954  0.01535  0.53973  Biso   1.000  C
  C484     1.0000 0.69858  0.99294  0.47383  Biso   1.000  C
  N324     1.0000 0.93892  0.34150  0.34032  Biso   1.000  N
  H483     1.0000 0.96647  0.38984  0.38553  Biso   1.000  H
  H484     1.0000 0.94997  0.40802  0.34652  Biso   1.000  H
  C485     1.0000 0.92070  0.33052  0.29846  Biso   1.000  C
  C486     1.0000 0.85224  0.25927  0.28013  Biso   1.000  C
  C487     1.0000 0.80987  0.07857  0.53985  Biso   1.000  C
  C488     1.0000 0.76127  0.00018  0.51561  Biso   1.000  C
  H485     1.0000 0.71527  0.99502  0.56462  Biso   1.000  H
  O161     1.0000 0.67048  0.98021  0.44486  Biso   1.000  O
  N325     1.0000 0.73995  0.99003  0.47494  Biso   1.000  N
  C489     1.0000 0.96701  0.32142  0.34956  Biso   1.000  C
  H486     1.0000 0.93537  0.35975  0.28062  Biso   1.000  H
  C490     1.0000 0.93577  0.29334  0.28461  Biso   1.000  C
  O162     1.0000 0.81089  0.23191  0.26862  Biso   1.000  O
  N326     1.0000 0.88895  0.24952  0.27937  Biso   1.000  N
  O163     1.0000 0.84577  0.11576  0.54888  Biso   1.000  O
  N327     1.0000 0.80918  0.04228  0.51788  Biso   1.000  N
  H487     1.0000 0.76036  0.97135  0.52804  Biso   1.000  H
  C491     1.0000 0.75229  0.96719  0.44323  Biso   1.000  C
  O164     1.0000 0.99059  0.32956  0.38114  Biso   1.000  O
  N328     1.0000 0.96376  0.29237  0.31874  Biso   1.000  N
  H488     1.0000 0.95466  0.30323  0.25852  Biso   1.000  H
  C492     1.0000 0.88511  0.20817  0.25681  Biso   1.000  C
  C493     1.0000 0.85182  0.04196  0.50554  Biso   1.000  C
  N329     1.0000 0.79346  0.99921  0.41877  Biso   1.000  N
  H489     1.0000 0.72438  0.94994  0.42482  Biso   1.000  H
  H490     1.0000 0.75858  0.94295  0.45603  Biso   1.000  H
  C494     1.0000 0.99135  0.26867  0.31687  Biso   1.000  C
  N330     1.0000 0.89067  0.17507  0.28369  Biso   1.000  N
  H491     1.0000 0.85347  0.19092  0.24315  Biso   1.000  H
  H492     1.0000 0.91004  0.21972  0.23523  Biso   1.000  H
  N331     1.0000 0.86239  0.05175  0.46183  Biso   1.000  N
  H493     1.0000 0.84806  0.01022  0.51205  Biso   1.000  H
  H494     1.0000 0.87926  0.06634  0.52162  Biso   1.000  H
  C495     1.0000 0.84208  0.01467  0.43108  Biso   1.000  C
  C496     1.0000 0.79106  0.01746  0.38234  Biso   1.000  C
  N332     1.0000 0.96277  0.21710  0.32590  Biso   1.000  N
  H495     1.0000 0.01807  0.28383  0.33682  Biso   1.000  H
  H496     1.0000 0.00546  0.27304  0.28913  Biso   1.000  H
  C497     1.0000 0.93720  0.18142  0.29499  Biso   1.000  C
  C498     1.0000 0.85427  0.13028  0.29226  Biso   1.000  C
  C499     1.0000 0.90346  0.09134  0.44910  Biso   1.000  C
  C500     1.0000 0.87166  0.04034  0.39222  Biso   1.000  C
  H497     1.0000 0.84597  0.98673  0.43872  Biso   1.000  H
  O165     1.0000 0.75454  0.01094  0.36488  Biso   1.000  O
  N333     1.0000 0.83687  0.04436  0.36666  Biso   1.000  N
  C501     1.0000 0.96927  0.19766  0.36135  Biso   1.000  C
  H498     1.0000 0.95767  0.18633  0.27034  Biso   1.000  H
  C502     1.0000 0.92377  0.13376  0.31733  Biso   1.000  C
  O166     1.0000 0.81217  0.11335  0.28185  Biso   1.000  O
  N334     1.0000 0.87222  0.10729  0.31512  Biso   1.000  N
  O167     1.0000 0.93063  0.12530  0.47040  Biso   1.000  O
  N335     1.0000 0.90956  0.08528  0.40821  Biso   1.000  N
  H499     1.0000 0.88458  0.02134  0.37853  Biso   1.000  H
  C503     1.0000 0.84456  0.05644  0.32347  Biso   1.000  C
  O168     1.0000 0.99554  0.22033  0.39035  Biso   1.000  O
  N336     1.0000 0.94351  0.14932  0.35837  Biso   1.000  N
  H500     1.0000 0.93817  0.11622  0.30334  Biso   1.000  H
  C504     1.0000 0.95134  0.11852  0.38516  Biso   1.000  C
  H501     1.0000 0.86115  0.04063  0.31113  Biso   1.000  H
  H502     1.0000 0.81296  0.04325  0.30984  Biso   1.000  H
  H503     1.0000 0.97728  0.13853  0.40462  Biso   1.000  H
  H504     1.0000 0.96236  0.10012  0.36853  Biso   1.000  H
  O169     1.0000 0.43831  0.75177  0.77054  Biso   1.000  O
  C505     1.0000 0.43202  0.78405  0.78386  Biso   1.000  C
  N337     1.0000 0.39296  0.78914  0.77619  Biso   1.000  N
  N338     1.0000 0.46294  0.82066  0.80832  Biso   1.000  N
  C506     1.0000 0.35723  0.76024  0.74534  Biso   1.000  C
  C507     1.0000 0.39802  0.83250  0.79479  Biso   1.000  C
  C508     1.0000 0.44205  0.84863  0.82330  Biso   1.000  C
  C509     1.0000 0.50580  0.82159  0.82431  Biso   1.000  C
  N339     1.0000 0.34107  0.78717  0.72275  Biso   1.000  N
  H505     1.0000 0.37123  0.74675  0.72616  Biso   1.000  H
  H506     1.0000 0.32953  0.73316  0.75906  Biso   1.000  H
  N340     1.0000 0.36031  0.82497  0.82253  Biso   1.000  N
  H507     1.0000 0.40375  0.85738  0.77367  Biso   1.000  H
  N341     1.0000 0.41912  0.83382  0.86342  Biso   1.000  N
  H508     1.0000 0.46495  0.88388  0.82177  Biso   1.000  H
  N342     1.0000 0.53613  0.86556  0.84562  Biso   1.000  N
  H509     1.0000 0.49614  0.79427  0.84325  Biso   1.000  H
  H510     1.0000 0.52383  0.81797  0.80136  Biso   1.000  H
  C510     1.0000 0.35876  0.80678  0.68558  Biso   1.000  C
  C511     1.0000 0.29942  0.79126  0.73469  Biso   1.000  C
  C512     1.0000 0.31117  0.80912  0.81090  Biso   1.000  C
  C513     1.0000 0.37279  0.82167  0.86207  Biso   1.000  C
  C514     1.0000 0.44388  0.83515  0.90157  Biso   1.000  C
  C515     1.0000 0.53339  0.87051  0.89012  Biso   1.000  C
  C516     1.0000 0.57820  0.90081  0.82913  Biso   1.000  C
  O170     1.0000 0.39173  0.80556  0.66747  Biso   1.000  O
  N343     1.0000 0.33405  0.82873  0.67131  Biso   1.000  N
  C517     1.0000 0.29446  0.81973  0.69835  Biso   1.000  C
  N344     1.0000 0.30813  0.82278  0.76968  Biso   1.000  N
  H511     1.0000 0.26992  0.75916  0.73838  Biso   1.000  H
  H512     1.0000 0.29182  0.77376  0.81348  Biso   1.000  H
  H513     1.0000 0.29763  0.82328  0.82987  Biso   1.000  H
  O171     1.0000 0.34467  0.80990  0.89178  Biso   1.000  O
  N345     1.0000 0.49281  0.87431  0.90316  Biso   1.000  N
  H514     1.0000 0.42595  0.83798  0.92508  Biso   1.000  H
  H515     1.0000 0.44383  0.80456  0.90458  Biso   1.000  H
  C518     1.0000 0.57585  0.92114  0.89776  Biso   1.000  C
  H516     1.0000 0.53653  0.84548  0.90577  Biso   1.000  H
  O172     1.0000 0.59207  0.90271  0.79417  Biso   1.000  O
  N346     1.0000 0.60309  0.93438  0.85961  Biso   1.000  N
  C519     1.0000 0.33881  0.84612  0.63009  Biso   1.000  C
  N347     1.0000 0.29872  0.86240  0.71812  Biso   1.000  N
  H517     1.0000 0.26283  0.80076  0.68417  Biso   1.000  H
  C520     1.0000 0.30587  0.86305  0.75925  Biso   1.000  C
  C521     1.0000 0.50460  0.92118  0.90970  Biso   1.000  C
  N348     1.0000 0.55260  0.94886  0.90596  Biso   1.000  N
  H518     1.0000 0.59581  0.92175  0.92158  Biso   1.000  H
  C522     1.0000 0.65153  0.97095  0.85501  Biso   1.000  C
  N349     1.0000 0.36242  0.89895  0.62810  Biso   1.000  N
  H519     1.0000 0.30662  0.83207  0.61748  Biso   1.000  H
  H520     1.0000 0.35774  0.83536  0.61385  Biso   1.000  H
  C523     1.0000 0.28655  0.89421  0.69792  Biso   1.000  C
  O173     1.0000 0.30921  0.89364  0.78343  Biso   1.000  O
  O174     1.0000 0.47582  0.93455  0.91796  Biso   1.000  O
  C524     1.0000 0.57816  0.99943  0.91854  Biso   1.000  C
  H521     1.0000 0.66654  0.96116  0.83337  Biso   1.000  H
  H522     1.0000 0.66874  0.97407  0.88107  Biso   1.000  H
  N350     1.0000 0.65760  0.01775  0.84420  Biso   1.000  N
  C525     1.0000 0.33613  0.92351  0.63181  Biso   1.000  C
  C526     1.0000 0.40739  0.92627  0.61346  Biso   1.000  C
  N351     1.0000 0.32516  0.93075  0.67364  Biso   1.000  N
  H523     1.0000 0.27684  0.90995  0.71885  Biso   1.000  H
  H524     1.0000 0.25863  0.87528  0.67987  Biso   1.000  H
  N352     1.0000 0.60116  0.03120  0.88420  Biso   1.000  N
  H525     1.0000 0.55513  0.00735  0.93146  Biso   1.000  H
  H526     1.0000 0.60262  0.00437  0.93926  Biso   1.000  H
  C527     1.0000 0.65130  0.04751  0.87305  Biso   1.000  C
  C528     1.0000 0.67370  0.03894  0.80716  Biso   1.000  C
  H527     1.0000 0.30693  0.90895  0.61398  Biso   1.000  H
  C529     1.0000 0.37334  0.97576  0.61794  Biso   1.000  C
  O175     1.0000 0.43476  0.91232  0.60195  Biso   1.000  O
  N353     1.0000 0.41715  0.97275  0.61269  Biso   1.000  N
  C530     1.0000 0.34523  0.97891  0.68288  Biso   1.000  C
  C531     1.0000 0.58809  0.06462  0.87318  Biso   1.000  C
  C532     1.0000 0.66646  0.09442  0.84896  Biso   1.000  C
  H528     1.0000 0.67163  0.05357  0.89798  Biso   1.000  H
  O176     1.0000 0.68646  0.02360  0.77821  Biso   1.000  O
  N354     1.0000 0.67663  0.08327  0.80826  Biso   1.000  N
  H529     1.0000 0.36344  0.98476  0.59188  Biso   1.000  H
  N355     1.0000 0.37429  0.00473  0.65210  Biso   1.000  N
  C533     1.0000 0.45850  0.01029  0.59016  Biso   1.000  C
  O177     1.0000 0.33712  0.99437  0.71447  Biso   1.000  O
  O178     1.0000 0.55091  0.06336  0.88223  Biso   1.000  O
  N356     1.0000 0.62440  0.10023  0.85120  Biso   1.000  N
  H530     1.0000 0.69534  0.12235  0.86136  Biso   1.000  H
  C534     1.0000 0.69950  0.11845  0.77659  Biso   1.000  C
  C535     1.0000 0.39801  0.05601  0.65023  Biso   1.000  C
  H531     1.0000 0.47573  0.99588  0.57647  Biso   1.000  H
  N357     1.0000 0.49162  0.04895  0.61702  Biso   1.000  N
  H532     1.0000 0.44693  0.02367  0.56855  Biso   1.000  H
  C536     1.0000 0.62470  0.14319  0.83886  Biso   1.000  C
  N358     1.0000 0.66744  0.12755  0.75209  Biso   1.000  N
  H533     1.0000 0.71674  0.10776  0.75817  Biso   1.000  H
  H534     1.0000 0.72374  0.14896  0.78936  Biso   1.000  H
  N359     1.0000 0.44956  0.07900  0.65922  Biso   1.000  N
  H535     1.0000 0.38282  0.06756  0.67018  Biso   1.000  H
  H536     1.0000 0.39363  0.06577  0.62248  Biso   1.000  H
  C537     1.0000 0.48524  0.08911  0.62831  Biso   1.000  C
  C538     1.0000 0.53635  0.05730  0.62558  Biso   1.000  C
  N360     1.0000 0.61491  0.14398  0.79519  Biso   1.000  N
  H537     1.0000 0.65642  0.17116  0.84537  Biso   1.000  H
  H538     1.0000 0.60034  0.14627  0.85498  Biso   1.000  H
  C539     1.0000 0.64918  0.10693  0.71569  Biso   1.000  C
  C540     1.0000 0.65203  0.16076  0.76440  Biso   1.000  C
  C541     1.0000 0.46902  0.10493  0.69470  Biso   1.000  C
  H539     1.0000 0.48035  0.10468  0.60366  Biso   1.000  H
  C542     1.0000 0.53292  0.12336  0.65066  Biso   1.000  C
  O179     1.0000 0.55332  0.03217  0.61517  Biso   1.000  O
  N361     1.0000 0.55935  0.09826  0.64845  Biso   1.000  N
  C543     1.0000 0.57535  0.14548  0.78245  Biso   1.000  C
  N362     1.0000 0.62231  0.12587  0.70001  Biso   1.000  N
  O180     1.0000 0.65573  0.07692  0.69820  Biso   1.000  O
  C544     1.0000 0.62631  0.16467  0.72558  Biso   1.000  C
  H540     1.0000 0.67995  0.19257  0.77208  Biso   1.000  H
  O181     1.0000 0.44635  0.10855  0.72370  Biso   1.000  O
  N363     1.0000 0.51735  0.12755  0.69172  Biso   1.000  N
  H541     1.0000 0.55043  0.15527  0.63666  Biso   1.000  H
  C545     1.0000 0.61023  0.12146  0.65679  Biso   1.000  C
  N364     1.0000 0.58138  0.15761  0.74154  Biso   1.000  N
  O182     1.0000 0.54139  0.13867  0.80372  Biso   1.000  O
  H542     1.0000 0.64532  0.19655  0.71186  Biso   1.000  H
  C546     1.0000 0.54816  0.16614  0.71852  Biso   1.000  C
  H543     1.0000 0.62604  0.15388  0.64446  Biso   1.000  H
  H544     1.0000 0.62343  0.10306  0.64317  Biso   1.000  H
  H545     1.0000 0.52814  0.17206  0.73798  Biso   1.000  H
  H546     1.0000 0.56655  0.19558  0.70188  Biso   1.000  H
  O183     1.0000 0.56169  0.24822  0.22946  Biso   1.000  O
  C547     1.0000 0.56798  0.21595  0.21614  Biso   1.000  C
  N365     1.0000 0.53706  0.17934  0.19168  Biso   1.000  N
  N366     1.0000 0.60704  0.21086  0.22381  Biso   1.000  N
  C548     1.0000 0.49420  0.17840  0.17569  Biso   1.000  C
  C549     1.0000 0.55795  0.15137  0.17670  Biso   1.000  C
  C550     1.0000 0.60198  0.16750  0.20521  Biso   1.000  C
  C551     1.0000 0.64277  0.23976  0.25466  Biso   1.000  C
  N367     1.0000 0.46387  0.13444  0.15438  Biso   1.000  N
  H547     1.0000 0.50386  0.20573  0.15675  Biso   1.000  H
  H548     1.0000 0.47617  0.18203  0.19864  Biso   1.000  H
  N368     1.0000 0.58088  0.16618  0.13658  Biso   1.000  N
  H549     1.0000 0.53505  0.11612  0.17823  Biso   1.000  H
  N369     1.0000 0.63969  0.17503  0.17747  Biso   1.000  N
  H550     1.0000 0.59625  0.14262  0.22633  Biso   1.000  H
  N370     1.0000 0.65893  0.21283  0.27725  Biso   1.000  N
  H551     1.0000 0.62877  0.25325  0.27384  Biso   1.000  H
  H552     1.0000 0.67047  0.26684  0.24094  Biso   1.000  H
  C552     1.0000 0.42180  0.09919  0.17087  Biso   1.000  C
  C553     1.0000 0.46661  0.12949  0.10988  Biso   1.000  C
  C554     1.0000 0.55612  0.16485  0.09843  Biso   1.000  C
  C555     1.0000 0.62721  0.17833  0.13793  Biso   1.000  C
  C556     1.0000 0.68883  0.19088  0.18910  Biso   1.000  C
  C557     1.0000 0.70058  0.20874  0.26531  Biso   1.000  C
  C558     1.0000 0.64123  0.19322  0.31442  Biso   1.000  C
  O184     1.0000 0.40793  0.09729  0.20583  Biso   1.000  O
  N371     1.0000 0.39691  0.06562  0.14039  Biso   1.000  N
  C559     1.0000 0.42415  0.07886  0.10224  Biso   1.000  C
  N372     1.0000 0.50719  0.12569  0.09684  Biso   1.000  N
  H553     1.0000 0.46347  0.15452  0.09423  Biso   1.000  H
  H554     1.0000 0.57405  0.16202  0.07492  Biso   1.000  H
  H555     1.0000 0.55617  0.19544  0.09542  Biso   1.000  H
  O185     1.0000 0.65533  0.19010  0.10822  Biso   1.000  O
  N373     1.0000 0.69187  0.17722  0.23032  Biso   1.000  N
  H556     1.0000 0.70818  0.22624  0.18652  Biso   1.000  H
  H557     1.0000 0.70237  0.17672  0.17013  Biso   1.000  H
  H558     1.0000 0.73008  0.24084  0.26162  Biso   1.000  H
  C560     1.0000 0.70554  0.18027  0.30165  Biso   1.000  C
  O186     1.0000 0.60827  0.19443  0.33253  Biso   1.000  O
  N374     1.0000 0.66594  0.17127  0.32869  Biso   1.000  N
  C561     1.0000 0.34847  0.02905  0.14499  Biso   1.000  C
  N375     1.0000 0.44740  0.05114  0.09404  Biso   1.000  N
  H559     1.0000 0.40419  0.07825  0.07842  Biso   1.000  H
  C562     1.0000 0.49540  0.07882  0.09030  Biso   1.000  C
  C563     1.0000 0.69413  0.13695  0.24075  Biso   1.000  C
  N376     1.0000 0.70128  0.13760  0.28188  Biso   1.000  N
  H560     1.0000 0.73717  0.19924  0.31583  Biso   1.000  H
  C564     1.0000 0.66119  0.15388  0.36991  Biso   1.000  C
  H561     1.0000 0.33346  0.03884  0.16663  Biso   1.000  H
  H562     1.0000 0.33126  0.02593  0.11893  Biso   1.000  H
  N377     1.0000 0.34240  0.98225  0.15580  Biso   1.000  N
  C565     1.0000 0.42184  0.00057  0.08146  Biso   1.000  C
  O187     1.0000 0.52420  0.06548  0.08204  Biso   1.000  O
  O188     1.0000 0.69079  0.10636  0.21657  Biso   1.000  O
  C566     1.0000 0.71345  0.10579  0.30208  Biso   1.000  C
  N378     1.0000 0.63758  0.10105  0.37190  Biso   1.000  N
  H563     1.0000 0.69338  0.16793  0.38252  Biso   1.000  H
  H564     1.0000 0.64226  0.16463  0.38615  Biso   1.000  H
  C567     1.0000 0.34870  0.95249  0.12695  Biso   1.000  C
  C568     1.0000 0.32630  0.96106  0.19284  Biso   1.000  C
  N379     1.0000 0.39884  0.96880  0.11580  Biso   1.000  N
  H565     1.0000 0.44486  0.99265  0.06854  Biso   1.000  H
  H566     1.0000 0.39738  0.99563  0.06074  Biso   1.000  H
  N380     1.0000 0.67484  0.06925  0.32636  Biso   1.000  N
  H567     1.0000 0.72316  0.09005  0.28115  Biso   1.000  H
  H568     1.0000 0.74137  0.12472  0.32013  Biso   1.000  H
  C569     1.0000 0.66387  0.07649  0.36819  Biso   1.000  C
  C570     1.0000 0.59261  0.07373  0.38654  Biso   1.000  C
  C571     1.0000 0.33354  0.90558  0.15104  Biso   1.000  C
  H569     1.0000 0.32837  0.94642  0.10202  Biso   1.000  H
  O189     1.0000 0.31354  0.97640  0.22179  Biso   1.000  O
  N381     1.0000 0.32337  0.91673  0.19174  Biso   1.000  N
  C572     1.0000 0.41191  0.93538  0.12682  Biso   1.000  C
  C573     1.0000 0.65477  0.02109  0.31712  Biso   1.000  C
  H570     1.0000 0.69307  0.09105  0.38602  Biso   1.000  H
  C574     1.0000 0.62665  0.02424  0.38206  Biso   1.000  C
  O190     1.0000 0.56524  0.08768  0.39805  Biso   1.000  O
  N382     1.0000 0.58285  0.02725  0.38731  Biso   1.000  N
  N383     1.0000 0.37560  0.89977  0.14880  Biso   1.000  N
  H571     1.0000 0.30466  0.87764  0.13864  Biso   1.000  H
  C575     1.0000 0.30050  0.88155  0.22341  Biso   1.000  C
  O191     1.0000 0.44909  0.93663  0.11777  Biso   1.000  O
  O192     1.0000 0.66288  0.00563  0.28553  Biso   1.000  O
  N384     1.0000 0.62571  0.99527  0.34790  Biso   1.000  N
  H572     1.0000 0.63656  0.01524  0.40812  Biso   1.000  H
  C576     1.0000 0.54150  0.98971  0.40984  Biso   1.000  C
  C577     1.0000 0.37530  0.85681  0.16114  Biso   1.000  C
  N385     1.0000 0.33256  0.87245  0.24791  Biso   1.000  N
  H573     1.0000 0.28326  0.89224  0.24183  Biso   1.000  H
  H574     1.0000 0.27626  0.85104  0.21064  Biso   1.000  H
  C578     1.0000 0.60199  0.94399  0.34977  Biso   1.000  C
  N386     1.0000 0.50838  0.95105  0.38298  Biso   1.000  N
  H575     1.0000 0.52427  0.00412  0.42353  Biso   1.000  H
  H576     1.0000 0.55307  0.97633  0.43145  Biso   1.000  H
  N387     1.0000 0.38509  0.85602  0.20481  Biso   1.000  N
  H577     1.0000 0.34358  0.82884  0.15463  Biso   1.000  H
  H578     1.0000 0.39966  0.85373  0.14502  Biso   1.000  H
  C579     1.0000 0.34797  0.83924  0.23560  Biso   1.000  C
  C580     1.0000 0.35082  0.89306  0.28431  Biso   1.000  C
  N388     1.0000 0.55044  0.92100  0.34078  Biso   1.000  N
  H579     1.0000 0.61718  0.93244  0.32982  Biso   1.000  H
  H580     1.0000 0.60637  0.93423  0.37752  Biso   1.000  H
  C581     1.0000 0.46365  0.94270  0.37442  Biso   1.000  C
  C582     1.0000 0.51476  0.91089  0.37169  Biso   1.000  C
  C583     1.0000 0.42467  0.85455  0.21755  Biso   1.000  C
  C584     1.0000 0.37369  0.83533  0.27442  Biso   1.000  C
  H581     1.0000 0.32005  0.80743  0.22792  Biso   1.000  H
  O193     1.0000 0.34427  0.92308  0.30180  Biso   1.000  O
  N389     1.0000 0.37769  0.87413  0.29999  Biso   1.000  N
  C585     1.0000 0.53098  0.89507  0.30530  Biso   1.000  C
  N390     1.0000 0.44065  0.90174  0.35155  Biso   1.000  N
  O194     1.0000 0.44668  0.96783  0.38483  Biso   1.000  O
  C586     1.0000 0.46708  0.87664  0.34934  Biso   1.000  C
  H582     1.0000 0.51965  0.89532  0.39634  Biso   1.000  H
  O195     1.0000 0.45861  0.86133  0.19628  Biso   1.000  O
  N391     1.0000 0.41862  0.84239  0.25846  Biso   1.000  N
  H583     1.0000 0.35468  0.80345  0.28814  Biso   1.000  H
  C587     1.0000 0.38977  0.87854  0.34321  Biso   1.000  C
  N392     1.0000 0.48267  0.87248  0.30828  Biso   1.000  N
  O196     1.0000 0.55364  0.89145  0.27630  Biso   1.000  O
  H584     1.0000 0.44957  0.84473  0.36334  Biso   1.000  H
  C588     1.0000 0.45184  0.83386  0.28148  Biso   1.000  C
  H585     1.0000 0.37396  0.84612  0.35554  Biso   1.000  H
  H586     1.0000 0.37657  0.89694  0.35683  Biso   1.000  H
  H587     1.0000 0.47186  0.82794  0.26202  Biso   1.000  H
  H588     1.0000 0.43345  0.80442  0.29812  Biso   1.000  H
  O197     1.0000 0.60330  0.82088  0.21556  Biso   1.000  O
  C589     1.0000 0.60202  0.85677  0.20650  Biso   1.000  C
  N393     1.0000 0.56645  0.85749  0.18452  Biso   1.000  N
  N394     1.0000 0.63548  0.90332  0.21755  Biso   1.000  N
  C590     1.0000 0.52348  0.81485  0.17219  Biso   1.000  C
  C591     1.0000 0.57227  0.90540  0.18228  Biso   1.000  C
  C592     1.0000 0.61914  0.93710  0.20641  Biso   1.000  C
  C593     1.0000 0.66725  0.91207  0.25190  Biso   1.000  C
  N395     1.0000 0.52270  0.80427  0.12851  Biso   1.000  N
  H589     1.0000 0.49550  0.81858  0.17869  Biso   1.000  H
  H590     1.0000 0.52040  0.78738  0.18830  Biso   1.000  H
  N396     1.0000 0.58341  0.92670  0.14159  Biso   1.000  N
  H591     1.0000 0.54430  0.90630  0.19471  Biso   1.000  H
  N397     1.0000 0.64894  0.97321  0.17756  Biso   1.000  N
  H592     1.0000 0.61310  0.95141  0.23130  Biso   1.000  H
  N398     1.0000 0.71779  0.93706  0.23928  Biso   1.000  N
  H593     1.0000 0.65930  0.88109  0.26479  Biso   1.000  H
  H594     1.0000 0.66230  0.93161  0.27261  Biso   1.000  H
  C594     1.0000 0.52120  0.76321  0.11577  Biso   1.000  C
  C595     1.0000 0.50591  0.82461  0.09776  Biso   1.000  C
  C596     1.0000 0.54823  0.91440  0.10991  Biso   1.000  C
  C597     1.0000 0.62771  0.96808  0.14051  Biso   1.000  C
  C598     1.0000 0.69571  0.01391  0.18833  Biso   1.000  C
  C599     1.0000 0.74550  0.91677  0.24303  Biso   1.000  C
  C600     1.0000 0.74555  0.98806  0.23109  Biso   1.000  C
  N399     1.0000 0.50906  0.75712  0.07489  Biso   1.000  N
  O198     1.0000 0.52802  0.73603  0.13704  Biso   1.000  O
  C601     1.0000 0.50200  0.79499  0.05890  Biso   1.000  C
  N400     1.0000 0.53908  0.87320  0.08542  Biso   1.000  N
  H595     1.0000 0.47411  0.82070  0.10540  Biso   1.000  H
  H596     1.0000 0.55891  0.94230  0.09150  Biso   1.000  H
  H597     1.0000 0.51771  0.90809  0.12271  Biso   1.000  H
  O199     1.0000 0.64307  0.99620  0.11154  Biso   1.000  O
  N401     1.0000 0.73229  0.00204  0.19293  Biso   1.000  N
  H598     1.0000 0.70550  0.03869  0.16669  Biso   1.000  H
  H599     1.0000 0.69261  0.02801  0.21439  Biso   1.000  H
  O200     1.0000 0.73214  0.87460  0.25131  Biso   1.000  O
  N402     1.0000 0.79235  0.95184  0.23649  Biso   1.000  N
  C602     1.0000 0.79616  0.99623  0.22347  Biso   1.000  C
  H600     1.0000 0.74490  0.00739  0.25490  Biso   1.000  H
  C603     1.0000 0.50050  0.71534  0.05184  Biso   1.000  C
  N403     1.0000 0.54080  0.82981  0.03333  Biso   1.000  N
  H601     1.0000 0.47009  0.78211  0.04521  Biso   1.000  H
  C604     1.0000 0.55973  0.87560  0.04902  Biso   1.000  C
  C605     1.0000 0.76586  0.01072  0.16246  Biso   1.000  C
  C606     1.0000 0.83152  0.94205  0.23489  Biso   1.000  C
  N404     1.0000 0.80108  0.00391  0.17894  Biso   1.000  N
  H602     1.0000 0.82120  0.02438  0.23910  Biso   1.000  H
  N405     1.0000 0.53911  0.72312  0.02505  Biso   1.000  N
  H603     1.0000 0.49461  0.68941  0.07130  Biso   1.000  H
  H604     1.0000 0.47109  0.70430  0.03520  Biso   1.000  H
  C607     1.0000 0.54523  0.82213  0.99015  Biso   1.000  C
  O201     1.0000 0.58974  0.91214  0.03155  Biso   1.000  O
  O202     1.0000 0.76396  0.02270  0.12753  Biso   1.000  O
  N406     1.0000 0.83283  0.91863  0.19677  Biso   1.000  N
  H605     1.0000 0.82869  0.92129  0.25840  Biso   1.000  H
  H606     1.0000 0.86211  0.97260  0.23790  Biso   1.000  H
  C608     1.0000 0.84507  0.01754  0.15767  Biso   1.000  C
  C609     1.0000 0.56175  0.69741  0.02802  Biso   1.000  C
  C610     1.0000 0.54332  0.74292  0.98398  Biso   1.000  C
  N407     1.0000 0.56839  0.79441  0.98177  Biso   1.000  N
  H607     1.0000 0.51281  0.80549  0.97781  Biso   1.000  H
  H608     1.0000 0.56358  0.85369  0.97649  Biso   1.000  H
  C611     1.0000 0.84502  0.88446  0.19542  Biso   1.000  C
  C612     1.0000 0.81804  0.92677  0.15663  Biso   1.000  C
  N408     1.0000 0.84601  0.97561  0.14168  Biso   1.000  N
  H609     1.0000 0.87242  0.03521  0.17661  Biso   1.000  H
  H610     1.0000 0.84870  0.03919  0.13471  Biso   1.000  H
  O203     1.0000 0.55811  0.67112  0.05703  Biso   1.000  O
  N409     1.0000 0.58766  0.70390  0.99254  Biso   1.000  N
  C613     1.0000 0.57756  0.72947  0.96163  Biso   1.000  C
  H611     1.0000 0.51139  0.72850  0.97001  Biso   1.000  H
  C614     1.0000 0.60936  0.81238  0.95890  Biso   1.000  C
  N410     1.0000 0.84170  0.86868  0.15586  Biso   1.000  N
  O204     1.0000 0.85675  0.86811  0.22510  Biso   1.000  O
  C615     1.0000 0.83419  0.89887  0.12811  Biso   1.000  C
  H612     1.0000 0.78279  0.91440  0.15509  Biso   1.000  H
  C616     1.0000 0.88265  0.98132  0.11718  Biso   1.000  C
  C617     1.0000 0.61064  0.67532  0.98355  Biso   1.000  C
  N411     1.0000 0.61773  0.77602  0.95034  Biso   1.000  N
  H613     1.0000 0.56201  0.70899  0.93699  Biso   1.000  H
  O205     1.0000 0.63451  0.85448  0.94850  Biso   1.000  O
  C618     1.0000 0.85755  0.83540  0.14426  Biso   1.000  C
  N412     1.0000 0.87751  0.93714  0.10954  Biso   1.000  N
  H614     1.0000 0.80929  0.87969  0.10699  Biso   1.000  H
  O206     1.0000 0.91490  0.01987  0.10389  Biso   1.000  O
  H615     1.0000 0.59912  0.64860  0.00350  Biso   1.000  H
  N413     1.0000 0.66195  0.70290  0.98542  Biso   1.000  N
  H616     1.0000 0.60091  0.66119  0.95580  Biso   1.000  H
  C619     1.0000 0.65636  0.78154  0.92348  Biso   1.000  C
  N414     1.0000 0.84391  0.81869  0.10300  Biso   1.000  N
  H617     1.0000 0.89290  0.85139  0.14680  Biso   1.000  H
  H618     1.0000 0.84342  0.80772  0.16319  Biso   1.000  H
  C620     1.0000 0.90643  0.93032  0.07870  Biso   1.000  C
  C621     1.0000 0.68775  0.69967  0.01621  Biso   1.000  C
  C622     1.0000 0.69089  0.73090  0.95129  Biso   1.000  C
  N415     1.0000 0.69393  0.77774  0.94601  Biso   1.000  N
  H619     1.0000 0.67079  0.81320  0.90979  Biso   1.000  H
  H620     1.0000 0.64300  0.75662  0.90191  Biso   1.000  H
  C623     1.0000 0.80359  0.77612  0.09260  Biso   1.000  C
  C624     1.0000 0.87541  0.84150  0.06802  Biso   1.000  C
  N416     1.0000 0.87948  0.88722  0.05611  Biso   1.000  N
  H621     1.0000 0.91989  0.95779  0.05951  Biso   1.000  H
  H622     1.0000 0.93352  0.92971  0.09239  Biso   1.000  H
  O207     1.0000 0.67229  0.67607  0.04782  Biso   1.000  O
  N417     1.0000 0.73592  0.72775  0.00700  Biso   1.000  N
  C625     1.0000 0.74314  0.74597  0.96513  Biso   1.000  C
  H623     1.0000 0.68190  0.71201  0.92520  Biso   1.000  H
  C626     1.0000 0.74038  0.81442  0.94678  Biso   1.000  C
  N418     1.0000 0.80426  0.76963  0.05144  Biso   1.000  N
  O208     1.0000 0.77302  0.74891  0.11676  Biso   1.000  O
  C627     1.0000 0.84696  0.80808  0.03167  Biso   1.000  C
  H624     1.0000 0.90749  0.84411  0.07170  Biso   1.000  H
  C628     1.0000 0.85988  0.88528  0.01891  Biso   1.000  C
  C629     1.0000 0.77246  0.72567  0.03125  Biso   1.000  C
  N419     1.0000 0.76772  0.79682  0.96142  Biso   1.000  N
  H625     1.0000 0.75770  0.73130  0.94730  Biso   1.000  H
  O209     1.0000 0.75434  0.85577  0.93527  Biso   1.000  O
  N420     1.0000 0.83793  0.83866  0.00463  Biso   1.000  N
  H626     1.0000 0.86591  0.79542  0.01749  Biso   1.000  H
  O210     1.0000 0.86111  0.91949  0.00080  Biso   1.000  O
  H627     1.0000 0.75672  0.70021  0.05221  Biso   1.000  H
  H628     1.0000 0.79140  0.71670  0.01320  Biso   1.000  H
  C630     1.0000 0.82057  0.82604  0.96341  Biso   1.000  C
  H629     1.0000 0.83460  0.80790  0.95080  Biso   1.000  H
  H630     1.0000 0.83130  0.85570  0.94721  Biso   1.000  H
  O211     1.0000 0.39670  0.17912  0.78444  Biso   1.000  O
  C631     1.0000 0.39798  0.14323  0.79350  Biso   1.000  C
  N421     1.0000 0.36452  0.09668  0.78245  Biso   1.000  N
  N422     1.0000 0.43355  0.14251  0.81548  Biso   1.000  N
  C632     1.0000 0.33275  0.08793  0.74810  Biso   1.000  C
  C633     1.0000 0.38086  0.06290  0.79359  Biso   1.000  C
  C634     1.0000 0.42773  0.09460  0.81772  Biso   1.000  C
  C635     1.0000 0.47652  0.18515  0.82781  Biso   1.000  C
  N423     1.0000 0.28221  0.06293  0.76072  Biso   1.000  N
  H631     1.0000 0.34070  0.11891  0.73521  Biso   1.000  H
  H632     1.0000 0.33770  0.06839  0.72739  Biso   1.000  H
  N424     1.0000 0.35106  0.02679  0.82244  Biso   1.000  N
  H633     1.0000 0.38690  0.04859  0.76870  Biso   1.000  H
  N425     1.0000 0.41659  0.07330  0.85841  Biso   1.000  N
  H634     1.0000 0.45570  0.09370  0.80529  Biso   1.000  H
  N426     1.0000 0.47730  0.19573  0.87149  Biso   1.000  N
  H635     1.0000 0.50450  0.18142  0.82131  Biso   1.000  H
  H636     1.0000 0.47960  0.21262  0.81170  Biso   1.000  H
  C636     1.0000 0.25450  0.08323  0.75697  Biso   1.000  C
  C637     1.0000 0.25445  0.01194  0.76891  Biso   1.000  C
  C638     1.0000 0.30429  0.98609  0.81167  Biso   1.000  C
  C639     1.0000 0.37229  0.03192  0.85949  Biso   1.000  C
  C640     1.0000 0.45177  0.08560  0.89009  Biso   1.000  C
  C641     1.0000 0.47880  0.23679  0.88423  Biso   1.000  C
  C642     1.0000 0.49409  0.17539  0.90224  Biso   1.000  C
  O212     1.0000 0.26786  0.12540  0.74869  Biso   1.000  O
  N427     1.0000 0.20765  0.04816  0.76351  Biso   1.000  N
  C643     1.0000 0.20384  0.00377  0.77653  Biso   1.000  C
  N428     1.0000 0.26770  0.99796  0.80707  Biso   1.000  N
  H637     1.0000 0.25510  0.99261  0.74510  Biso   1.000  H
  H638     1.0000 0.29450  0.96131  0.83331  Biso   1.000  H
  H639     1.0000 0.30739  0.97199  0.78561  Biso   1.000  H
  O213     1.0000 0.35693  0.00380  0.88846  Biso   1.000  O
  N429     1.0000 0.46092  0.12680  0.91458  Biso   1.000  N
  H640     1.0000 0.44109  0.05770  0.90850  Biso   1.000  H
  H641     1.0000 0.48229  0.09191  0.87729  Biso   1.000  H
  O214     1.0000 0.47198  0.26397  0.86296  Biso   1.000  O
  N430     1.0000 0.49094  0.24288  0.92511  Biso   1.000  N
  C644     1.0000 0.49800  0.20501  0.94110  Biso   1.000  C
  H642     1.0000 0.52589  0.17930  0.89460  Biso   1.000  H
  C645     1.0000 0.16848  0.05795  0.76511  Biso   1.000  C
  N431     1.0000 0.19892  0.99609  0.82106  Biso   1.000  N
  H643     1.0000 0.17880  0.97562  0.76090  Biso   1.000  H
  C646     1.0000 0.23414  0.98928  0.83754  Biso   1.000  C
  C647     1.0000 0.44027  0.12440  0.95098  Biso   1.000  C
  C648     1.0000 0.49950  0.28466  0.94816  Biso   1.000  C
  N432     1.0000 0.45920  0.17019  0.96667  Biso   1.000  N
  H644     1.0000 0.52991  0.21789  0.95479  Biso   1.000  H
  N433     1.0000 0.16717  0.08137  0.80323  Biso   1.000  N
  H645     1.0000 0.17131  0.07871  0.74160  Biso   1.000  H
  H646     1.0000 0.13789  0.02740  0.76210  Biso   1.000  H
  C649     1.0000 0.15493  0.98246  0.84233  Biso   1.000  C
  O215     1.0000 0.23604  0.97730  0.87247  Biso   1.000  O
  O216     1.0000 0.41026  0.08786  0.96845  Biso   1.000  O
  N434     1.0000 0.46089  0.27688  0.97495  Biso   1.000  N
  H647     1.0000 0.50539  0.31059  0.92870  Biso   1.000  H
  H648     1.0000 0.52891  0.29570  0.96480  Biso   1.000  H
  C650     1.0000 0.45477  0.17787  0.00985  Biso   1.000  C
  C651     1.0000 0.15498  0.11554  0.80458  Biso   1.000  C
  C652     1.0000 0.18195  0.07323  0.84337  Biso   1.000  C
  N435     1.0000 0.15399  0.02438  0.85832  Biso   1.000  N
  H649     1.0000 0.12758  0.96479  0.82339  Biso   1.000  H
  H650     1.0000 0.15130  0.96080  0.86529  Biso   1.000  H
  C653     1.0000 0.43825  0.30259  0.97198  Biso   1.000  C
  C654     1.0000 0.45668  0.25708  0.01602  Biso   1.000  C
  N436     1.0000 0.43161  0.20559  0.01823  Biso   1.000  N
  H651     1.0000 0.48719  0.19451  0.02219  Biso   1.000  H
  H652     1.0000 0.43642  0.14631  0.02351  Biso   1.000  H
  O217     1.0000 0.14325  0.13189  0.77490  Biso   1.000  O
  N437     1.0000 0.15830  0.13132  0.84414  Biso   1.000  N
  H653     1.0000 0.21721  0.08560  0.84491  Biso   1.000  H
  C655     1.0000 0.16581  0.10113  0.87189  Biso   1.000  C
  C656     1.0000 0.11735  0.01868  0.88282  Biso   1.000  C
  O218     1.0000 0.44189  0.32887  0.94297  Biso   1.000  O
  N438     1.0000 0.41233  0.29610  0.00746  Biso   1.000  N
  C657     1.0000 0.42244  0.27053  0.03837  Biso   1.000  C
  H654     1.0000 0.48861  0.27150  0.02999  Biso   1.000  H
  C658     1.0000 0.39064  0.18762  0.04110  Biso   1.000  C
  C659     1.0000 0.14245  0.16460  0.85574  Biso   1.000  C
  N439     1.0000 0.12249  0.06286  0.89046  Biso   1.000  N
  H655     1.0000 0.19071  0.12031  0.89301  Biso   1.000  H
  O219     1.0000 0.08510  0.98013  0.89611  Biso   1.000  O
  C660     1.0000 0.38936  0.32468  0.01645  Biso   1.000  C
  N440     1.0000 0.38227  0.22398  0.04966  Biso   1.000  N
  H656     1.0000 0.43802  0.29101  0.06301  Biso   1.000  H
  O220     1.0000 0.36549  0.14552  0.05150  Biso   1.000  O
  N441     1.0000 0.15609  0.18131  0.89700  Biso   1.000  N
  H657     1.0000 0.10710  0.14860  0.85320  Biso   1.000  H
  H658     1.0000 0.15658  0.19228  0.83681  Biso   1.000  H
  C661     1.0000 0.09356  0.06968  0.92130  Biso   1.000  C
  N442     1.0000 0.33805  0.29710  0.01458  Biso   1.000  N
  H659     1.0000 0.40088  0.35139  0.99650  Biso   1.000  H
  H660     1.0000 0.39909  0.33881  0.04420  Biso   1.000  H
  C662     1.0000 0.34364  0.21846  0.07652  Biso   1.000  C
  C663     1.0000 0.19641  0.22388  0.90740  Biso   1.000  C
  C664     1.0000 0.12459  0.15850  0.93198  Biso   1.000  C
  N443     1.0000 0.12052  0.11278  0.94389  Biso   1.000  N
  H661     1.0000 0.08011  0.04221  0.94049  Biso   1.000  H
  H662     1.0000 0.06648  0.07029  0.90761  Biso   1.000  H
  C665     1.0000 0.31225  0.30033  0.98379  Biso   1.000  C
  C666     1.0000 0.30911  0.26910  0.04871  Biso   1.000  C
  N444     1.0000 0.30609  0.22230  0.05399  Biso   1.000  N
  H663     1.0000 0.32921  0.18680  0.09021  Biso   1.000  H
  H664     1.0000 0.35700  0.24338  0.09809  Biso   1.000  H
  O221     1.0000 0.22698  0.25109  0.88324  Biso   1.000  O
  N445     1.0000 0.19574  0.23037  0.94856  Biso   1.000  N
  H665     1.0000 0.09251  0.15588  0.92830  Biso   1.000  H
  C667     1.0000 0.15304  0.19192  0.96833  Biso   1.000  C
  C668     1.0000 0.14012  0.11472  0.98109  Biso   1.000  C
  N446     1.0000 0.26408  0.27225  0.99300  Biso   1.000  N
  O222     1.0000 0.32771  0.32393  0.95218  Biso   1.000  O
  C669     1.0000 0.25686  0.25403  0.03487  Biso   1.000  C
  H666     1.0000 0.31810  0.28799  0.07480  Biso   1.000  H
  C670     1.0000 0.25962  0.18558  0.05322  Biso   1.000  C
  C671     1.0000 0.22754  0.27433  0.96875  Biso   1.000  C
  N447     1.0000 0.16207  0.16134  0.99537  Biso   1.000  N
  H667     1.0000 0.13409  0.20458  0.98251  Biso   1.000  H
  O223     1.0000 0.13889  0.08051  0.99920  Biso   1.000  O
  N448     1.0000 0.23228  0.20318  0.03858  Biso   1.000  N
  H668     1.0000 0.24230  0.26870  0.05270  Biso   1.000  H
  O224     1.0000 0.24566  0.14423  0.06473  Biso   1.000  O
  H669     1.0000 0.24328  0.29979  0.94779  Biso   1.000  H
  H670     1.0000 0.20860  0.28330  0.98680  Biso   1.000  H
  C672     1.0000 0.17943  0.17396  0.03659  Biso   1.000  C
  H671     1.0000 0.16540  0.19210  0.04920  Biso   1.000  H
  H672     1.0000 0.16870  0.14430  0.05279  Biso   1.000  H
  C673     1.0000 0.81484  0.29136  0.82781  Biso   1.000  C
  N449     1.0000 0.85750  0.29108  0.81548  Biso   1.000  N
  N450     1.0000 0.80427  0.28157  0.87149  Biso   1.000  N
  H673     1.0000 0.81860  0.32310  0.82131  Biso   1.000  H
  H674     1.0000 0.78742  0.26702  0.81170  Biso   1.000  H
  C674     1.0000 0.85679  0.25475  0.79350  Biso   1.000  C
  C675     1.0000 0.90539  0.33314  0.81772  Biso   1.000  C
  C676     1.0000 0.76320  0.24199  0.88423  Biso   1.000  C
  C677     1.0000 0.82459  0.31869  0.90224  Biso   1.000  C
  O225     1.0000 0.82089  0.21756  0.78444  Biso   1.000  O
  N451     1.0000 0.90333  0.26784  0.78245  Biso   1.000  N
  C678     1.0000 0.93712  0.31797  0.79359  Biso   1.000  C
  N452     1.0000 0.92671  0.34329  0.85841  Biso   1.000  N
  H675     1.0000 0.90632  0.36201  0.80529  Biso   1.000  H
  O226     1.0000 0.73603  0.20803  0.86296  Biso   1.000  O
  N453     1.0000 0.75710  0.24805  0.92511  Biso   1.000  N
  N454     1.0000 0.87320  0.33411  0.91458  Biso   1.000  N
  C679     1.0000 0.79500  0.29298  0.94110  Biso   1.000  C
  H676     1.0000 0.82069  0.34659  0.89460  Biso   1.000  H
  C680     1.0000 0.91207  0.24482  0.74810  Biso   1.000  C
  N455     1.0000 0.97320  0.32428  0.82244  Biso   1.000  N
  H677     1.0000 0.95139  0.33831  0.76870  Biso   1.000  H
  C681     1.0000 0.91439  0.36617  0.89009  Biso   1.000  C
  C682     1.0000 0.96808  0.34039  0.85949  Biso   1.000  C
  C683     1.0000 0.71534  0.21484  0.94816  Biso   1.000  C
  C684     1.0000 0.87560  0.31586  0.95098  Biso   1.000  C
  N456     1.0000 0.82981  0.28900  0.96667  Biso   1.000  N
  H678     1.0000 0.78208  0.31198  0.95479  Biso   1.000  H
  N457     1.0000 0.93710  0.21929  0.76072  Biso   1.000  N
  H679     1.0000 0.88108  0.22180  0.73521  Biso   1.000  H
  H680     1.0000 0.93161  0.26931  0.72739  Biso   1.000  H
  C685     1.0000 0.01391  0.31819  0.81167  Biso   1.000  C
  H681     1.0000 0.94228  0.38338  0.90850  Biso   1.000  H
  H682     1.0000 0.90809  0.39041  0.87729  Biso   1.000  H
  O227     1.0000 0.99619  0.35312  0.88846  Biso   1.000  O
  N458     1.0000 0.72315  0.18400  0.97495  Biso   1.000  N
  H683     1.0000 0.68938  0.19479  0.92870  Biso   1.000  H
  H684     1.0000 0.70430  0.23320  0.96480  Biso   1.000  H
  O228     1.0000 0.91212  0.32238  0.96845  Biso   1.000  O
  C686     1.0000 0.82212  0.27691  0.00985  Biso   1.000  C
  C687     1.0000 0.91678  0.17127  0.75697  Biso   1.000  C
  C688     1.0000 0.98806  0.24252  0.76891  Biso   1.000  C
  N459     1.0000 0.00201  0.26974  0.80707  Biso   1.000  N
  H685     1.0000 0.03872  0.33321  0.83331  Biso   1.000  H
  H686     1.0000 0.02801  0.33540  0.78561  Biso   1.000  H
  C689     1.0000 0.69741  0.13570  0.97198  Biso   1.000  C
  C690     1.0000 0.74290  0.19960  0.01602  Biso   1.000  C
  N460     1.0000 0.79444  0.22603  0.01823  Biso   1.000  N
  H687     1.0000 0.80551  0.29269  0.02219  Biso   1.000  H
  H688     1.0000 0.85372  0.29011  0.02351  Biso   1.000  H
  O229     1.0000 0.87459  0.14247  0.74869  Biso   1.000  O
  N461     1.0000 0.95183  0.15951  0.76351  Biso   1.000  N
  C691     1.0000 0.99621  0.20006  0.77653  Biso   1.000  C
  H689     1.0000 0.00740  0.26250  0.74510  Biso   1.000  H
  C692     1.0000 0.01072  0.24485  0.83754  Biso   1.000  C
  O230     1.0000 0.67114  0.11303  0.94297  Biso   1.000  O
  N462     1.0000 0.70389  0.11622  0.00746  Biso   1.000  N
  C693     1.0000 0.72946  0.15190  0.03837  Biso   1.000  C
  H690     1.0000 0.72849  0.21710  0.02999  Biso   1.000  H
  C694     1.0000 0.81239  0.20304  0.04110  Biso   1.000  C
  C695     1.0000 0.94205  0.11056  0.76511  Biso   1.000  C
  N463     1.0000 0.00390  0.20283  0.82106  Biso   1.000  N
  H691     1.0000 0.02439  0.20318  0.76090  Biso   1.000  H
  O231     1.0000 0.02271  0.25877  0.87247  Biso   1.000  O
  C696     1.0000 0.67531  0.06466  0.01645  Biso   1.000  C
  N464     1.0000 0.77601  0.15829  0.04966  Biso   1.000  N
  H692     1.0000 0.70899  0.14699  0.06301  Biso   1.000  H
  O232     1.0000 0.85449  0.21997  0.05150  Biso   1.000  O
  N465     1.0000 0.91860  0.08578  0.80323  Biso   1.000  N
  H693     1.0000 0.92130  0.09259  0.74160  Biso   1.000  H
  H694     1.0000 0.97260  0.11049  0.76210  Biso   1.000  H
  C697     1.0000 0.01753  0.17245  0.84233  Biso   1.000  C
  H695     1.0000 0.64859  0.04949  0.99650  Biso   1.000  H
  N466     1.0000 0.70290  0.04095  0.01458  Biso   1.000  N
  H696     1.0000 0.66121  0.06032  0.04420  Biso   1.000  H
  C698     1.0000 0.78157  0.12519  0.07652  Biso   1.000  C
  C699     1.0000 0.88444  0.03945  0.80458  Biso   1.000  C
  C700     1.0000 0.92674  0.10869  0.84337  Biso   1.000  C
  N467     1.0000 0.97564  0.12960  0.85832  Biso   1.000  N
  H697     1.0000 0.03519  0.16281  0.82339  Biso   1.000  H
  H698     1.0000 0.03919  0.19049  0.86529  Biso   1.000  H
  C701     1.0000 0.69965  0.01191  0.98379  Biso   1.000  C
  C702     1.0000 0.73091  0.04002  0.04871  Biso   1.000  C
  N468     1.0000 0.77771  0.08381  0.05399  Biso   1.000  N
  H699     1.0000 0.81319  0.14240  0.09021  Biso   1.000  H
  H700     1.0000 0.75662  0.11361  0.09809  Biso   1.000  H
  O233     1.0000 0.86811  0.01137  0.77490  Biso   1.000  O
  N469     1.0000 0.86869  0.02700  0.84414  Biso   1.000  N
  H701     1.0000 0.91441  0.13161  0.84491  Biso   1.000  H
  C703     1.0000 0.89887  0.06469  0.87189  Biso   1.000  C
  C704     1.0000 0.98130  0.09869  0.88282  Biso   1.000  C
  O234     1.0000 0.67608  0.00377  0.95218  Biso   1.000  O
  N470     1.0000 0.72774  0.99182  0.99300  Biso   1.000  N
  C705     1.0000 0.74596  0.00280  0.03487  Biso   1.000  C
  H702     1.0000 0.71200  0.03009  0.07480  Biso   1.000  H
  C706     1.0000 0.81442  0.07405  0.05322  Biso   1.000  C
  C707     1.0000 0.83538  0.97784  0.85574  Biso   1.000  C
  N471     1.0000 0.93715  0.05964  0.89046  Biso   1.000  N
  H703     1.0000 0.87970  0.07039  0.89301  Biso   1.000  H
  O235     1.0000 0.01987  0.10496  0.89611  Biso   1.000  O
  C708     1.0000 0.72567  0.95320  0.96875  Biso   1.000  C
  H704     1.0000 0.73131  0.97361  0.05270  Biso   1.000  H
  N472     1.0000 0.79681  0.02908  0.03858  Biso   1.000  N
  O236     1.0000 0.85577  0.10141  0.06473  Biso   1.000  O
  N473     1.0000 0.81870  0.97479  0.89700  Biso   1.000  N
  H705     1.0000 0.85140  0.95851  0.85320  Biso   1.000  H
  H706     1.0000 0.80770  0.96428  0.83681  Biso   1.000  H
  C709     1.0000 0.93033  0.02388  0.92130  Biso   1.000  C
  N474     1.0000 0.76965  0.96539  0.94856  Biso   1.000  N
  H707     1.0000 0.70019  0.94348  0.94779  Biso   1.000  H
  H708     1.0000 0.71669  0.92530  0.98680  Biso   1.000  H
  C710     1.0000 0.82604  0.00549  0.03659  Biso   1.000  C
  C711     1.0000 0.77614  0.97253  0.90740  Biso   1.000  C
  C712     1.0000 0.84149  0.96608  0.93198  Biso   1.000  C
  N475     1.0000 0.88723  0.00775  0.94389  Biso   1.000  N
  H709     1.0000 0.95780  0.03790  0.94049  Biso   1.000  H
  H710     1.0000 0.92971  0.99620  0.90761  Biso   1.000  H
  C713     1.0000 0.80808  0.96113  0.96833  Biso   1.000  C
  N476     1.0000 0.83868  0.00072  0.99537  Biso   1.000  N
  H711     1.0000 0.80788  0.97328  0.04920  Biso   1.000  H
  H712     1.0000 0.85570  0.02438  0.05279  Biso   1.000  H
  O237     1.0000 0.74890  0.97587  0.88324  Biso   1.000  O
  H713     1.0000 0.84411  0.93660  0.92830  Biso   1.000  H
  C714     1.0000 0.88529  0.02542  0.98109  Biso   1.000  C
  H714     1.0000 0.79540  0.92950  0.98251  Biso   1.000  H
  O238     1.0000 0.91950  0.05838  0.99920  Biso   1.000  O
  C715     1.0000 0.18516  0.70863  0.17219  Biso   1.000  C
  N477     1.0000 0.19573  0.71842  0.12851  Biso   1.000  N
  N478     1.0000 0.14252  0.70896  0.18452  Biso   1.000  N
  H715     1.0000 0.18140  0.67690  0.17869  Biso   1.000  H
  H716     1.0000 0.21258  0.73298  0.18830  Biso   1.000  H
  C716     1.0000 0.17541  0.68131  0.09776  Biso   1.000  C
  C717     1.0000 0.23680  0.75801  0.11577  Biso   1.000  C
  C718     1.0000 0.14321  0.74525  0.20650  Biso   1.000  C
  C719     1.0000 0.09461  0.66686  0.18228  Biso   1.000  C
  N479     1.0000 0.12680  0.66589  0.08542  Biso   1.000  N
  C720     1.0000 0.20500  0.70702  0.05890  Biso   1.000  C
  H717     1.0000 0.17931  0.65341  0.10540  Biso   1.000  H
  N480     1.0000 0.24290  0.75195  0.07489  Biso   1.000  N
  O239     1.0000 0.26397  0.79197  0.13704  Biso   1.000  O
  O240     1.0000 0.17911  0.78244  0.21556  Biso   1.000  O
  N481     1.0000 0.09667  0.73216  0.21755  Biso   1.000  N
  N482     1.0000 0.07329  0.65671  0.14159  Biso   1.000  N
  H718     1.0000 0.09368  0.63799  0.19471  Biso   1.000  H
  C721     1.0000 0.06288  0.68203  0.20641  Biso   1.000  C
  C722     1.0000 0.12440  0.68414  0.04902  Biso   1.000  C
  C723     1.0000 0.08561  0.63383  0.10991  Biso   1.000  C
  N483     1.0000 0.17021  0.71104  0.03333  Biso   1.000  N
  H719     1.0000 0.21792  0.68802  0.04521  Biso   1.000  H
  C724     1.0000 0.28466  0.78516  0.05184  Biso   1.000  C
  C725     1.0000 0.08793  0.75518  0.25190  Biso   1.000  C
  C726     1.0000 0.03192  0.65961  0.14051  Biso   1.000  C
  N484     1.0000 0.02680  0.67571  0.17756  Biso   1.000  N
  H720     1.0000 0.04861  0.66169  0.23130  Biso   1.000  H
  O241     1.0000 0.08788  0.67762  0.03155  Biso   1.000  O
  H721     1.0000 0.05772  0.61662  0.09150  Biso   1.000  H
  H722     1.0000 0.09191  0.60959  0.12271  Biso   1.000  H
  C727     1.0000 0.17788  0.72309  0.99015  Biso   1.000  C
  N485     1.0000 0.27685  0.81600  0.02505  Biso   1.000  N
  H723     1.0000 0.31062  0.80521  0.07130  Biso   1.000  H
  H724     1.0000 0.29570  0.76680  0.03520  Biso   1.000  H
  N486     1.0000 0.06290  0.78071  0.23928  Biso   1.000  N
  H725     1.0000 0.11892  0.77820  0.26479  Biso   1.000  H
  H726     1.0000 0.06839  0.73069  0.27261  Biso   1.000  H
  O242     1.0000 0.00381  0.64688  0.11154  Biso   1.000  O
  C728     1.0000 0.98609  0.68181  0.18833  Biso   1.000  C
  N487     1.0000 0.20556  0.77397  0.98177  Biso   1.000  N
  H727     1.0000 0.19449  0.70731  0.97781  Biso   1.000  H
  H728     1.0000 0.14628  0.70989  0.97649  Biso   1.000  H
  C729     1.0000 0.30259  0.86430  0.02802  Biso   1.000  C
  C730     1.0000 0.25709  0.80040  0.98398  Biso   1.000  C
  C731     1.0000 0.08322  0.82873  0.24303  Biso   1.000  C
  C732     1.0000 0.01194  0.75748  0.23109  Biso   1.000  C
  N488     1.0000 0.99799  0.73026  0.19293  Biso   1.000  N
  H729     1.0000 0.96128  0.66679  0.16669  Biso   1.000  H
  H730     1.0000 0.97199  0.66460  0.21439  Biso   1.000  H
  C733     1.0000 0.18761  0.79696  0.95890  Biso   1.000  C
  O243     1.0000 0.32886  0.88697  0.05703  Biso   1.000  O
  N489     1.0000 0.29611  0.88378  0.99254  Biso   1.000  N
  C734     1.0000 0.27054  0.84810  0.96163  Biso   1.000  C
  H731     1.0000 0.27151  0.78290  0.97001  Biso   1.000  H
  O244     1.0000 0.12541  0.85753  0.25131  Biso   1.000  O
  N490     1.0000 0.04817  0.84049  0.23649  Biso   1.000  N
  C735     1.0000 0.00379  0.79993  0.22347  Biso   1.000  C
  H732     1.0000 0.99260  0.73750  0.25490  Biso   1.000  H
  C736     1.0000 0.98928  0.75515  0.16246  Biso   1.000  C
  O245     1.0000 0.14551  0.78003  0.94850  Biso   1.000  O
  N491     1.0000 0.22399  0.84171  0.95034  Biso   1.000  N
  C737     1.0000 0.32469  0.93534  0.98355  Biso   1.000  C
  H733     1.0000 0.29101  0.85301  0.93699  Biso   1.000  H
  C738     1.0000 0.05795  0.88944  0.23489  Biso   1.000  C
  N492     1.0000 0.99610  0.79717  0.17894  Biso   1.000  N
  H734     1.0000 0.97561  0.79682  0.23910  Biso   1.000  H
  O246     1.0000 0.97731  0.74127  0.12753  Biso   1.000  O
  C739     1.0000 0.21843  0.87481  0.92348  Biso   1.000  C
  H735     1.0000 0.35141  0.95051  0.00350  Biso   1.000  H
  N493     1.0000 0.29710  0.95905  0.98542  Biso   1.000  N
  H736     1.0000 0.33879  0.93968  0.95580  Biso   1.000  H
  N494     1.0000 0.08140  0.91422  0.19677  Biso   1.000  N
  H737     1.0000 0.07870  0.90741  0.25840  Biso   1.000  H
  H738     1.0000 0.02740  0.88951  0.23790  Biso   1.000  H
  C740     1.0000 0.98247  0.82755  0.15767  Biso   1.000  C
  N495     1.0000 0.22229  0.91619  0.94601  Biso   1.000  N
  H739     1.0000 0.18681  0.85760  0.90979  Biso   1.000  H
  H740     1.0000 0.24338  0.88639  0.90191  Biso   1.000  H
  C741     1.0000 0.30035  0.98809  0.01621  Biso   1.000  C
  C742     1.0000 0.26909  0.95998  0.95129  Biso   1.000  C
  C743     1.0000 0.11556  0.96055  0.19542  Biso   1.000  C
  C744     1.0000 0.07326  0.89131  0.15663  Biso   1.000  C
  N496     1.0000 0.02436  0.87040  0.14168  Biso   1.000  N
  H741     1.0000 0.96481  0.83719  0.17661  Biso   1.000  H
  H742     1.0000 0.96081  0.80951  0.13471  Biso   1.000  H
  C745     1.0000 0.18558  0.92595  0.94678  Biso   1.000  C
  O247     1.0000 0.32392  0.99623  0.04782  Biso   1.000  O
  N497     1.0000 0.27226  0.00818  0.00700  Biso   1.000  N
  C746     1.0000 0.25404  0.99720  0.96513  Biso   1.000  C
  H743     1.0000 0.28800  0.96991  0.92520  Biso   1.000  H
  O248     1.0000 0.13191  0.98867  0.22510  Biso   1.000  O
  N498     1.0000 0.13131  0.97300  0.15586  Biso   1.000  N
  H744     1.0000 0.08559  0.86839  0.15509  Biso   1.000  H
  C747     1.0000 0.10113  0.93531  0.12811  Biso   1.000  C
  C748     1.0000 0.01870  0.90131  0.11718  Biso   1.000  C
  O249     1.0000 0.14423  0.89859  0.93527  Biso   1.000  O
  N499     1.0000 0.20319  0.97092  0.96142  Biso   1.000  N
  C749     1.0000 0.27433  0.04680  0.03125  Biso   1.000  C
  H745     1.0000 0.26869  0.02639  0.94730  Biso   1.000  H
  C750     1.0000 0.16462  0.02216  0.14426  Biso   1.000  C
  N500     1.0000 0.06285  0.94036  0.10954  Biso   1.000  N
  H746     1.0000 0.12030  0.92961  0.10699  Biso   1.000  H
  O250     1.0000 0.98013  0.89504  0.10389  Biso   1.000  O
  C751     1.0000 0.17396  0.99451  0.96341  Biso   1.000  C
  N501     1.0000 0.23035  0.03460  0.05144  Biso   1.000  N
  H747     1.0000 0.29981  0.05652  0.05221  Biso   1.000  H
  H748     1.0000 0.28331  0.07470  0.01320  Biso   1.000  H
  N502     1.0000 0.18130  0.02521  0.10300  Biso   1.000  N
  H749     1.0000 0.14860  0.04149  0.14680  Biso   1.000  H
  H750     1.0000 0.19230  0.03572  0.16319  Biso   1.000  H
  C752     1.0000 0.06967  0.97612  0.07870  Biso   1.000  C
  N503     1.0000 0.16132  0.99928  0.00463  Biso   1.000  N
  H751     1.0000 0.14430  0.97561  0.94721  Biso   1.000  H
  H752     1.0000 0.19212  0.02672  0.95080  Biso   1.000  H
  C753     1.0000 0.22386  0.02747  0.09260  Biso   1.000  C
  C754     1.0000 0.19195  0.03887  0.03167  Biso   1.000  C
  C755     1.0000 0.15851  0.03392  0.06802  Biso   1.000  C
  N504     1.0000 0.11277  0.99225  0.05611  Biso   1.000  N
  H753     1.0000 0.04220  0.96210  0.05951  Biso   1.000  H
  H754     1.0000 0.07029  0.00380  0.09239  Biso   1.000  H
  C756     1.0000 0.11471  0.97457  0.01891  Biso   1.000  C
  O251     1.0000 0.25110  0.02413  0.11676  Biso   1.000  O
  H755     1.0000 0.20460  0.07050  0.01749  Biso   1.000  H
  H756     1.0000 0.15589  0.06340  0.07170  Biso   1.000  H
  O252     1.0000 0.08050  0.94162  0.00080  Biso   1.000  O
  Ne1      1.0000 0.15324  0.30137  0.09155  Biso   1.000  Ne
  He1      1.0000 0.09893  0.33999  0.14915  Biso   1.000  He
  He2      1.0000 0.19772  0.25185  0.02180  Biso   1.000  He
  Ar1      1.0000 0.16085  0.32335  0.08299  Biso   1.000  Ar
  Ne2      1.0000 0.51854  0.48658  0.24178  Biso   1.000  Ne
  He3      1.0000 0.61242  0.53097  0.31146  Biso   1.000  He
  He4      1.0000 0.42984  0.43480  0.18731  Biso   1.000  He
  Ar2      1.0000 0.51103  0.49685  0.25354  Biso   1.000  Ar
  Ne3      1.0000 0.36530  0.18521  0.42489  Biso   1.000  Ne
  He5      1.0000 0.32189  0.08008  0.49166  Biso   1.000  He
  He6      1.0000 0.39956  0.24599  0.37766  Biso   1.000  He
  Ar3      1.0000 0.34345  0.17073  0.41627  Biso   1.000  Ar
  Ne4      1.0000 0.18009  0.36530  0.57511  Biso   1.000  Ne
  He7      1.0000 0.15170  0.40337  0.62648  Biso   1.000  He
  He8      1.0000 0.23142  0.32864  0.52122  Biso   1.000  He
  Ar4      1.0000 0.17280  0.34336  0.58363  Biso   1.000  Ar
  Ne5      1.0000 0.51342  0.03197  0.24178  Biso   1.000  Ne
  He9      1.0000 0.48502  0.07002  0.29315  Biso   1.000  He
  He10     1.0000 0.56475  0.99529  0.18787  Biso   1.000  He
  Ar5      1.0000 0.50610  0.01002  0.25033  Biso   1.000  Ar
  Ne6      1.0000 0.81991  0.63470  0.42489  Biso   1.000  Ne
  He11     1.0000 0.76559  0.67331  0.48247  Biso   1.000  He
  He12     1.0000 0.86439  0.58518  0.35514  Biso   1.000  He
  Ar6      1.0000 0.82749  0.65667  0.41635  Biso   1.000  Ar
  Ne7      1.0000 0.63470  0.81479  0.57511  Biso   1.000  Ne
  He13     1.0000 0.59653  0.74804  0.62668  Biso   1.000  He
  He14     1.0000 0.66750  0.89302  0.52848  Biso   1.000  He
  Ar7      1.0000 0.65680  0.83052  0.58374  Biso   1.000  Ar
  Ne8      1.0000 0.69864  0.85188  0.09155  Biso   1.000  Ne
  He15     1.0000 0.65521  0.74673  0.15832  Biso   1.000  He
  He16     1.0000 0.73290  0.91267  0.04432  Biso   1.000  He
  Ar8      1.0000 0.67654  0.83615  0.08291  Biso   1.000  Ar
  Ne9      1.0000 0.48146  0.51342  0.75822  Biso   1.000  Ne
  He17     1.0000 0.55809  0.55789  0.80365  Biso   1.000  He
  He18     1.0000 0.38870  0.46969  0.68929  Biso   1.000  He
  Ar9      1.0000 0.48901  0.50319  0.74645  Biso   1.000  Ar
  Ne10     1.0000 0.81479  0.18009  0.42489  Biso   1.000  Ne
  He19     1.0000 0.89145  0.22455  0.47029  Biso   1.000  He
  He20     1.0000 0.72204  0.13633  0.35597  Biso   1.000  He
  Ar10     1.0000 0.82942  0.17278  0.41635  Biso   1.000  Ar
  Ne11     1.0000 0.96803  0.48146  0.24178  Biso   1.000  Ne
  He21     1.0000 0.92985  0.41469  0.29336  Biso   1.000  He
  He22     1.0000 0.00083  0.55968  0.19514  Biso   1.000  He
  Ar11     1.0000 0.99013  0.49718  0.25041  Biso   1.000  Ar
  Ne12     1.0000 0.03197  0.51854  0.75822  Biso   1.000  Ne
  He23     1.0000 0.98855  0.41340  0.82501  Biso   1.000  He
  He24     1.0000 0.06625  0.57933  0.71097  Biso   1.000  He
  Ar12     1.0000 0.00988  0.50283  0.74977  Biso   1.000  Ar
  Ne13     1.0000 0.18521  0.81991  0.57511  Biso   1.000  Ne
  He25     1.0000 0.27909  0.86432  0.64478  Biso   1.000  He
  He26     1.0000 0.07871  0.75737  0.50736  Biso   1.000  He
  Ar13     1.0000 0.17062  0.82731  0.58347  Biso   1.000  Ar
  Ne14     1.0000 0.14812  0.84676  0.09155  Biso   1.000  Ne
  He27     1.0000 0.22477  0.89122  0.13696  Biso   1.000  He
  He28     1.0000 0.05538  0.80302  0.02264  Biso   1.000  He
  Ar14     1.0000 0.16282  0.83951  0.08301  Biso   1.000  Ar
  Ne15     1.0000 0.30136  0.14812  0.90845  Biso   1.000  Ne
  He29     1.0000 0.26318  0.08136  0.96002  Biso   1.000  He
  He30     1.0000 0.33417  0.22636  0.86182  Biso   1.000  He
  Ar15     1.0000 0.32346  0.16383  0.91709  Biso   1.000  Ar
  Ne16     1.0000 0.48658  0.96803  0.75822  Biso   1.000  Ne
  He31     1.0000 0.43226  0.00665  0.81582  Biso   1.000  He
  He32     1.0000 0.53108  0.91852  0.68845  Biso   1.000  He
  Ar16     1.0000 0.49414  0.98997  0.74964  Biso   1.000  Ar
  Ne17     1.0000 0.84676  0.69863  0.90845  Biso   1.000  Ne
  He33     1.0000 0.81835  0.73669  0.95982  Biso   1.000  He
  He34     1.0000 0.89808  0.66196  0.85455  Biso   1.000  He
  Ar17     1.0000 0.83947  0.67667  0.91700  Biso   1.000  Ar
  Ne18     1.0000 0.85188  0.15324  0.90845  Biso   1.000  Ne
  He35     1.0000 0.94576  0.19764  0.97811  Biso   1.000  He
  He36     1.0000 0.74536  0.09069  0.84069  Biso   1.000  He
  Ar18     1.0000 0.83723  0.16053  0.91701  Biso   1.000  Ar
