data_image0
_cell_length_a       24.68
_cell_length_b       24.68
_cell_length_c       101.978
_cell_angle_alpha    90
_cell_angle_beta     90
_cell_angle_gamma    120

_symmetry_space_group_name_H-M    "P 1"
_symmetry_int_tables_number       1

loop_
  _symmetry_equiv_pos_as_xyz
  'x, y, z'

loop_
  _atom_site_label
  _atom_site_occupancy
  _atom_site_fract_x
  _atom_site_fract_y
  _atom_site_fract_z
  _atom_site_thermal_displace_type
  _atom_site_B_iso_or_equiv
  _atom_site_type_symbol
  C1       1.0000 0.13507  0.47484  0.48554  Biso   1.000  C
  C2       1.0000 0.13553  0.41856  0.48566  Biso   1.000  C
  H1       1.0000 0.09717  0.47433  0.48554  Biso   1.000  H
  C3       1.0000 0.18971  0.53056  0.48539  Biso   1.000  C
  C4       1.0000 0.07832  0.35745  0.48645  Biso   1.000  C
  C5       1.0000 0.19336  0.42132  0.48557  Biso   1.000  C
  C6       1.0000 0.24814  0.53412  0.48538  Biso   1.000  C
  C7       1.0000 0.19684  0.59513  0.48556  Biso   1.000  C
  N1       1.0000 0.02530  0.35198  0.48824  Biso   1.000  N
  H2       1.0000 0.19477  0.38435  0.48554  Biso   1.000  H
  C8       1.0000 0.24843  0.47765  0.48547  Biso   1.000  C
  C9       1.0000 0.29726  0.60051  0.48516  Biso   1.000  C
  C10      1.0000 0.26758  0.63710  0.48531  Biso   1.000  C
  C11      1.0000 0.16472  0.60262  0.47315  Biso   1.000  C
  C12      1.0000 0.16761  0.60290  0.49849  Biso   1.000  C
  C13      1.0000 0.97146  0.28774  0.48927  Biso   1.000  C
  H3       1.0000 0.28637  0.47826  0.48544  Biso   1.000  H
  C14      1.0000 0.36294  0.63050  0.48531  Biso   1.000  C
  C15      1.0000 0.30323  0.70274  0.48516  Biso   1.000  C
  H4       1.0000 0.12076  0.57085  0.47334  Biso   1.000  H
  H5       1.0000 0.16718  0.64304  0.47353  Biso   1.000  H
  C16      1.0000 0.19170  0.59766  0.46052  Biso   1.000  C
  H6       1.0000 0.17527  0.64543  0.49893  Biso   1.000  H
  H7       1.0000 0.12266  0.57515  0.49814  Biso   1.000  H
  C17      1.0000 0.19235  0.58933  0.51093  Biso   1.000  C
  C18      1.0000 0.92051  0.28161  0.47999  Biso   1.000  C
  H8       1.0000 0.98495  0.25831  0.48654  Biso   1.000  H
  C19      1.0000 0.95173  0.27501  0.50348  Biso   1.000  C
  C20      1.0000 0.40487  0.60173  0.48556  Biso   1.000  C
  C21      1.0000 0.39951  0.69675  0.48516  Biso   1.000  C
  C22      1.0000 0.36951  0.73245  0.48531  Biso   1.000  C
  C23      1.0000 0.28598  0.75187  0.48538  Biso   1.000  C
  H9       1.0000 0.19436  0.55971  0.46083  Biso   1.000  H
  H10      1.0000 0.23419  0.63265  0.45993  Biso   1.000  H
  C24      1.0000 0.15668  0.59635  0.44747  Biso   1.000  C
  H11      1.0000 0.23726  0.61763  0.51134  Biso   1.000  H
  H12      1.0000 0.18527  0.54703  0.51043  Biso   1.000  H
  C25      1.0000 0.16315  0.59583  0.52360  Biso   1.000  C
  N2       1.0000 0.94632  0.29588  0.46662  Biso   1.000  N
  H13      1.0000 0.90846  0.31254  0.48244  Biso   1.000  H
  C26      1.0000 0.86284  0.21798  0.47997  Biso   1.000  C
  C27      1.0000 0.94309  0.31754  0.51077  Biso   1.000  C
  C28      1.0000 0.94548  0.22233  0.50980  Biso   1.000  C
  C29      1.0000 0.46944  0.65913  0.48539  Biso   1.000  C
  C30      1.0000 0.39742  0.56210  0.47315  Biso   1.000  C
  C31      1.0000 0.39711  0.56472  0.49849  Biso   1.000  C
  C32      1.0000 0.46588  0.71401  0.48538  Biso   1.000  C
  C33      1.0000 0.39829  0.80314  0.48556  Biso   1.000  C
  C34      1.0000 0.34089  0.81030  0.48539  Biso   1.000  C
  C35      1.0000 0.22924  0.75158  0.48547  Biso   1.000  C
  H14      1.0000 0.15097  0.63242  0.44723  Biso   1.000  H
  H15      1.0000 0.18206  0.59873  0.44004  Biso   1.000  H
  C36      1.0000 0.09264  0.53641  0.44655  Biso   1.000  C
  H16      1.0000 0.11958  0.56322  0.52413  Biso   1.000  H
  H17      1.0000 0.16517  0.63602  0.52383  Biso   1.000  H
  C37      1.0000 0.20274  0.58951  0.53609  Biso   1.000  C
  C38      1.0000 0.93795  0.33392  0.46003  Biso   1.000  C
  C39      1.0000 0.80534  0.21012  0.48177  Biso   1.000  C
  C40      1.0000 0.86697  0.16474  0.47771  Biso   1.000  C
  H18      1.0000 0.94605  0.35263  0.50674  Biso   1.000  H
  C41      1.0000 0.92979  0.30795  0.52416  Biso   1.000  C
  H19      1.0000 0.95104  0.19342  0.50503  Biso   1.000  H
  C42      1.0000 0.93149  0.21185  0.52293  Biso   1.000  C
  C43      1.0000 0.52519  0.66026  0.48554  Biso   1.000  C
  H20      1.0000 0.42918  0.54993  0.47334  Biso   1.000  H
  H21      1.0000 0.35697  0.52415  0.47353  Biso   1.000  H
  C44      1.0000 0.40238  0.59405  0.46052  Biso   1.000  C
  H22      1.0000 0.35458  0.52981  0.49893  Biso   1.000  H
  H23      1.0000 0.42487  0.54755  0.49814  Biso   1.000  H
  C45      1.0000 0.41068  0.60304  0.51093  Biso   1.000  C
  C46      1.0000 0.52234  0.77077  0.48547  Biso   1.000  C
  C47      1.0000 0.43790  0.83529  0.47315  Biso   1.000  C
  C48      1.0000 0.43528  0.83239  0.49849  Biso   1.000  C
  C49      1.0000 0.33974  0.86490  0.48554  Biso   1.000  C
  C50      1.0000 0.22796  0.80665  0.48557  Biso   1.000  C
  H24      1.0000 0.19187  0.71364  0.48544  Biso   1.000  H
  H25      1.0000 0.09776  0.50062  0.44773  Biso   1.000  H
  H26      1.0000 0.07468  0.53445  0.43813  Biso   1.000  H
  H27      1.0000 0.06566  0.53683  0.45324  Biso   1.000  H
  H28      1.0000 0.19957  0.54914  0.53583  Biso   1.000  H
  H29      1.0000 0.18586  0.59433  0.54414  Biso   1.000  H
  H30      1.0000 0.24597  0.62152  0.53543  Biso   1.000  H
  C51      1.0000 0.96084  0.35273  0.44629  Biso   1.000  C
  H31      1.0000 0.80119  0.24484  0.48354  Biso   1.000  H
  C52      1.0000 0.75135  0.15051  0.48110  Biso   1.000  C
  H32      1.0000 0.90596  0.16815  0.47673  Biso   1.000  H
  C53      1.0000 0.81377  0.10672  0.47694  Biso   1.000  C
  H33      1.0000 0.92456  0.33673  0.52913  Biso   1.000  H
  C54      1.0000 0.92445  0.25433  0.53003  Biso   1.000  C
  H34      1.0000 0.92685  0.17583  0.52694  Biso   1.000  H
  C55      1.0000 0.58148  0.71701  0.48566  Biso   1.000  C
  H35      1.0000 0.52568  0.62283  0.48554  Biso   1.000  H
  H36      1.0000 0.44024  0.63462  0.46083  Biso   1.000  H
  H37      1.0000 0.36738  0.60154  0.45993  Biso   1.000  H
  C56      1.0000 0.40366  0.56032  0.44747  Biso   1.000  C
  H38      1.0000 0.38239  0.61965  0.51134  Biso   1.000  H
  H39      1.0000 0.45294  0.63822  0.51043  Biso   1.000  H
  C57      1.0000 0.40417  0.56734  0.52360  Biso   1.000  C
  C58      1.0000 0.57868  0.77203  0.48557  Biso   1.000  C
  H40      1.0000 0.52178  0.80815  0.48544  Biso   1.000  H
  H41      1.0000 0.45006  0.87922  0.47334  Biso   1.000  H
  H42      1.0000 0.47587  0.83285  0.47353  Biso   1.000  H
  C59      1.0000 0.40595  0.80834  0.46052  Biso   1.000  C
  H43      1.0000 0.47018  0.82471  0.49893  Biso   1.000  H
  H44      1.0000 0.45249  0.87735  0.49814  Biso   1.000  H
  C60      1.0000 0.39697  0.80764  0.51093  Biso   1.000  C
  C61      1.0000 0.28299  0.86443  0.48566  Biso   1.000  C
  H45      1.0000 0.37719  0.90285  0.48554  Biso   1.000  H
  H46      1.0000 0.18958  0.80525  0.48554  Biso   1.000  H
  C62      1.0000 0.99858  0.33322  0.44049  Biso   1.000  C
  C63      1.0000 0.94529  0.38945  0.43945  Biso   1.000  C
  H47      1.0000 0.71207  0.14602  0.48233  Biso   1.000  H
  C64      1.0000 0.75765  0.09942  0.47861  Biso   1.000  C
  H48      1.0000 0.81764  0.07191  0.47513  Biso   1.000  H
  H49      1.0000 0.91588  0.24764  0.53893  Biso   1.000  H
  C65      1.0000 0.64255  0.72085  0.48645  Biso   1.000  C
  H50      1.0000 0.36758  0.51854  0.44723  Biso   1.000  H
  H51      1.0000 0.40127  0.58334  0.44004  Biso   1.000  H
  C66      1.0000 0.46358  0.55625  0.44655  Biso   1.000  C
  H52      1.0000 0.43676  0.55634  0.52413  Biso   1.000  H
  H53      1.0000 0.36395  0.52911  0.52383  Biso   1.000  H
  C67      1.0000 0.41047  0.61324  0.53609  Biso   1.000  C
  H54      1.0000 0.61568  0.81044  0.48554  Biso   1.000  H
  H55      1.0000 0.36537  0.80562  0.46083  Biso   1.000  H
  H56      1.0000 0.39849  0.76585  0.45993  Biso   1.000  H
  C68      1.0000 0.43966  0.84333  0.44747  Biso   1.000  C
  H57      1.0000 0.38035  0.76272  0.51134  Biso   1.000  H
  H58      1.0000 0.36179  0.81475  0.51043  Biso   1.000  H
  C69      1.0000 0.43268  0.83683  0.52360  Biso   1.000  C
  C70      1.0000 0.27917  0.92170  0.48645  Biso   1.000  C
  C71      1.0000 0.02035  0.35221  0.42776  Biso   1.000  C
  H59      1.0000 0.00947  0.30744  0.44504  Biso   1.000  H
  C72      1.0000 0.96558  0.40953  0.42679  Biso   1.000  C
  H60      1.0000 0.91937  0.40195  0.44343  Biso   1.000  H
  H61      1.0000 0.72259  0.05984  0.47813  Biso   1.000  H
  N3       1.0000 0.64804  0.67331  0.48824  Biso   1.000  N
  H62      1.0000 0.49938  0.59714  0.44773  Biso   1.000  H
  H63      1.0000 0.46559  0.54025  0.43813  Biso   1.000  H
  H64      1.0000 0.46316  0.52883  0.45324  Biso   1.000  H
  H65      1.0000 0.45086  0.65043  0.53583  Biso   1.000  H
  H66      1.0000 0.40565  0.59153  0.54414  Biso   1.000  H
  H67      1.0000 0.37846  0.62442  0.53543  Biso   1.000  H
  H68      1.0000 0.48149  0.84904  0.44723  Biso   1.000  H
  H69      1.0000 0.41666  0.81793  0.44004  Biso   1.000  H
  C73      1.0000 0.44378  0.90734  0.44655  Biso   1.000  C
  H70      1.0000 0.44366  0.88044  0.52413  Biso   1.000  H
  H71      1.0000 0.47085  0.83482  0.52383  Biso   1.000  H
  C74      1.0000 0.38679  0.79725  0.53609  Biso   1.000  C
  N4       1.0000 0.32670  0.97471  0.48824  Biso   1.000  N
  C75      1.0000 0.06147  0.33453  0.42019  Biso   1.000  C
  C76      1.0000 0.00446  0.39053  0.42093  Biso   1.000  C
  H72      1.0000 0.95376  0.43484  0.42234  Biso   1.000  H
  C77      1.0000 0.71225  0.68374  0.48927  Biso   1.000  C
  H73      1.0000 0.40286  0.90224  0.44773  Biso   1.000  H
  H74      1.0000 0.45976  0.92535  0.43813  Biso   1.000  H
  H75      1.0000 0.47118  0.93433  0.45324  Biso   1.000  H
  H76      1.0000 0.34957  0.80043  0.53583  Biso   1.000  H
  H77      1.0000 0.40849  0.81414  0.54414  Biso   1.000  H
  H78      1.0000 0.37555  0.75402  0.53543  Biso   1.000  H
  C78      1.0000 0.31628  0.02852  0.48927  Biso   1.000  C
  C79      1.0000 0.06946  0.37093  0.40731  Biso   1.000  C
  C80      1.0000 0.12237  0.35722  0.42784  Biso   1.000  C
  C81      1.0000 0.02536  0.26215  0.41810  Biso   1.000  C
  C82      1.0000 0.03566  0.40326  0.40774  Biso   1.000  C
  C83      1.0000 0.71838  0.63888  0.47999  Biso   1.000  C
  H79      1.0000 0.74169  0.72665  0.48654  Biso   1.000  H
  C84      1.0000 0.72499  0.67673  0.50348  Biso   1.000  C
  C85      1.0000 0.36111  0.07951  0.47999  Biso   1.000  C
  H80      1.0000 0.27336  0.01504  0.48654  Biso   1.000  H
  C86      1.0000 0.32328  0.04826  0.50348  Biso   1.000  C
  C87      1.0000 0.10317  0.37392  0.39613  Biso   1.000  C
  H81      1.0000 0.11208  0.33785  0.43644  Biso   1.000  H
  H82      1.0000 0.14715  0.34243  0.42334  Biso   1.000  H
  C88      1.0000 0.16225  0.42693  0.42963  Biso   1.000  C
  H83      1.0000 0.05277  0.25101  0.41343  Biso   1.000  H
  H84      1.0000 0.01696  0.24236  0.42663  Biso   1.000  H
  C89      1.0000 0.96518  0.23515  0.41081  Biso   1.000  C
  C90      1.0000 0.03267  0.43502  0.39676  Biso   1.000  C
  N5       1.0000 0.70411  0.65043  0.46662  Biso   1.000  N
  H85      1.0000 0.68747  0.59592  0.48244  Biso   1.000  H
  C91      1.0000 0.78203  0.64486  0.47997  Biso   1.000  C
  C92      1.0000 0.68246  0.62554  0.51077  Biso   1.000  C
  C93      1.0000 0.77766  0.72314  0.50980  Biso   1.000  C
  N6       1.0000 0.34957  0.05369  0.46662  Biso   1.000  N
  H86      1.0000 0.40408  0.09154  0.48244  Biso   1.000  H
  C94      1.0000 0.35515  0.13720  0.47997  Biso   1.000  C
  C95      1.0000 0.37445  0.05692  0.51077  Biso   1.000  C
  C96      1.0000 0.27686  0.05453  0.50980  Biso   1.000  C
  C97      1.0000 0.14257  0.34576  0.39272  Biso   1.000  C
  C98      1.0000 0.10249  0.40854  0.38514  Biso   1.000  C
  H87      1.0000 0.13659  0.44214  0.43353  Biso   1.000  H
  H88      1.0000 0.17495  0.44602  0.42103  Biso   1.000  H
  C99      1.0000 0.22037  0.44901  0.43796  Biso   1.000  C
  H89      1.0000 0.97337  0.25143  0.40193  Biso   1.000  H
  H90      1.0000 0.93827  0.24825  0.41503  Biso   1.000  H
  C100     1.0000 0.93167  0.16432  0.41031  Biso   1.000  C
  C101     1.0000 0.06798  0.43905  0.38539  Biso   1.000  C
  C102     1.0000 0.99786  0.47035  0.39475  Biso   1.000  C
  C103     1.0000 0.66607  0.60402  0.46003  Biso   1.000  C
  C104     1.0000 0.78987  0.59522  0.48177  Biso   1.000  C
  C105     1.0000 0.83527  0.70222  0.47771  Biso   1.000  C
  H91      1.0000 0.64737  0.59344  0.50674  Biso   1.000  H
  C106     1.0000 0.69208  0.62184  0.52416  Biso   1.000  C
  H92      1.0000 0.80657  0.75762  0.50503  Biso   1.000  H
  C107     1.0000 0.78818  0.71963  0.52293  Biso   1.000  C
  C108     1.0000 0.39596  0.06202  0.46003  Biso   1.000  C
  C109     1.0000 0.40478  0.19466  0.48177  Biso   1.000  C
  C110     1.0000 0.29776  0.13304  0.47771  Biso   1.000  C
  H93      1.0000 0.40658  0.05392  0.50674  Biso   1.000  H
  C111     1.0000 0.37816  0.07025  0.52416  Biso   1.000  C
  H94      1.0000 0.24237  0.04892  0.50503  Biso   1.000  H
  C112     1.0000 0.28037  0.06852  0.52293  Biso   1.000  C
  C113     1.0000 0.16489  0.36414  0.38006  Biso   1.000  C
  C114     1.0000 0.15858  0.30533  0.39942  Biso   1.000  C
  C115     1.0000 0.14278  0.40485  0.37407  Biso   1.000  C
  H95      1.0000 0.24316  0.42894  0.43483  Biso   1.000  H
  H96      1.0000 0.24695  0.49374  0.43673  Biso   1.000  H
  C116     1.0000 0.20846  0.43685  0.45098  Biso   1.000  C
  H97      1.0000 0.92307  0.14752  0.41913  Biso   1.000  H
  H98      1.0000 0.95808  0.15084  0.40603  Biso   1.000  H
  C117     1.0000 0.86587  0.13774  0.40219  Biso   1.000  C
  C118     1.0000 0.05614  0.47671  0.37564  Biso   1.000  C
  C119     1.0000 0.01585  0.49393  0.38076  Biso   1.000  C
  C120     1.0000 0.01886  0.52832  0.40367  Biso   1.000  C
  C121     1.0000 0.92555  0.42492  0.39529  Biso   1.000  C
  C122     1.0000 0.64726  0.60814  0.44629  Biso   1.000  C
  H99      1.0000 0.75516  0.55634  0.48354  Biso   1.000  H
  C123     1.0000 0.84949  0.60084  0.48110  Biso   1.000  C
  H100     1.0000 0.83188  0.73783  0.47673  Biso   1.000  H
  C124     1.0000 0.89327  0.70704  0.47694  Biso   1.000  C
  H101     1.0000 0.66328  0.58783  0.52913  Biso   1.000  H
  C125     1.0000 0.74568  0.67013  0.53003  Biso   1.000  C
  H102     1.0000 0.82417  0.75102  0.52694  Biso   1.000  H
  C126     1.0000 0.39185  0.03914  0.44629  Biso   1.000  C
  H103     1.0000 0.44366  0.19882  0.48354  Biso   1.000  H
  C127     1.0000 0.39916  0.24865  0.48110  Biso   1.000  C
  H104     1.0000 0.26216  0.09402  0.47673  Biso   1.000  H
  C128     1.0000 0.29296  0.18623  0.47694  Biso   1.000  C
  H105     1.0000 0.41215  0.07544  0.52913  Biso   1.000  H
  C129     1.0000 0.32987  0.07554  0.53003  Biso   1.000  C
  H106     1.0000 0.24897  0.07315  0.52694  Biso   1.000  H
  C130     1.0000 0.20357  0.34482  0.37411  Biso   1.000  C
  C131     1.0000 0.19588  0.28624  0.39350  Biso   1.000  C
  H107     1.0000 0.14366  0.29186  0.40783  Biso   1.000  H
  C132     1.0000 0.10307  0.37275  0.36176  Biso   1.000  C
  C133     1.0000 0.19945  0.46843  0.37047  Biso   1.000  C
  H108     1.0000 0.18607  0.45673  0.45414  Biso   1.000  H
  H109     1.0000 0.24718  0.45262  0.45564  Biso   1.000  H
  H110     1.0000 0.18346  0.39245  0.45233  Biso   1.000  H
  H111     1.0000 0.83836  0.14803  0.40683  Biso   1.000  H
  H112     1.0000 0.84637  0.09315  0.40133  Biso   1.000  H
  H113     1.0000 0.87426  0.15655  0.39363  Biso   1.000  H
  C134     1.0000 0.07728  0.49646  0.36276  Biso   1.000  C
  C135     1.0000 0.99607  0.52981  0.37396  Biso   1.000  C
  H114     1.0000 0.00378  0.51405  0.41253  Biso   1.000  H
  C136     1.0000 0.08865  0.57211  0.40420  Biso   1.000  C
  H115     1.0000 0.99918  0.55152  0.40054  Biso   1.000  H
  H116     1.0000 0.91466  0.40962  0.40423  Biso   1.000  H
  H117     1.0000 0.90526  0.44901  0.39344  Biso   1.000  H
  C137     1.0000 0.89958  0.37111  0.38653  Biso   1.000  C
  C138     1.0000 0.66679  0.66536  0.44049  Biso   1.000  C
  C139     1.0000 0.61057  0.55583  0.43945  Biso   1.000  C
  H118     1.0000 0.85396  0.56603  0.48233  Biso   1.000  H
  C140     1.0000 0.90056  0.65824  0.47861  Biso   1.000  C
  H119     1.0000 0.92805  0.74574  0.47513  Biso   1.000  H
  H120     1.0000 0.75234  0.66821  0.53893  Biso   1.000  H
  C141     1.0000 0.33467  0.00143  0.44049  Biso   1.000  C
  C142     1.0000 0.44417  0.05472  0.43945  Biso   1.000  C
  H121     1.0000 0.43397  0.28795  0.48233  Biso   1.000  H
  C143     1.0000 0.34175  0.24233  0.47861  Biso   1.000  C
  H122     1.0000 0.25426  0.18235  0.47513  Biso   1.000  H
  H123     1.0000 0.33178  0.08415  0.53893  Biso   1.000  H
  C144     1.0000 0.21985  0.30631  0.38074  Biso   1.000  C
  H124     1.0000 0.21835  0.35801  0.36564  Biso   1.000  H
  H125     1.0000 0.20568  0.25934  0.39793  Biso   1.000  H
  H126     1.0000 0.08878  0.39984  0.35823  Biso   1.000  H
  H127     1.0000 0.13036  0.37004  0.35523  Biso   1.000  H
  C145     1.0000 0.05029  0.31226  0.36325  Biso   1.000  C
  H128     1.0000 0.22466  0.46155  0.36414  Biso   1.000  H
  H129     1.0000 0.18447  0.49365  0.36624  Biso   1.000  H
  C146     1.0000 0.24009  0.50464  0.38153  Biso   1.000  C
  C147     1.0000 0.05697  0.53112  0.35606  Biso   1.000  C
  H130     1.0000 0.10484  0.48602  0.35883  Biso   1.000  H
  C148     1.0000 0.01576  0.54853  0.36140  Biso   1.000  C
  H131     1.0000 0.96918  0.54095  0.37793  Biso   1.000  H
  H132     1.0000 0.10434  0.58081  0.39523  Biso   1.000  H
  H133     1.0000 0.10748  0.55045  0.40853  Biso   1.000  H
  C149     1.0000 0.11115  0.63462  0.41124  Biso   1.000  C
  H134     1.0000 0.91669  0.38824  0.37793  Biso   1.000  H
  H135     1.0000 0.85524  0.35731  0.38603  Biso   1.000  H
  C150     1.0000 0.90264  0.31282  0.38751  Biso   1.000  C
  C151     1.0000 0.64775  0.66812  0.42776  Biso   1.000  C
  H136     1.0000 0.69255  0.70204  0.44504  Biso   1.000  H
  C152     1.0000 0.59045  0.55602  0.42679  Biso   1.000  C
  H137     1.0000 0.59805  0.51742  0.44343  Biso   1.000  H
  H138     1.0000 0.94016  0.66274  0.47813  Biso   1.000  H
  C153     1.0000 0.33187  0.97962  0.42776  Biso   1.000  C
  H139     1.0000 0.29798  0.99053  0.44504  Biso   1.000  H
  C154     1.0000 0.44395  0.03441  0.42679  Biso   1.000  C
  H140     1.0000 0.48258  0.08064  0.44343  Biso   1.000  H
  H141     1.0000 0.33725  0.27742  0.47813  Biso   1.000  H
  C155     1.0000 0.25677  0.28096  0.37481  Biso   1.000  C
  H142     1.0000 0.01955  0.31422  0.36883  Biso   1.000  H
  H143     1.0000 0.06264  0.28451  0.36733  Biso   1.000  H
  C156     1.0000 0.02105  0.28643  0.34953  Biso   1.000  C
  H144     1.0000 0.24968  0.47755  0.38673  Biso   1.000  H
  H145     1.0000 0.21766  0.51863  0.38713  Biso   1.000  H
  C157     1.0000 0.30236  0.56243  0.37697  Biso   1.000  C
  H146     1.0000 0.07137  0.54371  0.34754  Biso   1.000  H
  C158     1.0000 0.99697  0.58713  0.35372  Biso   1.000  C
  H147     1.0000 0.09165  0.62545  0.41984  Biso   1.000  H
  H148     1.0000 0.15585  0.65343  0.41264  Biso   1.000  H
  C159     1.0000 0.10089  0.67925  0.40550  Biso   1.000  C
  C160     1.0000 0.85756  0.26383  0.37715  Biso   1.000  C
  H149     1.0000 0.89069  0.29555  0.39623  Biso   1.000  H
  H150     1.0000 0.94526  0.32213  0.38594  Biso   1.000  H
  C161     1.0000 0.60948  0.61394  0.42093  Biso   1.000  C
  C162     1.0000 0.66545  0.72693  0.42019  Biso   1.000  C
  H151     1.0000 0.56517  0.51891  0.42234  Biso   1.000  H
  C163     1.0000 0.38606  0.99553  0.42093  Biso   1.000  C
  C164     1.0000 0.27308  0.93855  0.42019  Biso   1.000  C
  H152     1.0000 0.48107  0.04625  0.42234  Biso   1.000  H
  N7       1.0000 0.27209  0.29045  0.36261  Biso   1.000  N
  H153     1.0000 0.01286  0.31665  0.34523  Biso   1.000  H
  C165     1.0000 0.06288  0.27333  0.34087  Biso   1.000  C
  H154     1.0000 0.98127  0.24811  0.35063  Biso   1.000  H
  H155     1.0000 0.29198  0.59134  0.37274  Biso   1.000  H
  H156     1.0000 0.32658  0.58315  0.38473  Biso   1.000  H
  C166     1.0000 0.34564  0.55223  0.36751  Biso   1.000  C
  N8       1.0000 0.95648  0.59943  0.35749  Biso   1.000  N
  H157     1.0000 0.12266  0.69184  0.39733  Biso   1.000  H
  H158     1.0000 0.11575  0.71472  0.41124  Biso   1.000  H
  H159     1.0000 0.05677  0.66185  0.40404  Biso   1.000  H
  H160     1.0000 0.81519  0.25274  0.37903  Biso   1.000  H
  H161     1.0000 0.86144  0.22701  0.37753  Biso   1.000  H
  H162     1.0000 0.86844  0.28161  0.36853  Biso   1.000  H
  C167     1.0000 0.59676  0.63242  0.40774  Biso   1.000  C
  C168     1.0000 0.62905  0.69853  0.40731  Biso   1.000  C
  C169     1.0000 0.64279  0.76515  0.42784  Biso   1.000  C
  C170     1.0000 0.73786  0.76323  0.41810  Biso   1.000  C
  C171     1.0000 0.36758  0.96432  0.40774  Biso   1.000  C
  C172     1.0000 0.30146  0.93054  0.40731  Biso   1.000  C
  C173     1.0000 0.23488  0.87763  0.42784  Biso   1.000  C
  C174     1.0000 0.23674  0.97462  0.41810  Biso   1.000  C
  C175     1.0000 0.30217  0.25742  0.35718  Biso   1.000  C
  H163     1.0000 0.10145  0.31141  0.33934  Biso   1.000  H
  H164     1.0000 0.04229  0.25653  0.33263  Biso   1.000  H
  H165     1.0000 0.07128  0.24353  0.34513  Biso   1.000  H
  H166     1.0000 0.35967  0.52663  0.37174  Biso   1.000  H
  H167     1.0000 0.38118  0.59195  0.36524  Biso   1.000  H
  H168     1.0000 0.32304  0.53183  0.35973  Biso   1.000  H
  C176     1.0000 0.94565  0.64121  0.34885  Biso   1.000  C
  C177     1.0000 0.56499  0.59766  0.39676  Biso   1.000  C
  C178     1.0000 0.62608  0.72922  0.39613  Biso   1.000  C
  H169     1.0000 0.66216  0.77423  0.43644  Biso   1.000  H
  H170     1.0000 0.65755  0.80473  0.42334  Biso   1.000  H
  C179     1.0000 0.57306  0.73535  0.42963  Biso   1.000  C
  H171     1.0000 0.74897  0.80174  0.41343  Biso   1.000  H
  H172     1.0000 0.75767  0.77465  0.42663  Biso   1.000  H
  C180     1.0000 0.76485  0.73002  0.41081  Biso   1.000  C
  C181     1.0000 0.40238  0.96732  0.39676  Biso   1.000  C
  C182     1.0000 0.27077  0.89681  0.39613  Biso   1.000  C
  H173     1.0000 0.22577  0.88792  0.43644  Biso   1.000  H
  H174     1.0000 0.19526  0.85283  0.42334  Biso   1.000  H
  C183     1.0000 0.26465  0.83772  0.42963  Biso   1.000  C
  H175     1.0000 0.19826  0.94725  0.41343  Biso   1.000  H
  H176     1.0000 0.22535  0.98304  0.42663  Biso   1.000  H
  C184     1.0000 0.26997  0.03483  0.41081  Biso   1.000  C
  C185     1.0000 0.35879  0.30444  0.34885  Biso   1.000  C
  H177     1.0000 0.31698  0.24165  0.36433  Biso   1.000  H
  C186     1.0000 0.25209  0.20086  0.34880  Biso   1.000  C
  H178     1.0000 0.97646  0.65623  0.34173  Biso   1.000  H
  C187     1.0000 0.88014  0.60542  0.34300  Biso   1.000  C
  C188     1.0000 0.95527  0.69783  0.35718  Biso   1.000  C
  C189     1.0000 0.52964  0.52752  0.39475  Biso   1.000  C
  C190     1.0000 0.56099  0.62896  0.38539  Biso   1.000  C
  C191     1.0000 0.59146  0.69394  0.38514  Biso   1.000  C
  C192     1.0000 0.65425  0.79683  0.39272  Biso   1.000  C
  H179     1.0000 0.55786  0.69441  0.43353  Biso   1.000  H
  H180     1.0000 0.55398  0.72894  0.42103  Biso   1.000  H
  C193     1.0000 0.55098  0.77133  0.43796  Biso   1.000  C
  H181     1.0000 0.74856  0.72192  0.40193  Biso   1.000  H
  H182     1.0000 0.75177  0.69001  0.41503  Biso   1.000  H
  C194     1.0000 0.83566  0.76735  0.41031  Biso   1.000  C
  C195     1.0000 0.47246  0.00213  0.39475  Biso   1.000  C
  C196     1.0000 0.37109  0.93204  0.38539  Biso   1.000  C
  C197     1.0000 0.20314  0.85742  0.39272  Biso   1.000  C
  C198     1.0000 0.30605  0.89751  0.38514  Biso   1.000  C
  H183     1.0000 0.30559  0.86345  0.43353  Biso   1.000  H
  H184     1.0000 0.27107  0.82504  0.42103  Biso   1.000  H
  C199     1.0000 0.22866  0.77961  0.43796  Biso   1.000  C
  H185     1.0000 0.27807  0.02664  0.40193  Biso   1.000  H
  H186     1.0000 0.30996  0.06173  0.41503  Biso   1.000  H
  C200     1.0000 0.23267  0.06833  0.41031  Biso   1.000  C
  C201     1.0000 0.39458  0.27473  0.34300  Biso   1.000  C
  N9       1.0000 0.40056  0.35703  0.35749  Biso   1.000  N
  H187     1.0000 0.34376  0.32026  0.34173  Biso   1.000  H
  C202     1.0000 0.21395  0.20951  0.34007  Biso   1.000  C
  C203     1.0000 0.24227  0.14312  0.35068  Biso   1.000  C
  C204     1.0000 0.87156  0.60252  0.32972  Biso   1.000  C
  C205     1.0000 0.82796  0.57342  0.35059  Biso   1.000  C
  N10      1.0000 0.01833  0.72791  0.36261  Biso   1.000  N
  H188     1.0000 0.92467  0.68304  0.36433  Biso   1.000  H
  C206     1.0000 0.94877  0.74794  0.34880  Biso   1.000  C
  C207     1.0000 0.50607  0.52195  0.38076  Biso   1.000  C
  C208     1.0000 0.47168  0.49051  0.40367  Biso   1.000  C
  C209     1.0000 0.57507  0.50062  0.39529  Biso   1.000  C
  C210     1.0000 0.52328  0.57946  0.37564  Biso   1.000  C
  C211     1.0000 0.59518  0.73792  0.37407  Biso   1.000  C
  C212     1.0000 0.63585  0.80071  0.38006  Biso   1.000  C
  C213     1.0000 0.69466  0.85325  0.39942  Biso   1.000  C
  H189     1.0000 0.57105  0.81423  0.43483  Biso   1.000  H
  H190     1.0000 0.50627  0.75322  0.43673  Biso   1.000  H
  C214     1.0000 0.56318  0.77166  0.45098  Biso   1.000  C
  H191     1.0000 0.85248  0.77554  0.41913  Biso   1.000  H
  H192     1.0000 0.84915  0.80721  0.40603  Biso   1.000  H
  C215     1.0000 0.86229  0.72814  0.40219  Biso   1.000  C
  C216     1.0000 0.47804  0.98412  0.38076  Biso   1.000  C
  C217     1.0000 0.50944  0.98112  0.40367  Biso   1.000  C
  C218     1.0000 0.49936  0.07441  0.39529  Biso   1.000  C
  C219     1.0000 0.42058  0.94383  0.37564  Biso   1.000  C
  C220     1.0000 0.19926  0.83515  0.38006  Biso   1.000  C
  C221     1.0000 0.14676  0.84142  0.39942  Biso   1.000  C
  C222     1.0000 0.26208  0.85723  0.37407  Biso   1.000  C
  H193     1.0000 0.18575  0.75682  0.43483  Biso   1.000  H
  H194     1.0000 0.24678  0.75304  0.43673  Biso   1.000  H
  C223     1.0000 0.22839  0.79154  0.45098  Biso   1.000  C
  H195     1.0000 0.22445  0.07694  0.41913  Biso   1.000  H
  H196     1.0000 0.19277  0.04194  0.40603  Biso   1.000  H
  C224     1.0000 0.27184  0.13411  0.40219  Biso   1.000  C
  C225     1.0000 0.39748  0.26902  0.32972  Biso   1.000  C
  C226     1.0000 0.42657  0.25452  0.35059  Biso   1.000  C
  C227     1.0000 0.41287  0.40985  0.35372  Biso   1.000  C
  H197     1.0000 0.22226  0.25036  0.33873  Biso   1.000  H
  C228     1.0000 0.16588  0.16352  0.33334  Biso   1.000  C
  H198     1.0000 0.26734  0.13582  0.35633  Biso   1.000  H
  C229     1.0000 0.18997  0.09072  0.34343  Biso   1.000  C
  H199     1.0000 0.90595  0.62292  0.32424  Biso   1.000  H
  C230     1.0000 0.81216  0.56954  0.32436  Biso   1.000  C
  H200     1.0000 0.83246  0.57351  0.35964  Biso   1.000  H
  C231     1.0000 0.76915  0.54114  0.34527  Biso   1.000  C
  C232     1.0000 0.02418  0.74326  0.37481  Biso   1.000  C
  C233     1.0000 0.99556  0.78602  0.34007  Biso   1.000  C
  C234     1.0000 0.90086  0.75771  0.35068  Biso   1.000  C
  C235     1.0000 0.47015  0.46623  0.37396  Biso   1.000  C
  H201     1.0000 0.44844  0.44761  0.40054  Biso   1.000  H
  H202     1.0000 0.48595  0.48972  0.41253  Biso   1.000  H
  C236     1.0000 0.42787  0.51653  0.40420  Biso   1.000  C
  H203     1.0000 0.59035  0.50502  0.40423  Biso   1.000  H
  H204     1.0000 0.55096  0.45622  0.39344  Biso   1.000  H
  C237     1.0000 0.62887  0.52841  0.38653  Biso   1.000  C
  C238     1.0000 0.50357  0.58081  0.36276  Biso   1.000  C
  C239     1.0000 0.62729  0.73034  0.36176  Biso   1.000  C
  C240     1.0000 0.53157  0.73105  0.37047  Biso   1.000  C
  C241     1.0000 0.65517  0.85873  0.37411  Biso   1.000  C
  C242     1.0000 0.71377  0.90963  0.39350  Biso   1.000  C
  H205     1.0000 0.70818  0.85185  0.40783  Biso   1.000  H
  H206     1.0000 0.54326  0.72931  0.45414  Biso   1.000  H
  H207     1.0000 0.54735  0.79454  0.45564  Biso   1.000  H
  H208     1.0000 0.60755  0.79103  0.45233  Biso   1.000  H
  H209     1.0000 0.85198  0.69034  0.40683  Biso   1.000  H
  H210     1.0000 0.90688  0.75322  0.40133  Biso   1.000  H
  H211     1.0000 0.84346  0.71771  0.39363  Biso   1.000  H
  C243     1.0000 0.53378  0.00395  0.37396  Biso   1.000  C
  H212     1.0000 0.51027  0.99623  0.41253  Biso   1.000  H
  C244     1.0000 0.48345  0.91132  0.40420  Biso   1.000  C
  H213     1.0000 0.55235  0.00082  0.40054  Biso   1.000  H
  H214     1.0000 0.49497  0.08532  0.40423  Biso   1.000  H
  H215     1.0000 0.54375  0.09472  0.39344  Biso   1.000  H
  C245     1.0000 0.47157  0.10043  0.38653  Biso   1.000  C
  C246     1.0000 0.41919  0.92273  0.36276  Biso   1.000  C
  C247     1.0000 0.14126  0.79645  0.37411  Biso   1.000  C
  C248     1.0000 0.09035  0.80413  0.39350  Biso   1.000  C
  H216     1.0000 0.14819  0.85634  0.40783  Biso   1.000  H
  C249     1.0000 0.26967  0.89695  0.36176  Biso   1.000  C
  C250     1.0000 0.26898  0.80052  0.37047  Biso   1.000  C
  H217     1.0000 0.27067  0.81395  0.45414  Biso   1.000  H
  H218     1.0000 0.20548  0.75285  0.45564  Biso   1.000  H
  H219     1.0000 0.20895  0.81652  0.45233  Biso   1.000  H
  H220     1.0000 0.30966  0.16162  0.40683  Biso   1.000  H
  H221     1.0000 0.24675  0.15362  0.40133  Biso   1.000  H
  H222     1.0000 0.28228  0.12574  0.39363  Biso   1.000  H
  C251     1.0000 0.43048  0.24264  0.32436  Biso   1.000  C
  H223     1.0000 0.37704  0.28301  0.32424  Biso   1.000  H
  C252     1.0000 0.45887  0.22804  0.34527  Biso   1.000  C
  H224     1.0000 0.42646  0.25892  0.35964  Biso   1.000  H
  C253     1.0000 0.45148  0.46721  0.36140  Biso   1.000  C
  C254     1.0000 0.15779  0.10635  0.33526  Biso   1.000  C
  H225     1.0000 0.14039  0.17105  0.32784  Biso   1.000  H
  H226     1.0000 0.18028  0.04945  0.34454  Biso   1.000  H
  H227     1.0000 0.80758  0.56743  0.31533  Biso   1.000  H
  C255     1.0000 0.76197  0.54104  0.33188  Biso   1.000  C
  H228     1.0000 0.73447  0.51943  0.35063  Biso   1.000  H
  C256     1.0000 0.08646  0.78012  0.38074  Biso   1.000  C
  H229     1.0000 0.02805  0.77774  0.33873  Biso   1.000  H
  C257     1.0000 0.99765  0.83412  0.33334  Biso   1.000  C
  H230     1.0000 0.86847  0.73264  0.35633  Biso   1.000  H
  C258     1.0000 0.90076  0.81002  0.34343  Biso   1.000  C
  H231     1.0000 0.45906  0.42824  0.37793  Biso   1.000  H
  H232     1.0000 0.41919  0.52355  0.39523  Biso   1.000  H
  H233     1.0000 0.44959  0.55704  0.40853  Biso   1.000  H
  C259     1.0000 0.36537  0.47652  0.41124  Biso   1.000  C
  H234     1.0000 0.61177  0.52841  0.37793  Biso   1.000  H
  H235     1.0000 0.64270  0.49795  0.38603  Biso   1.000  H
  C260     1.0000 0.68718  0.58984  0.38751  Biso   1.000  C
  C261     1.0000 0.46888  0.52584  0.35606  Biso   1.000  C
  H236     1.0000 0.51396  0.61885  0.35883  Biso   1.000  H
  H237     1.0000 0.60018  0.68894  0.35823  Biso   1.000  H
  H238     1.0000 0.62996  0.76033  0.35523  Biso   1.000  H
  C262     1.0000 0.68777  0.73802  0.36325  Biso   1.000  C
  H239     1.0000 0.53846  0.76314  0.36414  Biso   1.000  H
  H240     1.0000 0.50637  0.69086  0.36624  Biso   1.000  H
  C263     1.0000 0.49536  0.73544  0.38153  Biso   1.000  C
  C264     1.0000 0.69367  0.91351  0.38074  Biso   1.000  C
  H241     1.0000 0.64195  0.86032  0.36564  Biso   1.000  H
  H242     1.0000 0.74066  0.94631  0.39793  Biso   1.000  H
  C265     1.0000 0.53277  0.98426  0.36140  Biso   1.000  C
  H243     1.0000 0.57179  0.03086  0.37793  Biso   1.000  H
  H244     1.0000 0.47647  0.89564  0.39523  Biso   1.000  H
  H245     1.0000 0.44299  0.89255  0.40853  Biso   1.000  H
  C266     1.0000 0.52346  0.88881  0.41124  Biso   1.000  C
  H246     1.0000 0.47158  0.08335  0.37793  Biso   1.000  H
  H247     1.0000 0.50207  0.14473  0.38603  Biso   1.000  H
  C267     1.0000 0.41018  0.09734  0.38751  Biso   1.000  C
  C268     1.0000 0.47415  0.94304  0.35606  Biso   1.000  C
  H248     1.0000 0.38115  0.89513  0.35883  Biso   1.000  H
  H249     1.0000 0.13968  0.78162  0.36564  Biso   1.000  H
  H250     1.0000 0.05366  0.79435  0.39793  Biso   1.000  H
  H251     1.0000 0.31108  0.91122  0.35823  Biso   1.000  H
  H252     1.0000 0.23968  0.86963  0.35523  Biso   1.000  H
  C269     1.0000 0.26198  0.94973  0.36325  Biso   1.000  C
  H253     1.0000 0.23687  0.77535  0.36414  Biso   1.000  H
  H254     1.0000 0.30919  0.81554  0.36624  Biso   1.000  H
  C270     1.0000 0.26456  0.75991  0.38153  Biso   1.000  C
  H255     1.0000 0.43258  0.24011  0.31533  Biso   1.000  H
  C271     1.0000 0.45896  0.22093  0.33188  Biso   1.000  C
  H256     1.0000 0.48057  0.21503  0.35063  Biso   1.000  H
  H257     1.0000 0.12647  0.07402  0.33043  Biso   1.000  H
  H258     1.0000 0.72230  0.52125  0.32813  Biso   1.000  H
  H259     1.0000 0.03066  0.85962  0.32784  Biso   1.000  H
  C272     1.0000 0.94854  0.84221  0.33526  Biso   1.000  C
  H260     1.0000 0.86920  0.81975  0.34454  Biso   1.000  H
  H261     1.0000 0.37457  0.46623  0.41984  Biso   1.000  H
  H262     1.0000 0.34656  0.50244  0.41264  Biso   1.000  H
  C273     1.0000 0.32079  0.42164  0.40550  Biso   1.000  C
  C274     1.0000 0.73617  0.59373  0.37715  Biso   1.000  C
  H263     1.0000 0.70445  0.59513  0.39623  Biso   1.000  H
  H264     1.0000 0.67787  0.62315  0.38594  Biso   1.000  H
  H265     1.0000 0.45627  0.52762  0.34754  Biso   1.000  H
  H266     1.0000 0.68576  0.70531  0.36883  Biso   1.000  H
  H267     1.0000 0.71547  0.77811  0.36733  Biso   1.000  H
  C275     1.0000 0.71356  0.73465  0.34953  Biso   1.000  C
  H268     1.0000 0.52245  0.77212  0.38673  Biso   1.000  H
  H269     1.0000 0.48137  0.69904  0.38713  Biso   1.000  H
  C276     1.0000 0.43755  0.73993  0.37697  Biso   1.000  C
  C277     1.0000 0.71908  0.97583  0.37481  Biso   1.000  C
  C278     1.0000 0.59016  0.00302  0.35372  Biso   1.000  C
  H270     1.0000 0.53378  0.90832  0.41984  Biso   1.000  H
  H271     1.0000 0.49755  0.84413  0.41264  Biso   1.000  H
  C279     1.0000 0.57838  0.89915  0.40550  Biso   1.000  C
  C280     1.0000 0.40627  0.14244  0.37715  Biso   1.000  C
  H272     1.0000 0.40486  0.10932  0.39623  Biso   1.000  H
  H273     1.0000 0.37687  0.05472  0.38594  Biso   1.000  H
  H274     1.0000 0.47238  0.92863  0.34754  Biso   1.000  H
  H275     1.0000 0.29467  0.98042  0.36883  Biso   1.000  H
  H276     1.0000 0.22187  0.93733  0.36733  Biso   1.000  H
  C281     1.0000 0.26535  0.97892  0.34953  Biso   1.000  C
  H277     1.0000 0.22788  0.75032  0.38673  Biso   1.000  H
  H278     1.0000 0.30097  0.78232  0.38713  Biso   1.000  H
  C282     1.0000 0.26008  0.69764  0.37697  Biso   1.000  C
  H279     1.0000 0.47876  0.20104  0.32813  Biso   1.000  H
  H280     1.0000 0.94757  0.87351  0.33043  Biso   1.000  H
  H281     1.0000 0.30815  0.43081  0.39733  Biso   1.000  H
  H282     1.0000 0.28527  0.40101  0.41124  Biso   1.000  H
  H283     1.0000 0.33814  0.39493  0.40404  Biso   1.000  H
  H284     1.0000 0.74726  0.56243  0.37903  Biso   1.000  H
  H285     1.0000 0.77297  0.63443  0.37753  Biso   1.000  H
  H286     1.0000 0.71838  0.58685  0.36853  Biso   1.000  H
  H287     1.0000 0.75187  0.73315  0.35063  Biso   1.000  H
  H288     1.0000 0.68337  0.69624  0.34523  Biso   1.000  H
  C283     1.0000 0.72665  0.78953  0.34087  Biso   1.000  C
  H289     1.0000 0.40866  0.70063  0.37274  Biso   1.000  H
  H290     1.0000 0.41686  0.74344  0.38473  Biso   1.000  H
  C284     1.0000 0.44776  0.79341  0.36751  Biso   1.000  C
  N11      1.0000 0.70958  0.98164  0.36261  Biso   1.000  N
  N12      1.0000 0.64296  0.04353  0.35749  Biso   1.000  N
  H291     1.0000 0.56918  0.87735  0.39733  Biso   1.000  H
  H292     1.0000 0.59896  0.88423  0.41124  Biso   1.000  H
  H293     1.0000 0.60508  0.94322  0.40404  Biso   1.000  H
  H294     1.0000 0.43755  0.18483  0.37903  Biso   1.000  H
  H295     1.0000 0.36557  0.13851  0.37753  Biso   1.000  H
  H296     1.0000 0.41318  0.13154  0.36853  Biso   1.000  H
  H297     1.0000 0.30379  0.98716  0.34523  Biso   1.000  H
  C285     1.0000 0.21047  0.93714  0.34087  Biso   1.000  C
  H298     1.0000 0.26686  0.01874  0.35063  Biso   1.000  H
  H299     1.0000 0.29935  0.70803  0.37274  Biso   1.000  H
  H300     1.0000 0.25658  0.67345  0.38473  Biso   1.000  H
  C286     1.0000 0.20657  0.65431  0.36751  Biso   1.000  C
  H301     1.0000 0.68858  0.79004  0.33934  Biso   1.000  H
  H302     1.0000 0.74348  0.78574  0.33263  Biso   1.000  H
  H303     1.0000 0.75646  0.82775  0.34513  Biso   1.000  H
  H304     1.0000 0.47337  0.83304  0.37174  Biso   1.000  H
  H305     1.0000 0.40808  0.78925  0.36524  Biso   1.000  H
  H306     1.0000 0.46818  0.79121  0.35973  Biso   1.000  H
  C287     1.0000 0.74259  0.04475  0.35718  Biso   1.000  C
  C288     1.0000 0.69557  0.05434  0.34885  Biso   1.000  C
  H307     1.0000 0.20997  0.89854  0.33934  Biso   1.000  H
  H308     1.0000 0.21428  0.95773  0.33263  Biso   1.000  H
  H309     1.0000 0.17226  0.92872  0.34513  Biso   1.000  H
  H310     1.0000 0.16696  0.64033  0.37174  Biso   1.000  H
  H311     1.0000 0.21076  0.61885  0.36524  Biso   1.000  H
  H312     1.0000 0.20876  0.67691  0.35973  Biso   1.000  H
  H313     1.0000 0.75838  0.07535  0.36433  Biso   1.000  H
  C289     1.0000 0.79917  0.05125  0.34880  Biso   1.000  C
  H314     1.0000 0.67975  0.02351  0.34173  Biso   1.000  H
  C290     1.0000 0.72528  0.11984  0.34300  Biso   1.000  C
  C291     1.0000 0.79046  0.00442  0.34007  Biso   1.000  C
  C292     1.0000 0.85685  0.09912  0.35068  Biso   1.000  C
  C293     1.0000 0.73096  0.12845  0.32972  Biso   1.000  C
  C294     1.0000 0.74545  0.17201  0.35059  Biso   1.000  C
  H315     1.0000 0.74967  0.97195  0.33873  Biso   1.000  H
  C295     1.0000 0.83645  0.00232  0.33334  Biso   1.000  C
  H316     1.0000 0.86419  0.13154  0.35633  Biso   1.000  H
  C296     1.0000 0.90925  0.09921  0.34343  Biso   1.000  C
  H317     1.0000 0.71694  0.09402  0.32424  Biso   1.000  H
  C297     1.0000 0.75737  0.18783  0.32436  Biso   1.000  C
  H318     1.0000 0.74105  0.16752  0.35964  Biso   1.000  H
  C298     1.0000 0.77198  0.23082  0.34527  Biso   1.000  C
  H319     1.0000 0.82895  0.96933  0.32784  Biso   1.000  H
  C299     1.0000 0.89367  0.05144  0.33526  Biso   1.000  C
  H320     1.0000 0.95059  0.13084  0.34454  Biso   1.000  H
  H321     1.0000 0.75986  0.19241  0.31533  Biso   1.000  H
  C300     1.0000 0.77906  0.23803  0.33188  Biso   1.000  C
  H322     1.0000 0.78496  0.26554  0.35063  Biso   1.000  H
  H323     1.0000 0.92597  0.05242  0.33043  Biso   1.000  H
  H324     1.0000 0.79896  0.27775  0.32813  Biso   1.000  H
  C301     1.0000 0.15052  0.39919  0.51890  Biso   1.000  C
  C302     1.0000 0.21012  0.40475  0.51823  Biso   1.000  C
  H325     1.0000 0.14603  0.43395  0.51767  Biso   1.000  H
  C303     1.0000 0.09945  0.34178  0.52139  Biso   1.000  C
  C304     1.0000 0.21798  0.35516  0.52003  Biso   1.000  C
  H326     1.0000 0.24485  0.44368  0.51646  Biso   1.000  H
  C305     1.0000 0.10674  0.29298  0.52306  Biso   1.000  C
  H327     1.0000 0.05985  0.33729  0.52187  Biso   1.000  H
  C306     1.0000 0.28160  0.36110  0.52001  Biso   1.000  C
  C307     1.0000 0.16472  0.29775  0.52229  Biso   1.000  C
  H328     1.0000 0.07196  0.25429  0.52487  Biso   1.000  H
  C308     1.0000 0.28776  0.31628  0.51073  Biso   1.000  C
  N13      1.0000 0.29588  0.34954  0.53338  Biso   1.000  N
  H329     1.0000 0.31252  0.40405  0.51756  Biso   1.000  H
  H330     1.0000 0.16811  0.26215  0.52327  Biso   1.000  H
  C309     1.0000 0.27502  0.32330  0.49652  Biso   1.000  C
  N14      1.0000 0.35195  0.32667  0.51176  Biso   1.000  N
  H331     1.0000 0.25832  0.27338  0.51346  Biso   1.000  H
  C310     1.0000 0.33392  0.39596  0.53997  Biso   1.000  C
  C311     1.0000 0.31753  0.37444  0.48923  Biso   1.000  C
  C312     1.0000 0.22236  0.27688  0.49020  Biso   1.000  C
  C313     1.0000 0.35743  0.27913  0.51355  Biso   1.000  C
  C314     1.0000 0.35275  0.39189  0.55371  Biso   1.000  C
  C315     1.0000 0.30793  0.37818  0.47584  Biso   1.000  C
  H332     1.0000 0.35264  0.40658  0.49326  Biso   1.000  H
  C316     1.0000 0.21181  0.28035  0.47707  Biso   1.000  C
  H333     1.0000 0.19342  0.24236  0.49497  Biso   1.000  H
  C317     1.0000 0.41853  0.28301  0.51434  Biso   1.000  C
  C318     1.0000 0.33322  0.33467  0.55951  Biso   1.000  C
  C319     1.0000 0.38942  0.44415  0.56055  Biso   1.000  C
  C320     1.0000 0.25431  0.32985  0.46997  Biso   1.000  C
  H334     1.0000 0.33670  0.41215  0.47087  Biso   1.000  H
  H335     1.0000 0.17581  0.24895  0.47306  Biso   1.000  H
  C321     1.0000 0.47483  0.33977  0.51446  Biso   1.000  C
  C322     1.0000 0.42131  0.22795  0.51443  Biso   1.000  C
  H336     1.0000 0.30746  0.29799  0.55496  Biso   1.000  H
  C323     1.0000 0.35223  0.33186  0.57224  Biso   1.000  C
  H337     1.0000 0.40194  0.48256  0.55657  Biso   1.000  H
  C324     1.0000 0.40954  0.44396  0.57321  Biso   1.000  C
  H338     1.0000 0.24765  0.33177  0.46107  Biso   1.000  H
  H339     1.0000 0.47431  0.37715  0.51446  Biso   1.000  H
  C325     1.0000 0.53057  0.34089  0.51461  Biso   1.000  C
  H340     1.0000 0.38434  0.18958  0.51446  Biso   1.000  H
  C326     1.0000 0.47765  0.22921  0.51453  Biso   1.000  C
  C327     1.0000 0.39053  0.38609  0.57907  Biso   1.000  C
  C328     1.0000 0.33454  0.27305  0.57981  Biso   1.000  C
  H341     1.0000 0.43482  0.48106  0.57766  Biso   1.000  H
  C329     1.0000 0.53413  0.28601  0.51462  Biso   1.000  C
  C330     1.0000 0.59514  0.39830  0.51444  Biso   1.000  C
  H342     1.0000 0.47823  0.19187  0.51456  Biso   1.000  H
  C331     1.0000 0.40323  0.36756  0.59226  Biso   1.000  C
  C332     1.0000 0.35722  0.23487  0.57216  Biso   1.000  C
  C333     1.0000 0.37094  0.30145  0.59269  Biso   1.000  C
  C334     1.0000 0.26215  0.23679  0.58190  Biso   1.000  C
  C335     1.0000 0.60048  0.30323  0.51484  Biso   1.000  C
  C336     1.0000 0.60259  0.43793  0.52685  Biso   1.000  C
  C337     1.0000 0.60290  0.43531  0.50151  Biso   1.000  C
  C338     1.0000 0.63707  0.36952  0.51469  Biso   1.000  C
  C339     1.0000 0.43502  0.40237  0.60324  Biso   1.000  C
  H343     1.0000 0.33783  0.22575  0.56356  Biso   1.000  H
  H344     1.0000 0.34246  0.19529  0.57666  Biso   1.000  H
  C340     1.0000 0.42695  0.26467  0.57037  Biso   1.000  C
  C341     1.0000 0.37391  0.27076  0.60387  Biso   1.000  C
  H345     1.0000 0.25105  0.19828  0.58657  Biso   1.000  H
  H346     1.0000 0.24235  0.22537  0.57337  Biso   1.000  H
  C342     1.0000 0.23514  0.26996  0.58919  Biso   1.000  C
  C343     1.0000 0.63051  0.26757  0.51469  Biso   1.000  C
  H347     1.0000 0.57083  0.45009  0.52666  Biso   1.000  H
  H348     1.0000 0.64304  0.47587  0.52647  Biso   1.000  H
  C344     1.0000 0.59764  0.40597  0.53948  Biso   1.000  C
  H349     1.0000 0.64541  0.47016  0.50107  Biso   1.000  H
  H350     1.0000 0.57514  0.45248  0.50186  Biso   1.000  H
  C345     1.0000 0.58934  0.39699  0.48907  Biso   1.000  C
  C346     1.0000 0.70276  0.39951  0.51484  Biso   1.000  C
  C347     1.0000 0.47034  0.47245  0.60525  Biso   1.000  C
  C348     1.0000 0.43902  0.37107  0.61461  Biso   1.000  C
  H351     1.0000 0.44213  0.30557  0.56647  Biso   1.000  H
  H352     1.0000 0.44604  0.27108  0.57897  Biso   1.000  H
  C349     1.0000 0.44901  0.22865  0.56204  Biso   1.000  C
  C350     1.0000 0.34574  0.20315  0.60728  Biso   1.000  C
  C351     1.0000 0.40855  0.30608  0.61486  Biso   1.000  C
  H353     1.0000 0.25143  0.27805  0.59807  Biso   1.000  H
  H354     1.0000 0.24821  0.30996  0.58497  Biso   1.000  H
  C352     1.0000 0.16435  0.23267  0.58969  Biso   1.000  C
  C353     1.0000 0.69675  0.29724  0.51484  Biso   1.000  C
  C354     1.0000 0.60170  0.19683  0.51444  Biso   1.000  C
  H355     1.0000 0.55975  0.36536  0.53917  Biso   1.000  H
  H356     1.0000 0.63263  0.39848  0.54007  Biso   1.000  H
  C355     1.0000 0.59633  0.43966  0.55253  Biso   1.000  C
  H357     1.0000 0.61762  0.38038  0.48866  Biso   1.000  H
  H358     1.0000 0.54705  0.36176  0.48957  Biso   1.000  H
  C356     1.0000 0.59584  0.43269  0.47640  Biso   1.000  C
  C357     1.0000 0.73244  0.36293  0.51469  Biso   1.000  C
  C358     1.0000 0.75187  0.46590  0.51462  Biso   1.000  C
  C359     1.0000 0.49394  0.47807  0.61924  Biso   1.000  C
  C360     1.0000 0.52831  0.50946  0.59633  Biso   1.000  C
  C361     1.0000 0.42492  0.49936  0.60471  Biso   1.000  C
  C362     1.0000 0.47673  0.42057  0.62436  Biso   1.000  C
  H359     1.0000 0.42893  0.18574  0.56517  Biso   1.000  H
  H360     1.0000 0.49372  0.24675  0.56327  Biso   1.000  H
  C363     1.0000 0.43683  0.22837  0.54902  Biso   1.000  C
  C364     1.0000 0.36414  0.19927  0.61994  Biso   1.000  C
  C365     1.0000 0.30535  0.14677  0.60058  Biso   1.000  C
  C366     1.0000 0.40481  0.26205  0.62593  Biso   1.000  C
  H361     1.0000 0.14753  0.22448  0.58087  Biso   1.000  H
  H362     1.0000 0.15084  0.19276  0.59397  Biso   1.000  H
  C367     1.0000 0.13772  0.27188  0.59781  Biso   1.000  C
  C368     1.0000 0.71401  0.24811  0.51462  Biso   1.000  C
  C369     1.0000 0.65912  0.18972  0.51461  Biso   1.000  C
  C370     1.0000 0.56209  0.16469  0.52685  Biso   1.000  C
  C371     1.0000 0.56471  0.16759  0.50151  Biso   1.000  C
  H363     1.0000 0.63244  0.48148  0.55277  Biso   1.000  H
  H364     1.0000 0.59874  0.41668  0.55996  Biso   1.000  H
  C372     1.0000 0.53643  0.44377  0.55345  Biso   1.000  C
  H365     1.0000 0.56325  0.44368  0.47587  Biso   1.000  H
  H366     1.0000 0.63604  0.47086  0.47617  Biso   1.000  H
  C373     1.0000 0.58954  0.38679  0.46391  Biso   1.000  C
  C374     1.0000 0.80315  0.40485  0.51444  Biso   1.000  C
  C375     1.0000 0.81027  0.46941  0.51461  Biso   1.000  C
  C376     1.0000 0.75156  0.52233  0.51453  Biso   1.000  C
  C377     1.0000 0.52984  0.53374  0.62604  Biso   1.000  C
  H367     1.0000 0.55155  0.55237  0.59946  Biso   1.000  H
  H368     1.0000 0.51404  0.51026  0.58747  Biso   1.000  H
  C378     1.0000 0.57211  0.48345  0.59580  Biso   1.000  C
  H369     1.0000 0.40963  0.49496  0.59577  Biso   1.000  H
  H370     1.0000 0.44903  0.54376  0.60656  Biso   1.000  H
  C379     1.0000 0.37111  0.47157  0.61347  Biso   1.000  C
  C380     1.0000 0.49641  0.41916  0.63724  Biso   1.000  C
  H371     1.0000 0.45672  0.27066  0.54586  Biso   1.000  H
  H372     1.0000 0.45266  0.20549  0.54436  Biso   1.000  H
  H373     1.0000 0.39244  0.20895  0.54767  Biso   1.000  H
  C381     1.0000 0.34481  0.14125  0.62589  Biso   1.000  C
  C382     1.0000 0.28622  0.09035  0.60650  Biso   1.000  C
  H374     1.0000 0.29183  0.14817  0.59217  Biso   1.000  H
  C383     1.0000 0.37272  0.26968  0.63824  Biso   1.000  C
  C384     1.0000 0.46844  0.26898  0.62953  Biso   1.000  C
  H375     1.0000 0.14803  0.30968  0.59317  Biso   1.000  H
  H376     1.0000 0.09311  0.24675  0.59867  Biso   1.000  H
  H377     1.0000 0.15653  0.28227  0.60637  Biso   1.000  H
  C385     1.0000 0.77078  0.24844  0.51453  Biso   1.000  C
  C386     1.0000 0.66024  0.13507  0.51446  Biso   1.000  C
  H378     1.0000 0.54992  0.12076  0.52666  Biso   1.000  H
  H379     1.0000 0.52414  0.16717  0.52647  Biso   1.000  H
  C387     1.0000 0.59406  0.19169  0.53948  Biso   1.000  C
  H380     1.0000 0.52981  0.17526  0.50107  Biso   1.000  H
  H381     1.0000 0.54752  0.12268  0.50186  Biso   1.000  H
  C388     1.0000 0.60304  0.19239  0.48907  Biso   1.000  C
  H382     1.0000 0.50063  0.40288  0.55227  Biso   1.000  H
  H383     1.0000 0.53443  0.45977  0.56187  Biso   1.000  H
  H384     1.0000 0.53683  0.47114  0.54676  Biso   1.000  H
  H385     1.0000 0.54912  0.34954  0.46417  Biso   1.000  H
  H386     1.0000 0.59434  0.40845  0.45586  Biso   1.000  H
  H387     1.0000 0.62153  0.37556  0.46457  Biso   1.000  H
  C389     1.0000 0.83529  0.39741  0.52685  Biso   1.000  C
  C390     1.0000 0.83240  0.39713  0.50151  Biso   1.000  C
  C391     1.0000 0.86494  0.52518  0.51446  Biso   1.000  C
  C392     1.0000 0.80666  0.57871  0.51443  Biso   1.000  C
  H388     1.0000 0.71364  0.52177  0.51456  Biso   1.000  H
  H389     1.0000 0.54096  0.57178  0.62207  Biso   1.000  H
  C393     1.0000 0.54851  0.53276  0.63860  Biso   1.000  C
  H390     1.0000 0.58082  0.47648  0.60477  Biso   1.000  H
  H391     1.0000 0.55042  0.44298  0.59147  Biso   1.000  H
  C394     1.0000 0.63462  0.52345  0.58876  Biso   1.000  C
  H392     1.0000 0.38821  0.47157  0.62207  Biso   1.000  H
  H393     1.0000 0.35732  0.50207  0.61397  Biso   1.000  H
  C395     1.0000 0.31283  0.41018  0.61249  Biso   1.000  C
  C396     1.0000 0.53114  0.47419  0.64394  Biso   1.000  C
  H394     1.0000 0.48605  0.38117  0.64117  Biso   1.000  H
  C397     1.0000 0.30632  0.08646  0.61926  Biso   1.000  C
  H395     1.0000 0.35804  0.13966  0.63436  Biso   1.000  H
  H396     1.0000 0.25933  0.05366  0.60207  Biso   1.000  H
  H397     1.0000 0.39983  0.31109  0.64177  Biso   1.000  H
  H398     1.0000 0.37005  0.23969  0.64477  Biso   1.000  H
  C398     1.0000 0.31222  0.26196  0.63675  Biso   1.000  C
  H399     1.0000 0.46155  0.23688  0.63586  Biso   1.000  H
  H400     1.0000 0.49364  0.30917  0.63376  Biso   1.000  H
  C399     1.0000 0.50466  0.26458  0.61847  Biso   1.000  C
  C400     1.0000 0.77203  0.19332  0.51443  Biso   1.000  C
  H401     1.0000 0.80814  0.28638  0.51456  Biso   1.000  H
  C401     1.0000 0.71700  0.13554  0.51434  Biso   1.000  C
  H402     1.0000 0.62282  0.09718  0.51446  Biso   1.000  H
  H403     1.0000 0.63462  0.19435  0.53917  Biso   1.000  H
  H404     1.0000 0.60153  0.23417  0.54007  Biso   1.000  H
  C402     1.0000 0.56035  0.15669  0.55253  Biso   1.000  C
  H405     1.0000 0.61964  0.23726  0.48866  Biso   1.000  H
  H406     1.0000 0.63822  0.18528  0.48957  Biso   1.000  H
  C403     1.0000 0.56731  0.16315  0.47640  Biso   1.000  C
  H407     1.0000 0.87926  0.42918  0.52666  Biso   1.000  H
  H408     1.0000 0.83283  0.35698  0.52647  Biso   1.000  H
  C404     1.0000 0.80831  0.40237  0.53948  Biso   1.000  C
  H409     1.0000 0.82472  0.35455  0.50107  Biso   1.000  H
  H410     1.0000 0.87735  0.42487  0.50186  Biso   1.000  H
  C405     1.0000 0.80763  0.41065  0.48907  Biso   1.000  C
  C406     1.0000 0.86448  0.58147  0.51434  Biso   1.000  C
  H411     1.0000 0.90282  0.52565  0.51446  Biso   1.000  H
  H412     1.0000 0.80524  0.61567  0.51446  Biso   1.000  H
  C407     1.0000 0.58714  0.59017  0.64628  Biso   1.000  C
  H413     1.0000 0.62542  0.53374  0.58016  Biso   1.000  H
  H414     1.0000 0.65345  0.49758  0.58736  Biso   1.000  H
  C408     1.0000 0.67922  0.57838  0.59450  Biso   1.000  C
  C409     1.0000 0.26382  0.40625  0.62285  Biso   1.000  C
  H415     1.0000 0.29554  0.40485  0.60377  Biso   1.000  H
  H416     1.0000 0.32215  0.37687  0.61406  Biso   1.000  H
  H417     1.0000 0.54372  0.47236  0.65246  Biso   1.000  H
  C410     1.0000 0.28094  0.02419  0.62519  Biso   1.000  C
  H418     1.0000 0.31423  0.29466  0.63117  Biso   1.000  H
  H419     1.0000 0.28451  0.22186  0.63267  Biso   1.000  H
  C411     1.0000 0.28646  0.26538  0.65047  Biso   1.000  C
  H420     1.0000 0.47754  0.22785  0.61327  Biso   1.000  H
  H421     1.0000 0.51864  0.30098  0.61287  Biso   1.000  H
  C412     1.0000 0.56246  0.26009  0.62303  Biso   1.000  C
  H422     1.0000 0.81043  0.19477  0.51446  Biso   1.000  H
  C413     1.0000 0.72085  0.07832  0.51355  Biso   1.000  C
  H423     1.0000 0.51852  0.15098  0.55277  Biso   1.000  H
  H424     1.0000 0.58333  0.18205  0.55996  Biso   1.000  H
  C414     1.0000 0.55623  0.09268  0.55345  Biso   1.000  C
  H425     1.0000 0.55635  0.11959  0.47587  Biso   1.000  H
  H426     1.0000 0.52913  0.16516  0.47617  Biso   1.000  H
  C415     1.0000 0.61322  0.20277  0.46391  Biso   1.000  C
  H427     1.0000 0.80563  0.44026  0.53917  Biso   1.000  H
  H428     1.0000 0.76582  0.36737  0.54007  Biso   1.000  H
  C416     1.0000 0.84333  0.40368  0.55253  Biso   1.000  C
  H429     1.0000 0.76275  0.38239  0.48866  Biso   1.000  H
  H430     1.0000 0.81472  0.45294  0.48957  Biso   1.000  H
  C417     1.0000 0.83684  0.40415  0.47640  Biso   1.000  C
  C418     1.0000 0.92167  0.64252  0.51355  Biso   1.000  C
  N15      1.0000 0.59943  0.64295  0.64251  Biso   1.000  N
  H431     1.0000 0.69183  0.56916  0.60267  Biso   1.000  H
  H432     1.0000 0.71472  0.59897  0.58876  Biso   1.000  H
  H433     1.0000 0.66184  0.60505  0.59596  Biso   1.000  H
  H434     1.0000 0.25273  0.43755  0.62097  Biso   1.000  H
  H435     1.0000 0.22702  0.36555  0.62247  Biso   1.000  H
  H436     1.0000 0.28163  0.41318  0.63147  Biso   1.000  H
  N16      1.0000 0.29041  0.01834  0.63739  Biso   1.000  N
  H437     1.0000 0.24814  0.26687  0.64937  Biso   1.000  H
  H438     1.0000 0.31664  0.30379  0.65477  Biso   1.000  H
  C419     1.0000 0.27334  0.21045  0.65913  Biso   1.000  C
  H439     1.0000 0.59135  0.29939  0.62726  Biso   1.000  H
  H440     1.0000 0.58315  0.25658  0.61527  Biso   1.000  H
  C420     1.0000 0.55223  0.20656  0.63249  Biso   1.000  C
  N17      1.0000 0.67329  0.02526  0.51176  Biso   1.000  N
  H441     1.0000 0.59715  0.09778  0.55227  Biso   1.000  H
  H442     1.0000 0.54025  0.07467  0.56187  Biso   1.000  H
  H443     1.0000 0.52883  0.06569  0.54676  Biso   1.000  H
  H444     1.0000 0.65042  0.19955  0.46417  Biso   1.000  H
  H445     1.0000 0.59152  0.18588  0.45586  Biso   1.000  H
  H446     1.0000 0.62444  0.24596  0.46457  Biso   1.000  H
  H447     1.0000 0.84901  0.36756  0.55277  Biso   1.000  H
  H448     1.0000 0.81792  0.40124  0.55996  Biso   1.000  H
  C421     1.0000 0.90735  0.46356  0.55345  Biso   1.000  C
  H449     1.0000 0.88041  0.43676  0.47587  Biso   1.000  H
  H450     1.0000 0.83481  0.36396  0.47617  Biso   1.000  H
  C422     1.0000 0.79725  0.41046  0.46391  Biso   1.000  C
  N18      1.0000 0.97471  0.64805  0.51176  Biso   1.000  N
  C423     1.0000 0.64123  0.69558  0.65115  Biso   1.000  C
  C424     1.0000 0.25742  0.95527  0.64282  Biso   1.000  C
  H451     1.0000 0.31143  0.20998  0.66066  Biso   1.000  H
  H452     1.0000 0.25653  0.21428  0.66737  Biso   1.000  H
  H453     1.0000 0.24355  0.17227  0.65487  Biso   1.000  H
  H454     1.0000 0.52664  0.16698  0.62826  Biso   1.000  H
  H455     1.0000 0.59194  0.21077  0.63476  Biso   1.000  H
  H456     1.0000 0.53181  0.20876  0.64027  Biso   1.000  H
  C425     1.0000 0.68373  0.97151  0.51073  Biso   1.000  C
  H457     1.0000 0.90223  0.49936  0.55227  Biso   1.000  H
  H458     1.0000 0.92533  0.46558  0.56187  Biso   1.000  H
  H459     1.0000 0.93433  0.46314  0.54676  Biso   1.000  H
  H460     1.0000 0.80044  0.45089  0.46417  Biso   1.000  H
  H461     1.0000 0.81415  0.40569  0.45586  Biso   1.000  H
  H462     1.0000 0.75402  0.37846  0.46457  Biso   1.000  H
  C426     1.0000 0.02853  0.71224  0.51073  Biso   1.000  C
  H463     1.0000 0.65625  0.67977  0.65827  Biso   1.000  H
  C427     1.0000 0.60541  0.72524  0.65700  Biso   1.000  C
  C428     1.0000 0.69782  0.74255  0.64282  Biso   1.000  C
  C429     1.0000 0.30444  0.94568  0.65115  Biso   1.000  C
  H464     1.0000 0.24163  0.92467  0.63567  Biso   1.000  H
  C430     1.0000 0.20084  0.94877  0.65120  Biso   1.000  C
  C431     1.0000 0.63890  0.92051  0.52001  Biso   1.000  C
  H465     1.0000 0.72665  0.98498  0.51346  Biso   1.000  H
  C432     1.0000 0.67671  0.95172  0.49652  Biso   1.000  C
  C433     1.0000 0.07948  0.71837  0.52001  Biso   1.000  C
  H466     1.0000 0.01504  0.74167  0.51346  Biso   1.000  H
  C434     1.0000 0.04828  0.72501  0.49652  Biso   1.000  C
  C435     1.0000 0.60251  0.73095  0.67028  Biso   1.000  C
  C436     1.0000 0.57342  0.74546  0.64941  Biso   1.000  C
  N19      1.0000 0.72792  0.70957  0.63739  Biso   1.000  N
  H467     1.0000 0.68303  0.75837  0.63567  Biso   1.000  H
  C437     1.0000 0.74792  0.79917  0.65120  Biso   1.000  C
  N20      1.0000 0.35705  0.95649  0.64251  Biso   1.000  N
  H468     1.0000 0.32024  0.97647  0.65827  Biso   1.000  H
  C438     1.0000 0.27473  0.88018  0.65700  Biso   1.000  C
  C439     1.0000 0.20953  0.99556  0.65993  Biso   1.000  C
  C440     1.0000 0.14314  0.90086  0.64932  Biso   1.000  C
  N21      1.0000 0.65044  0.94634  0.53338  Biso   1.000  N
  H469     1.0000 0.59594  0.90848  0.51756  Biso   1.000  H
  C441     1.0000 0.64486  0.86282  0.52003  Biso   1.000  C
  C442     1.0000 0.62556  0.94311  0.48923  Biso   1.000  C
  C443     1.0000 0.72313  0.94545  0.49020  Biso   1.000  C
  N22      1.0000 0.05367  0.70410  0.53338  Biso   1.000  N
  H470     1.0000 0.09156  0.68749  0.51756  Biso   1.000  H
  C444     1.0000 0.13717  0.78204  0.52003  Biso   1.000  C
  C445     1.0000 0.05692  0.68248  0.48923  Biso   1.000  C
  C446     1.0000 0.05450  0.77764  0.49020  Biso   1.000  C
  H471     1.0000 0.62295  0.71696  0.67576  Biso   1.000  H
  C447     1.0000 0.56954  0.75739  0.67564  Biso   1.000  C
  H472     1.0000 0.57353  0.74106  0.64036  Biso   1.000  H
  C448     1.0000 0.54114  0.77198  0.65473  Biso   1.000  C
  C449     1.0000 0.74325  0.71907  0.62519  Biso   1.000  C
  C450     1.0000 0.78603  0.79046  0.65993  Biso   1.000  C
  C451     1.0000 0.75772  0.85686  0.64932  Biso   1.000  C
  C452     1.0000 0.40982  0.99696  0.64628  Biso   1.000  C
  C453     1.0000 0.26905  0.87157  0.67028  Biso   1.000  C
  C454     1.0000 0.25454  0.82796  0.64941  Biso   1.000  C
  H473     1.0000 0.25034  0.02807  0.66127  Biso   1.000  H
  C455     1.0000 0.16354  0.99766  0.66666  Biso   1.000  C
  H474     1.0000 0.13582  0.86848  0.64367  Biso   1.000  H
  C456     1.0000 0.09074  0.90076  0.65657  Biso   1.000  C
  C457     1.0000 0.60403  0.93796  0.53997  Biso   1.000  C
  C458     1.0000 0.59523  0.80537  0.51823  Biso   1.000  C
  C459     1.0000 0.70225  0.86698  0.52229  Biso   1.000  C
  H475     1.0000 0.59341  0.94605  0.49326  Biso   1.000  H
  C460     1.0000 0.62186  0.92977  0.47584  Biso   1.000  C
  H476     1.0000 0.75762  0.95106  0.49497  Biso   1.000  H
  C461     1.0000 0.71962  0.93146  0.47707  Biso   1.000  C
  C462     1.0000 0.06204  0.66606  0.53997  Biso   1.000  C
  C463     1.0000 0.19464  0.78986  0.51823  Biso   1.000  C
  C464     1.0000 0.13304  0.83529  0.52229  Biso   1.000  C
  H477     1.0000 0.05394  0.64734  0.49326  Biso   1.000  H
  C465     1.0000 0.07023  0.69207  0.47584  Biso   1.000  C
  H478     1.0000 0.04894  0.80656  0.49497  Biso   1.000  H
  C466     1.0000 0.06852  0.78817  0.47707  Biso   1.000  C
  H479     1.0000 0.56745  0.75987  0.68467  Biso   1.000  H
  C467     1.0000 0.54102  0.77905  0.66812  Biso   1.000  C
  H480     1.0000 0.51942  0.78494  0.64937  Biso   1.000  H
  C468     1.0000 0.78014  0.69366  0.61926  Biso   1.000  C
  H481     1.0000 0.77775  0.74967  0.66127  Biso   1.000  H
  C469     1.0000 0.83411  0.83646  0.66666  Biso   1.000  C
  H482     1.0000 0.73264  0.86415  0.64367  Biso   1.000  H
  C470     1.0000 0.81002  0.90926  0.65657  Biso   1.000  C
  C471     1.0000 0.46724  0.01577  0.63860  Biso   1.000  C
  H483     1.0000 0.28304  0.90596  0.67576  Biso   1.000  H
  C472     1.0000 0.24262  0.81215  0.67564  Biso   1.000  C
  H484     1.0000 0.25893  0.83246  0.64036  Biso   1.000  H
  C473     1.0000 0.22801  0.76915  0.65473  Biso   1.000  C
  H485     1.0000 0.17104  0.03065  0.67216  Biso   1.000  H
  C474     1.0000 0.10634  0.94858  0.66474  Biso   1.000  C
  H486     1.0000 0.04942  0.86918  0.65546  Biso   1.000  H
  C475     1.0000 0.60816  0.96089  0.55371  Biso   1.000  C
  H487     1.0000 0.55633  0.80116  0.51646  Biso   1.000  H
  C476     1.0000 0.60085  0.75137  0.51890  Biso   1.000  C
  H488     1.0000 0.73783  0.90596  0.52327  Biso   1.000  H
  C477     1.0000 0.70706  0.81379  0.52306  Biso   1.000  C
  H489     1.0000 0.58786  0.92458  0.47087  Biso   1.000  H
  C478     1.0000 0.67014  0.92449  0.46997  Biso   1.000  C
  H490     1.0000 0.75104  0.92687  0.47306  Biso   1.000  H
  C479     1.0000 0.03914  0.64725  0.55371  Biso   1.000  C
  H491     1.0000 0.19883  0.75519  0.51646  Biso   1.000  H
  C480     1.0000 0.24864  0.84946  0.51890  Biso   1.000  C
  H492     1.0000 0.09406  0.83187  0.52327  Biso   1.000  H
  C481     1.0000 0.18621  0.89326  0.52306  Biso   1.000  C
  H493     1.0000 0.07543  0.66325  0.47087  Biso   1.000  H
  C482     1.0000 0.07556  0.74569  0.46997  Biso   1.000  C
  H494     1.0000 0.07314  0.82415  0.47306  Biso   1.000  H
  H495     1.0000 0.52125  0.79898  0.67187  Biso   1.000  H
  C483     1.0000 0.79642  0.65516  0.62589  Biso   1.000  C
  C484     1.0000 0.80414  0.71378  0.60650  Biso   1.000  C
  C485     1.0000 0.84222  0.89368  0.66474  Biso   1.000  C
  H496     1.0000 0.85962  0.82897  0.67216  Biso   1.000  H
  H497     1.0000 0.81973  0.95057  0.65546  Biso   1.000  H
  C486     1.0000 0.52586  0.05699  0.64394  Biso   1.000  C
  C487     1.0000 0.46623  0.99607  0.62604  Biso   1.000  C
  H498     1.0000 0.24013  0.80757  0.68467  Biso   1.000  H
  C488     1.0000 0.22093  0.76195  0.66812  Biso   1.000  C
  H499     1.0000 0.21505  0.73448  0.64937  Biso   1.000  H
  H500     1.0000 0.07402  0.94755  0.66957  Biso   1.000  H
  C489     1.0000 0.66532  0.99855  0.55951  Biso   1.000  C
  C490     1.0000 0.55581  0.94526  0.56055  Biso   1.000  C
  H501     1.0000 0.56604  0.71207  0.51767  Biso   1.000  H
  C491     1.0000 0.65824  0.75764  0.52139  Biso   1.000  C
  H502     1.0000 0.74575  0.81767  0.52487  Biso   1.000  H
  H503     1.0000 0.66823  0.91588  0.46107  Biso   1.000  H
  C492     1.0000 0.00141  0.66676  0.55951  Biso   1.000  C
  C493     1.0000 0.05472  0.61057  0.56055  Biso   1.000  C
  H504     1.0000 0.28792  0.85395  0.51767  Biso   1.000  H
  C494     1.0000 0.24234  0.90055  0.52139  Biso   1.000  C
  H505     1.0000 0.18235  0.92806  0.52487  Biso   1.000  H
  H506     1.0000 0.08413  0.75238  0.46107  Biso   1.000  H
  H507     1.0000 0.78164  0.64196  0.63436  Biso   1.000  H
  C495     1.0000 0.83512  0.63588  0.61994  Biso   1.000  C
  H508     1.0000 0.79433  0.74068  0.60207  Biso   1.000  H
  C496     1.0000 0.84141  0.69465  0.60058  Biso   1.000  C
  H509     1.0000 0.87351  0.92596  0.66957  Biso   1.000  H
  H510     1.0000 0.52761  0.07135  0.65246  Biso   1.000  H
  C497     1.0000 0.58080  0.07725  0.63724  Biso   1.000  C
  C498     1.0000 0.52195  0.01586  0.61924  Biso   1.000  C
  H511     1.0000 0.42822  0.96917  0.62207  Biso   1.000  H
  H512     1.0000 0.20105  0.72227  0.67187  Biso   1.000  H
  H513     1.0000 0.70201  0.00945  0.55496  Biso   1.000  H
  C499     1.0000 0.66812  0.02035  0.57224  Biso   1.000  C
  H514     1.0000 0.51743  0.91939  0.55657  Biso   1.000  H
  C500     1.0000 0.55604  0.96556  0.57321  Biso   1.000  C
  H515     1.0000 0.66274  0.72255  0.52187  Biso   1.000  H
  H516     1.0000 0.99054  0.69259  0.55496  Biso   1.000  H
  C501     1.0000 0.97964  0.64776  0.57224  Biso   1.000  C
  H517     1.0000 0.08064  0.59808  0.55657  Biso   1.000  H
  C502     1.0000 0.03441  0.59045  0.57321  Biso   1.000  C
  H518     1.0000 0.27743  0.94018  0.52187  Biso   1.000  H
  C503     1.0000 0.85744  0.65427  0.60728  Biso   1.000  C
  C504     1.0000 0.85723  0.59518  0.62593  Biso   1.000  C
  H519     1.0000 0.85635  0.70817  0.59217  Biso   1.000  H
  C505     1.0000 0.57941  0.05614  0.62436  Biso   1.000  C
  H520     1.0000 0.61883  0.10485  0.64117  Biso   1.000  H
  C506     1.0000 0.52753  0.99785  0.60525  Biso   1.000  C
  C507     1.0000 0.61393  0.00444  0.57907  Biso   1.000  C
  C508     1.0000 0.72693  0.06148  0.57981  Biso   1.000  C
  H521     1.0000 0.51895  0.95377  0.57766  Biso   1.000  H
  C509     1.0000 0.99553  0.60945  0.57907  Biso   1.000  C
  C510     1.0000 0.93852  0.66545  0.57981  Biso   1.000  C
  H522     1.0000 0.04625  0.56519  0.57766  Biso   1.000  H
  C511     1.0000 0.89682  0.62606  0.60387  Biso   1.000  C
  C512     1.0000 0.89752  0.59148  0.61486  Biso   1.000  C
  C513     1.0000 0.89694  0.62727  0.63824  Biso   1.000  C
  C514     1.0000 0.80054  0.53155  0.62953  Biso   1.000  C
  C515     1.0000 0.62893  0.06798  0.61461  Biso   1.000  C
  C516     1.0000 0.59761  0.03266  0.60324  Biso   1.000  C
  C517     1.0000 0.49055  0.01886  0.59633  Biso   1.000  C
  C518     1.0000 0.50063  0.92556  0.60471  Biso   1.000  C
  C519     1.0000 0.63241  0.03565  0.59226  Biso   1.000  C
  C520     1.0000 0.76510  0.12235  0.57216  Biso   1.000  C
  C521     1.0000 0.69856  0.06948  0.59269  Biso   1.000  C
  C522     1.0000 0.76325  0.02536  0.58190  Biso   1.000  C
  C523     1.0000 0.96435  0.59677  0.59226  Biso   1.000  C
  C524     1.0000 0.87762  0.64276  0.57216  Biso   1.000  C
  C525     1.0000 0.93053  0.62905  0.59269  Biso   1.000  C
  C526     1.0000 0.97465  0.73788  0.58190  Biso   1.000  C
  C527     1.0000 0.93203  0.56097  0.61461  Biso   1.000  C
  H523     1.0000 0.91123  0.60018  0.64177  Biso   1.000  H
  H524     1.0000 0.86965  0.62999  0.64477  Biso   1.000  H
  C528     1.0000 0.94972  0.68777  0.63675  Biso   1.000  C
  H525     1.0000 0.77535  0.53847  0.63586  Biso   1.000  H
  H526     1.0000 0.81555  0.50637  0.63376  Biso   1.000  H
  C529     1.0000 0.75993  0.49538  0.61847  Biso   1.000  C
  C530     1.0000 0.69394  0.10246  0.61486  Biso   1.000  C
  H527     1.0000 0.48974  0.00379  0.58747  Biso   1.000  H
  C531     1.0000 0.51653  0.08866  0.59580  Biso   1.000  C
  H528     1.0000 0.44763  0.99916  0.59946  Biso   1.000  H
  H529     1.0000 0.50502  0.91466  0.59577  Biso   1.000  H
  H530     1.0000 0.45623  0.90526  0.60656  Biso   1.000  H
  C532     1.0000 0.52842  0.89955  0.61347  Biso   1.000  C
  H531     1.0000 0.77422  0.11205  0.56356  Biso   1.000  H
  H532     1.0000 0.80473  0.14714  0.57666  Biso   1.000  H
  C533     1.0000 0.73534  0.16226  0.57037  Biso   1.000  C
  C534     1.0000 0.72922  0.10317  0.60387  Biso   1.000  C
  H533     1.0000 0.80175  0.05278  0.58657  Biso   1.000  H
  H534     1.0000 0.77466  0.01698  0.57337  Biso   1.000  H
  C535     1.0000 0.73002  0.96514  0.58919  Biso   1.000  C
  C536     1.0000 0.96732  0.56495  0.60324  Biso   1.000  C
  H535     1.0000 0.88794  0.66217  0.56356  Biso   1.000  H
  H536     1.0000 0.85286  0.65759  0.57666  Biso   1.000  H
  C537     1.0000 0.83774  0.57305  0.57037  Biso   1.000  C
  H537     1.0000 0.94721  0.74896  0.58657  Biso   1.000  H
  H538     1.0000 0.98305  0.75767  0.57337  Biso   1.000  H
  C538     1.0000 0.03483  0.76487  0.58919  Biso   1.000  C
  C539     1.0000 0.94384  0.52326  0.62436  Biso   1.000  C
  H539     1.0000 0.98044  0.68576  0.63117  Biso   1.000  H
  H540     1.0000 0.93735  0.71547  0.63267  Biso   1.000  H
  C540     1.0000 0.97894  0.71355  0.65047  Biso   1.000  C
  H541     1.0000 0.75034  0.52247  0.61327  Biso   1.000  H
  H542     1.0000 0.78232  0.48134  0.61287  Biso   1.000  H
  C541     1.0000 0.69762  0.43755  0.62303  Biso   1.000  C
  C542     1.0000 0.73791  0.14275  0.62593  Biso   1.000  C
  H543     1.0000 0.52354  0.10438  0.60477  Biso   1.000  H
  H544     1.0000 0.55702  0.10747  0.59147  Biso   1.000  H
  C543     1.0000 0.47653  0.11117  0.58876  Biso   1.000  C
  H545     1.0000 0.52843  0.91667  0.62207  Biso   1.000  H
  H546     1.0000 0.49794  0.85529  0.61397  Biso   1.000  H
  C544     1.0000 0.58983  0.90268  0.61249  Biso   1.000  C
  H547     1.0000 0.69442  0.13657  0.56647  Biso   1.000  H
  H548     1.0000 0.72894  0.17498  0.57897  Biso   1.000  H
  C545     1.0000 0.77133  0.22037  0.56204  Biso   1.000  C
  C546     1.0000 0.79685  0.14256  0.60728  Biso   1.000  C
  H549     1.0000 0.72194  0.97338  0.59807  Biso   1.000  H
  H550     1.0000 0.69005  0.93829  0.58497  Biso   1.000  H
  C547     1.0000 0.76732  0.93164  0.58969  Biso   1.000  C
  C548     1.0000 0.00215  0.52967  0.60525  Biso   1.000  C
  H551     1.0000 0.86342  0.55789  0.56647  Biso   1.000  H
  H552     1.0000 0.82503  0.55396  0.57897  Biso   1.000  H
  C549     1.0000 0.77961  0.55096  0.56204  Biso   1.000  C
  H553     1.0000 0.02662  0.74854  0.59807  Biso   1.000  H
  H554     1.0000 0.06174  0.75177  0.58497  Biso   1.000  H
  C550     1.0000 0.06832  0.83566  0.58969  Biso   1.000  C
  C551     1.0000 0.98414  0.50605  0.61924  Biso   1.000  C
  C552     1.0000 0.92273  0.50357  0.63724  Biso   1.000  C
  H555     1.0000 0.98715  0.68337  0.65477  Biso   1.000  H
  C553     1.0000 0.93711  0.72665  0.65913  Biso   1.000  C
  H556     1.0000 0.01872  0.75187  0.64937  Biso   1.000  H
  H557     1.0000 0.70803  0.40868  0.62726  Biso   1.000  H
  H558     1.0000 0.67343  0.41687  0.61527  Biso   1.000  H
  C554     1.0000 0.65435  0.44775  0.63249  Biso   1.000  C
  C555     1.0000 0.80075  0.16488  0.61994  Biso   1.000  C
  C556     1.0000 0.73034  0.10307  0.63824  Biso   1.000  C
  C557     1.0000 0.73101  0.19945  0.62953  Biso   1.000  C
  H559     1.0000 0.46621  0.09166  0.58016  Biso   1.000  H
  H560     1.0000 0.50244  0.15585  0.58736  Biso   1.000  H
  C558     1.0000 0.42163  0.10087  0.59450  Biso   1.000  C
  C559     1.0000 0.59374  0.85758  0.62285  Biso   1.000  C
  H561     1.0000 0.59513  0.89066  0.60377  Biso   1.000  H
  H562     1.0000 0.62312  0.94526  0.61406  Biso   1.000  H
  H563     1.0000 0.81424  0.24315  0.56517  Biso   1.000  H
  H564     1.0000 0.75323  0.24699  0.56327  Biso   1.000  H
  C560     1.0000 0.77162  0.20848  0.54902  Biso   1.000  C
  C561     1.0000 0.85323  0.15856  0.60058  Biso   1.000  C
  H565     1.0000 0.77556  0.92308  0.58087  Biso   1.000  H
  H566     1.0000 0.80724  0.95808  0.59397  Biso   1.000  H
  C562     1.0000 0.72815  0.86586  0.59781  Biso   1.000  C
  C563     1.0000 0.98113  0.47166  0.59633  Biso   1.000  C
  C564     1.0000 0.07444  0.57506  0.60471  Biso   1.000  C
  H567     1.0000 0.75685  0.57108  0.56517  Biso   1.000  H
  H568     1.0000 0.75306  0.50628  0.56327  Biso   1.000  H
  C565     1.0000 0.79155  0.56317  0.54902  Biso   1.000  C
  H569     1.0000 0.07692  0.85246  0.58087  Biso   1.000  H
  H570     1.0000 0.04193  0.84918  0.59397  Biso   1.000  H
  C566     1.0000 0.13414  0.86228  0.59781  Biso   1.000  C
  C567     1.0000 0.00392  0.47016  0.62604  Biso   1.000  C
  C568     1.0000 0.94302  0.46885  0.64394  Biso   1.000  C
  H571     1.0000 0.89515  0.51395  0.64117  Biso   1.000  H
  H572     1.0000 0.89854  0.68856  0.66066  Biso   1.000  H
  H573     1.0000 0.95770  0.74344  0.66737  Biso   1.000  H
  H574     1.0000 0.92871  0.75645  0.65487  Biso   1.000  H
  H575     1.0000 0.64034  0.47339  0.62826  Biso   1.000  H
  H576     1.0000 0.61883  0.40808  0.63476  Biso   1.000  H
  H577     1.0000 0.67694  0.46815  0.64027  Biso   1.000  H
  C569     1.0000 0.85875  0.20357  0.62589  Biso   1.000  C
  H578     1.0000 0.68891  0.08875  0.64177  Biso   1.000  H
  H579     1.0000 0.76031  0.13035  0.64477  Biso   1.000  H
  C570     1.0000 0.73801  0.05025  0.63675  Biso   1.000  C
  H580     1.0000 0.76315  0.22467  0.63586  Biso   1.000  H
  H581     1.0000 0.69082  0.18448  0.63376  Biso   1.000  H
  C571     1.0000 0.73543  0.24006  0.61847  Biso   1.000  C
  H582     1.0000 0.43083  0.12268  0.60267  Biso   1.000  H
  H583     1.0000 0.40103  0.11575  0.58876  Biso   1.000  H
  H584     1.0000 0.39491  0.05675  0.59596  Biso   1.000  H
  H585     1.0000 0.56243  0.81514  0.62097  Biso   1.000  H
  H586     1.0000 0.63442  0.86146  0.62247  Biso   1.000  H
  H587     1.0000 0.58683  0.86848  0.63147  Biso   1.000  H
  H588     1.0000 0.72934  0.18607  0.54586  Biso   1.000  H
  H589     1.0000 0.79454  0.24718  0.54436  Biso   1.000  H
  H590     1.0000 0.79104  0.18345  0.54767  Biso   1.000  H
  C572     1.0000 0.90963  0.19585  0.60650  Biso   1.000  C
  H591     1.0000 0.85183  0.14368  0.59217  Biso   1.000  H
  H592     1.0000 0.69033  0.83835  0.59317  Biso   1.000  H
  H593     1.0000 0.75324  0.84635  0.59867  Biso   1.000  H
  H594     1.0000 0.71773  0.87428  0.60637  Biso   1.000  H
  H595     1.0000 0.99623  0.48598  0.58747  Biso   1.000  H
  C573     1.0000 0.91134  0.42787  0.59580  Biso   1.000  C
  H596     1.0000 0.00081  0.44845  0.59946  Biso   1.000  H
  H597     1.0000 0.08533  0.59036  0.59577  Biso   1.000  H
  H598     1.0000 0.09473  0.55096  0.60656  Biso   1.000  H
  C574     1.0000 0.10041  0.62886  0.61347  Biso   1.000  C
  H599     1.0000 0.81395  0.54329  0.54586  Biso   1.000  H
  H600     1.0000 0.75281  0.54736  0.54436  Biso   1.000  H
  H601     1.0000 0.81655  0.60757  0.54767  Biso   1.000  H
  H602     1.0000 0.16165  0.85199  0.59317  Biso   1.000  H
  H603     1.0000 0.15364  0.90687  0.59867  Biso   1.000  H
  H604     1.0000 0.12575  0.84347  0.60637  Biso   1.000  H
  C575     1.0000 0.98423  0.45145  0.63860  Biso   1.000  C
  H605     1.0000 0.03083  0.45907  0.62207  Biso   1.000  H
  H606     1.0000 0.92862  0.45627  0.65246  Biso   1.000  H
  C576     1.0000 0.91353  0.21985  0.61926  Biso   1.000  C
  H607     1.0000 0.86031  0.21835  0.63436  Biso   1.000  H
  H608     1.0000 0.70532  0.01956  0.63117  Biso   1.000  H
  H609     1.0000 0.77812  0.06265  0.63267  Biso   1.000  H
  C577     1.0000 0.73464  0.02105  0.65047  Biso   1.000  C
  H610     1.0000 0.77211  0.24965  0.61327  Biso   1.000  H
  H611     1.0000 0.69902  0.21765  0.61287  Biso   1.000  H
  C578     1.0000 0.73993  0.30238  0.62303  Biso   1.000  C
  H612     1.0000 0.94635  0.20568  0.60207  Biso   1.000  H
  H613     1.0000 0.89564  0.41916  0.60477  Biso   1.000  H
  H614     1.0000 0.89253  0.44958  0.59147  Biso   1.000  H
  C579     1.0000 0.88884  0.36536  0.58876  Biso   1.000  C
  H615     1.0000 0.08332  0.61179  0.62207  Biso   1.000  H
  H616     1.0000 0.14475  0.64266  0.61397  Biso   1.000  H
  C580     1.0000 0.09735  0.68716  0.61249  Biso   1.000  C
  C581     1.0000 0.00302  0.41285  0.64628  Biso   1.000  C
  C582     1.0000 0.97583  0.25677  0.62519  Biso   1.000  C
  H617     1.0000 0.69622  0.01287  0.65477  Biso   1.000  H
  C583     1.0000 0.78954  0.06288  0.65913  Biso   1.000  C
  H618     1.0000 0.73315  0.98129  0.64937  Biso   1.000  H
  H619     1.0000 0.70063  0.29195  0.62726  Biso   1.000  H
  H620     1.0000 0.74343  0.32657  0.61527  Biso   1.000  H
  C584     1.0000 0.79341  0.34566  0.63249  Biso   1.000  C
  H621     1.0000 0.90836  0.37458  0.58016  Biso   1.000  H
  H622     1.0000 0.84414  0.34655  0.58736  Biso   1.000  H
  C585     1.0000 0.89912  0.32077  0.59450  Biso   1.000  C
  C586     1.0000 0.14242  0.73614  0.62285  Biso   1.000  C
  H623     1.0000 0.10933  0.70447  0.60377  Biso   1.000  H
  H624     1.0000 0.05473  0.67785  0.61406  Biso   1.000  H
  N23      1.0000 0.04350  0.40054  0.64251  Biso   1.000  N
  N24      1.0000 0.98166  0.27207  0.63739  Biso   1.000  N
  H625     1.0000 0.79004  0.10148  0.66066  Biso   1.000  H
  H626     1.0000 0.78571  0.04225  0.66737  Biso   1.000  H
  H627     1.0000 0.82773  0.07126  0.65487  Biso   1.000  H
  H628     1.0000 0.83303  0.35965  0.62826  Biso   1.000  H
  H629     1.0000 0.78925  0.38117  0.63476  Biso   1.000  H
  H630     1.0000 0.79123  0.32306  0.64027  Biso   1.000  H
  H631     1.0000 0.87735  0.30819  0.60267  Biso   1.000  H
  H632     1.0000 0.88424  0.28526  0.58876  Biso   1.000  H
  H633     1.0000 0.94324  0.33818  0.59596  Biso   1.000  H
  H634     1.0000 0.18482  0.74728  0.62097  Biso   1.000  H
  H635     1.0000 0.13855  0.77297  0.62247  Biso   1.000  H
  H636     1.0000 0.13155  0.71837  0.63147  Biso   1.000  H
  C587     1.0000 0.05434  0.35876  0.65115  Biso   1.000  C
  C588     1.0000 0.04471  0.30215  0.64282  Biso   1.000  C
  H637     1.0000 0.02353  0.34374  0.65827  Biso   1.000  H
  C589     1.0000 0.11985  0.39455  0.65700  Biso   1.000  C
  H638     1.0000 0.07535  0.31698  0.63567  Biso   1.000  H
  C590     1.0000 0.05125  0.25209  0.65120  Biso   1.000  C
  C591     1.0000 0.12843  0.39745  0.67028  Biso   1.000  C
  C592     1.0000 0.17203  0.42656  0.64941  Biso   1.000  C
  C593     1.0000 0.00443  0.21396  0.65993  Biso   1.000  C
  C594     1.0000 0.09913  0.24226  0.64932  Biso   1.000  C
  H639     1.0000 0.09404  0.37706  0.67576  Biso   1.000  H
  C595     1.0000 0.18785  0.43049  0.67564  Biso   1.000  C
  H640     1.0000 0.16753  0.42646  0.64036  Biso   1.000  H
  C596     1.0000 0.23086  0.45889  0.65473  Biso   1.000  C
  H641     1.0000 0.97196  0.22228  0.66127  Biso   1.000  H
  C597     1.0000 0.00234  0.16586  0.66666  Biso   1.000  C
  H642     1.0000 0.13155  0.26739  0.64367  Biso   1.000  H
  C598     1.0000 0.09923  0.18995  0.65657  Biso   1.000  C
  H643     1.0000 0.19241  0.43254  0.68467  Biso   1.000  H
  C599     1.0000 0.23804  0.45898  0.66812  Biso   1.000  C
  H644     1.0000 0.26552  0.48055  0.64937  Biso   1.000  H
  H645     1.0000 0.96933  0.14036  0.67216  Biso   1.000  H
  C600     1.0000 0.05145  0.15777  0.66474  Biso   1.000  C
  H646     1.0000 0.13082  0.18027  0.65546  Biso   1.000  H
  H647     1.0000 0.27772  0.47877  0.67187  Biso   1.000  H
  H648     1.0000 0.05241  0.12646  0.66957  Biso   1.000  H
  C601     1.0000 0.33567  0.83253  0.33334  Biso   1.000  C
  C602     1.0000 0.33778  0.88067  0.32659  Biso   1.000  C
  C603     1.0000 0.33776  0.88062  0.32659  Biso   1.000  C
  C604     1.0000 0.38481  0.82448  0.33140  Biso   1.000  C
  H649     1.0000 0.30269  0.80707  0.33884  Biso   1.000  H
  C605     1.0000 0.38478  0.82443  0.33140  Biso   1.000  C
  H650     1.0000 0.30266  0.80703  0.33884  Biso   1.000  H
  C606     1.0000 0.38458  0.91875  0.31786  Biso   1.000  C
  H651     1.0000 0.30529  0.88895  0.32793  Biso   1.000  H
  C607     1.0000 0.33569  0.83257  0.33334  Biso   1.000  C
  C608     1.0000 0.43259  0.85667  0.32325  Biso   1.000  C
  C609     1.0000 0.43257  0.85662  0.32325  Biso   1.000  C
  H652     1.0000 0.38577  0.79318  0.33623  Biso   1.000  H
  H653     1.0000 0.38575  0.79313  0.33623  Biso   1.000  H
  C610     1.0000 0.37807  0.96886  0.30950  Biso   1.000  C
  C611     1.0000 0.37805  0.96882  0.30950  Biso   1.000  C
  C612     1.0000 0.43249  0.90898  0.31598  Biso   1.000  C
  C613     1.0000 0.43246  0.90893  0.31598  Biso   1.000  C
  H654     1.0000 0.46415  0.84694  0.32214  Biso   1.000  H
  N25      1.0000 0.31501  0.93878  0.30407  Biso   1.000  N
  N26      1.0000 0.31499  0.93873  0.30407  Biso   1.000  N
  H655     1.0000 0.40868  0.98365  0.30233  Biso   1.000  H
  C614     1.0000 0.38770  0.02548  0.31781  Biso   1.000  C
  C615     1.0000 0.38767  0.02543  0.31781  Biso   1.000  C
  H656     1.0000 0.46488  0.93405  0.31033  Biso   1.000  H
  C616     1.0000 0.30919  0.92348  0.29187  Biso   1.000  C
  C617     1.0000 0.30916  0.92343  0.29187  Biso   1.000  C
  N27      1.0000 0.37686  0.06726  0.30917  Biso   1.000  N
  H657     1.0000 0.35689  0.01046  0.32493  Biso   1.000  H
  C618     1.0000 0.45320  0.06127  0.32368  Biso   1.000  C
  N28      1.0000 0.37684  0.06721  0.30917  Biso   1.000  N
  C619     1.0000 0.45318  0.06122  0.32368  Biso   1.000  C
  C620     1.0000 0.24689  0.88656  0.28592  Biso   1.000  C
  C621     1.0000 0.24687  0.88652  0.28592  Biso   1.000  C
  C622     1.0000 0.33638  0.07956  0.31294  Biso   1.000  C
  C623     1.0000 0.33635  0.07951  0.31294  Biso   1.000  C
  C624     1.0000 0.46178  0.06417  0.33696  Biso   1.000  C
  C625     1.0000 0.50539  0.09327  0.31609  Biso   1.000  C
  C626     1.0000 0.46176  0.06412  0.33696  Biso   1.000  C
  C627     1.0000 0.50536  0.09322  0.31609  Biso   1.000  C
  C628     1.0000 0.19209  0.87024  0.29255  Biso   1.000  C
  C629     1.0000 0.24299  0.86256  0.27318  Biso   1.000  C
  C630     1.0000 0.24297  0.86252  0.27318  Biso   1.000  C
  C631     1.0000 0.31759  0.11816  0.30526  Biso   1.000  C
  C632     1.0000 0.31757  0.11811  0.30526  Biso   1.000  C
  H658     1.0000 0.42739  0.04377  0.34244  Biso   1.000  H
  C633     1.0000 0.52119  0.09715  0.34230  Biso   1.000  C
  H659     1.0000 0.42737  0.04372  0.34244  Biso   1.000  H
  H660     1.0000 0.50088  0.09318  0.30704  Biso   1.000  H
  C634     1.0000 0.56419  0.12555  0.32139  Biso   1.000  C
  H661     1.0000 0.50086  0.09313  0.30704  Biso   1.000  H
  C635     1.0000 0.13409  0.83154  0.28660  Biso   1.000  C
  H662     1.0000 0.19367  0.88507  0.30104  Biso   1.000  H
  H663     1.0000 0.19364  0.88502  0.30104  Biso   1.000  H
  C636     1.0000 0.18658  0.82527  0.26724  Biso   1.000  C
  C637     1.0000 0.18656  0.82523  0.26724  Biso   1.000  C
  H664     1.0000 0.27969  0.87234  0.26873  Biso   1.000  H
  C638     1.0000 0.33728  0.13687  0.29270  Biso   1.000  C
  C639     1.0000 0.27637  0.13556  0.31062  Biso   1.000  C
  C640     1.0000 0.33726  0.13683  0.29270  Biso   1.000  C
  C641     1.0000 0.27635  0.13552  0.31062  Biso   1.000  C
  H665     1.0000 0.52576  0.09926  0.35133  Biso   1.000  H
  C642     1.0000 0.57137  0.12565  0.33480  Biso   1.000  C
  H666     1.0000 0.52574  0.09921  0.35133  Biso   1.000  H
  H667     1.0000 0.59887  0.14726  0.31603  Biso   1.000  H
  H668     1.0000 0.59885  0.14721  0.31603  Biso   1.000  H
  C643     1.0000 0.13020  0.80927  0.27394  Biso   1.000  C
  C644     1.0000 0.13018  0.80923  0.27394  Biso   1.000  C
  C645     1.0000 0.07126  0.80946  0.29259  Biso   1.000  C
  C646     1.0000 0.07124  0.80941  0.29259  Biso   1.000  C
  H669     1.0000 0.18516  0.81035  0.25883  Biso   1.000  H
  H670     1.0000 0.36417  0.12574  0.28873  Biso   1.000  H
  C647     1.0000 0.31750  0.17276  0.28590  Biso   1.000  C
  C648     1.0000 0.31748  0.17271  0.28590  Biso   1.000  C
  H671     1.0000 0.26198  0.12298  0.31914  Biso   1.000  H
  C649     1.0000 0.25607  0.17023  0.30390  Biso   1.000  C
  H672     1.0000 0.26195  0.12293  0.31914  Biso   1.000  H
  H673     1.0000 0.61105  0.14544  0.33853  Biso   1.000  H
  C650     1.0000 0.06257  0.76988  0.27053  Biso   1.000  C
  C651     1.0000 0.06255  0.76983  0.27053  Biso   1.000  C
  C652     1.0000 0.02729  0.76918  0.28152  Biso   1.000  C
  C653     1.0000 0.02727  0.76913  0.28152  Biso   1.000  C
  C654     1.0000 0.06368  0.76974  0.30490  Biso   1.000  C
  C655     1.0000 0.06436  0.86617  0.29619  Biso   1.000  C
  C656     1.0000 0.06434  0.86612  0.29619  Biso   1.000  C
  C657     1.0000 0.27720  0.18998  0.29102  Biso   1.000  C
  C658     1.0000 0.33549  0.19634  0.27191  Biso   1.000  C
  C659     1.0000 0.27718  0.18993  0.29102  Biso   1.000  C
  H674     1.0000 0.22850  0.18067  0.30783  Biso   1.000  H
  H675     1.0000 0.22848  0.18062  0.30783  Biso   1.000  H
  C660     1.0000 0.03189  0.73614  0.25935  Biso   1.000  C
  C661     1.0000 0.96226  0.73465  0.28129  Biso   1.000  C
  H676     1.0000 0.02226  0.75547  0.30843  Biso   1.000  H
  H677     1.0000 0.09367  0.79706  0.31143  Biso   1.000  H
  C662     1.0000 0.07137  0.71696  0.30341  Biso   1.000  C
  H678     1.0000 0.02224  0.75542  0.30843  Biso   1.000  H
  H679     1.0000 0.09365  0.79701  0.31143  Biso   1.000  H
  C663     1.0000 0.07134  0.71692  0.30341  Biso   1.000  C
  H680     1.0000 0.09648  0.89134  0.30254  Biso   1.000  H
  H681     1.0000 0.02416  0.85115  0.30044  Biso   1.000  H
  C664     1.0000 0.06879  0.90678  0.28513  Biso   1.000  C
  C665     1.0000 0.06876  0.90673  0.28513  Biso   1.000  C
  C666     1.0000 0.26536  0.22764  0.28129  Biso   1.000  C
  C667     1.0000 0.31449  0.13837  0.26301  Biso   1.000  C
  C668     1.0000 0.40780  0.24177  0.27137  Biso   1.000  C
  C669     1.0000 0.30068  0.23166  0.26990  Biso   1.000  C
  C670     1.0000 0.31446  0.13833  0.26301  Biso   1.000  C
  C671     1.0000 0.40777  0.24172  0.27137  Biso   1.000  C
  C672     1.0000 0.30066  0.23162  0.26990  Biso   1.000  C
  C673     1.0000 0.06026  0.72814  0.24647  Biso   1.000  C
  C674     1.0000 0.96577  0.70236  0.25894  Biso   1.000  C
  C675     1.0000 0.96575  0.70232  0.25894  Biso   1.000  C
  C676     1.0000 0.93097  0.69937  0.26990  Biso   1.000  C
  C677     1.0000 0.93094  0.69932  0.26990  Biso   1.000  C
  C678     1.0000 0.91277  0.72286  0.29102  Biso   1.000  C
  C679     1.0000 0.91274  0.72281  0.29102  Biso   1.000  C
  H682     1.0000 0.03868  0.68627  0.29783  Biso   1.000  H
  H683     1.0000 0.11148  0.72936  0.29933  Biso   1.000  H
  C680     1.0000 0.06799  0.68777  0.31715  Biso   1.000  C
  H684     1.0000 0.03865  0.68622  0.29783  Biso   1.000  H
  H685     1.0000 0.11146  0.72931  0.29933  Biso   1.000  H
  C681     1.0000 0.06797  0.68772  0.31715  Biso   1.000  C
  H686     1.0000 0.10547  0.91637  0.27993  Biso   1.000  H
  H687     1.0000 0.03238  0.88437  0.27953  Biso   1.000  H
  C682     1.0000 0.07326  0.96905  0.28969  Biso   1.000  C
  H688     1.0000 0.10545  0.91632  0.27993  Biso   1.000  H
  H689     1.0000 0.03235  0.88432  0.27953  Biso   1.000  H
  C683     1.0000 0.23086  0.25815  0.28152  Biso   1.000  C
  H690     1.0000 0.33416  0.11517  0.26614  Biso   1.000  H
  H691     1.0000 0.32956  0.15264  0.25413  Biso   1.000  H
  C684     1.0000 0.24470  0.09458  0.26246  Biso   1.000  C
  H692     1.0000 0.33414  0.11512  0.26614  Biso   1.000  H
  C685     1.0000 0.24467  0.09453  0.26246  Biso   1.000  C
  H693     1.0000 0.41869  0.25707  0.26243  Biso   1.000  H
  H694     1.0000 0.42808  0.21768  0.27324  Biso   1.000  H
  C686     1.0000 0.43377  0.29558  0.28013  Biso   1.000  C
  H695     1.0000 0.41867  0.25702  0.26243  Biso   1.000  H
  H696     1.0000 0.42806  0.21763  0.27324  Biso   1.000  H
  C687     1.0000 0.43375  0.29553  0.28013  Biso   1.000  C
  C688     1.0000 0.29768  0.26343  0.25894  Biso   1.000  C
  C689     1.0000 0.09660  0.69207  0.24856  Biso   1.000  C
  C690     1.0000 0.09658  0.69202  0.24856  Biso   1.000  C
  C691     1.0000 0.00147  0.68707  0.23890  Biso   1.000  C
  C692     1.0000 0.09846  0.78906  0.23884  Biso   1.000  C
  C693     1.0000 0.00145  0.68702  0.23890  Biso   1.000  C
  C694     1.0000 0.09844  0.78901  0.23884  Biso   1.000  C
  C695     1.0000 0.94729  0.67116  0.24573  Biso   1.000  C
  C696     1.0000 0.94727  0.67111  0.24573  Biso   1.000  C
  C697     1.0000 0.86089  0.66456  0.27191  Biso   1.000  C
  C698     1.0000 0.86086  0.66451  0.27191  Biso   1.000  C
  C699     1.0000 0.85531  0.68257  0.28590  Biso   1.000  C
  C700     1.0000 0.85528  0.68253  0.28590  Biso   1.000  C
  C701     1.0000 0.91416  0.74396  0.30390  Biso   1.000  C
  C702     1.0000 0.91414  0.74391  0.30390  Biso   1.000  C
  H697     1.0000 0.06648  0.64795  0.31603  Biso   1.000  H
  H698     1.0000 0.02958  0.67958  0.32143  Biso   1.000  H
  C703     1.0000 0.12288  0.72955  0.32581  Biso   1.000  C
  H699     1.0000 0.02956  0.67953  0.32143  Biso   1.000  H
  H700     1.0000 0.03399  0.95866  0.29394  Biso   1.000  H
  H701     1.0000 0.07677  0.99324  0.28193  Biso   1.000  H
  H702     1.0000 0.03397  0.95862  0.29394  Biso   1.000  H
  C704     1.0000 0.12677  0.01237  0.29915  Biso   1.000  C
  C705     1.0000 0.12675  0.01233  0.29915  Biso   1.000  C
  C706     1.0000 0.19056  0.26184  0.29259  Biso   1.000  C
  C707     1.0000 0.23018  0.29277  0.27053  Biso   1.000  C
  C708     1.0000 0.23015  0.29272  0.27053  Biso   1.000  C
  H703     1.0000 0.22900  0.08588  0.27143  Biso   1.000  H
  H704     1.0000 0.22587  0.11624  0.25813  Biso   1.000  H
  C709     1.0000 0.22219  0.03207  0.25544  Biso   1.000  C
  H705     1.0000 0.22898  0.08583  0.27143  Biso   1.000  H
  C710     1.0000 0.22217  0.03203  0.25544  Biso   1.000  C
  H706     1.0000 0.41666  0.27845  0.28873  Biso   1.000  H
  H707     1.0000 0.47811  0.30938  0.28063  Biso   1.000  H
  C711     1.0000 0.43070  0.35387  0.27915  Biso   1.000  C
  H708     1.0000 0.47809  0.30933  0.28063  Biso   1.000  H
  C712     1.0000 0.43068  0.35383  0.27915  Biso   1.000  C
  C713     1.0000 0.32888  0.27616  0.24573  Biso   1.000  C
  C714     1.0000 0.26389  0.29576  0.25935  Biso   1.000  C
  C715     1.0000 0.32886  0.27611  0.24573  Biso   1.000  C
  C716     1.0000 0.26386  0.29572  0.25935  Biso   1.000  C
  C717     1.0000 0.06338  0.63186  0.25585  Biso   1.000  C
  C718     1.0000 0.06335  0.63181  0.25585  Biso   1.000  C
  H709     1.0000 0.13509  0.71944  0.25323  Biso   1.000  H
  H710     1.0000 0.10799  0.68365  0.24003  Biso   1.000  H
  C719     1.0000 0.99868  0.66526  0.22619  Biso   1.000  C
  C720     1.0000 0.99865  0.66522  0.22619  Biso   1.000  C
  H711     1.0000 0.10758  0.77877  0.23024  Biso   1.000  H
  H712     1.0000 0.13809  0.81386  0.24334  Biso   1.000  H
  C721     1.0000 0.06870  0.82897  0.23703  Biso   1.000  C
  H713     1.0000 0.10755  0.77872  0.23024  Biso   1.000  H
  H714     1.0000 0.13806  0.81381  0.24334  Biso   1.000  H
  C722     1.0000 0.06868  0.82892  0.23703  Biso   1.000  C
  C723     1.0000 0.88940  0.63228  0.23989  Biso   1.000  C
  C724     1.0000 0.88937  0.63223  0.23989  Biso   1.000  C
  C725     1.0000 0.82390  0.68557  0.26301  Biso   1.000  C
  C726     1.0000 0.83398  0.59228  0.27137  Biso   1.000  C
  C727     1.0000 0.82388  0.68552  0.26301  Biso   1.000  C
  C728     1.0000 0.83396  0.59223  0.27137  Biso   1.000  C
  C729     1.0000 0.79956  0.66274  0.29270  Biso   1.000  C
  C730     1.0000 0.85919  0.72365  0.31062  Biso   1.000  C
  H715     1.0000 0.95219  0.77156  0.30783  Biso   1.000  H
  H716     1.0000 0.95217  0.77152  0.30783  Biso   1.000  H
  H717     1.0000 0.12338  0.76815  0.32734  Biso   1.000  H
  H718     1.0000 0.11907  0.70896  0.33403  Biso   1.000  H
  H719     1.0000 0.16108  0.73797  0.32153  Biso   1.000  H
  H720     1.0000 0.11904  0.70892  0.33403  Biso   1.000  H
  H721     1.0000 0.16106  0.73792  0.32153  Biso   1.000  H
  H722     1.0000 0.12459  0.98978  0.30693  Biso   1.000  H
  H723     1.0000 0.12457  0.98973  0.30693  Biso   1.000  H
  H724     1.0000 0.16638  0.02636  0.29494  Biso   1.000  H
  H725     1.0000 0.12258  0.04784  0.30144  Biso   1.000  H
  H726     1.0000 0.16636  0.02632  0.29494  Biso   1.000  H
  C731     1.0000 0.16845  0.30255  0.28660  Biso   1.000  C
  C732     1.0000 0.23028  0.29394  0.30490  Biso   1.000  C
  C733     1.0000 0.13389  0.19826  0.29619  Biso   1.000  C
  C734     1.0000 0.13387  0.19821  0.29619  Biso   1.000  C
  C735     1.0000 0.19078  0.32093  0.27394  Biso   1.000  C
  C736     1.0000 0.23245  0.98744  0.26116  Biso   1.000  C
  H727     1.0000 0.24169  0.04124  0.24684  Biso   1.000  H
  H728     1.0000 0.17750  0.01326  0.25404  Biso   1.000  H
  H729     1.0000 0.17748  0.01322  0.25404  Biso   1.000  H
  C737     1.0000 0.47578  0.40286  0.28951  Biso   1.000  C
  H730     1.0000 0.44266  0.37114  0.27043  Biso   1.000  H
  H731     1.0000 0.38808  0.34456  0.28074  Biso   1.000  H
  C738     1.0000 0.47576  0.40281  0.28951  Biso   1.000  C
  H732     1.0000 0.38806  0.34451  0.28074  Biso   1.000  H
  C739     1.0000 0.31299  0.31448  0.23890  Biso   1.000  C
  C740     1.0000 0.36776  0.25716  0.23989  Biso   1.000  C
  C741     1.0000 0.31297  0.31443  0.23890  Biso   1.000  C
  C742     1.0000 0.36774  0.25712  0.23989  Biso   1.000  C
  C743     1.0000 0.27188  0.33216  0.24647  Biso   1.000  C
  C744     1.0000 0.27185  0.33212  0.24647  Biso   1.000  C
  C745     1.0000 0.10068  0.59836  0.25635  Biso   1.000  C
  C746     1.0000 0.10065  0.59831  0.25635  Biso   1.000  C
  H733     1.0000 0.05527  0.64004  0.26473  Biso   1.000  H
  H734     1.0000 0.02338  0.60495  0.25163  Biso   1.000  H
  H735     1.0000 0.03537  0.67616  0.22164  Biso   1.000  H
  H736     1.0000 0.03534  0.67612  0.22164  Biso   1.000  H
  C747     1.0000 0.94149  0.62755  0.22037  Biso   1.000  C
  H737     1.0000 0.02775  0.80324  0.23313  Biso   1.000  H
  H738     1.0000 0.06228  0.84165  0.24563  Biso   1.000  H
  C748     1.0000 0.10468  0.88708  0.22872  Biso   1.000  C
  C749     1.0000 0.10466  0.88703  0.22872  Biso   1.000  C
  C750     1.0000 0.88917  0.61197  0.22723  Biso   1.000  C
  C751     1.0000 0.88915  0.61193  0.22723  Biso   1.000  C
  H739     1.0000 0.85228  0.62044  0.24434  Biso   1.000  H
  H740     1.0000 0.78099  0.66587  0.26614  Biso   1.000  H
  H741     1.0000 0.82307  0.67046  0.25413  Biso   1.000  H
  C752     1.0000 0.84989  0.75537  0.26246  Biso   1.000  C
  H742     1.0000 0.78097  0.66582  0.26614  Biso   1.000  H
  C753     1.0000 0.84987  0.75533  0.26246  Biso   1.000  C
  H743     1.0000 0.83838  0.58137  0.26243  Biso   1.000  H
  H744     1.0000 0.78959  0.57197  0.27324  Biso   1.000  H
  C754     1.0000 0.86178  0.56626  0.28013  Biso   1.000  C
  H745     1.0000 0.83835  0.58133  0.26243  Biso   1.000  H
  H746     1.0000 0.78957  0.57192  0.27324  Biso   1.000  H
  C755     1.0000 0.86175  0.56621  0.28013  Biso   1.000  C
  H747     1.0000 0.76156  0.63583  0.28873  Biso   1.000  H
  C756     1.0000 0.80058  0.68243  0.30526  Biso   1.000  C
  H748     1.0000 0.86097  0.73806  0.31914  Biso   1.000  H
  H749     1.0000 0.86095  0.73802  0.31914  Biso   1.000  H
  C757     1.0000 0.12978  0.32187  0.29255  Biso   1.000  C
  C758     1.0000 0.12975  0.32182  0.29255  Biso   1.000  C
  H750     1.0000 0.24457  0.26685  0.30843  Biso   1.000  H
  H751     1.0000 0.20299  0.29665  0.31143  Biso   1.000  H
  C759     1.0000 0.28305  0.35443  0.30341  Biso   1.000  C
  H752     1.0000 0.10869  0.20514  0.30254  Biso   1.000  H
  H753     1.0000 0.14888  0.17304  0.30044  Biso   1.000  H
  C760     1.0000 0.09326  0.16205  0.28513  Biso   1.000  C
  C761     1.0000 0.17476  0.36136  0.26724  Biso   1.000  C
  C762     1.0000 0.17474  0.36131  0.26724  Biso   1.000  C
  H754     1.0000 0.21068  0.97485  0.26933  Biso   1.000  H
  H755     1.0000 0.21760  0.95197  0.25544  Biso   1.000  H
  H756     1.0000 0.21758  0.95193  0.25544  Biso   1.000  H
  H757     1.0000 0.27657  0.00484  0.26264  Biso   1.000  H
  H758     1.0000 0.51816  0.41395  0.28763  Biso   1.000  H
  H759     1.0000 0.47191  0.43968  0.28913  Biso   1.000  H
  H760     1.0000 0.46491  0.38508  0.29813  Biso   1.000  H
  H761     1.0000 0.47188  0.43963  0.28913  Biso   1.000  H
  H762     1.0000 0.46488  0.38503  0.29813  Biso   1.000  H
  C763     1.0000 0.33477  0.33347  0.22619  Biso   1.000  C
  C764     1.0000 0.33474  0.33343  0.22619  Biso   1.000  C
  C765     1.0000 0.38805  0.27724  0.22723  Biso   1.000  C
  H763     1.0000 0.37958  0.23185  0.24434  Biso   1.000  H
  C766     1.0000 0.21098  0.30947  0.23884  Biso   1.000  C
  C767     1.0000 0.30798  0.40454  0.24856  Biso   1.000  C
  C768     1.0000 0.21095  0.30942  0.23884  Biso   1.000  C
  C769     1.0000 0.06148  0.53253  0.26447  Biso   1.000  C
  H764     1.0000 0.10889  0.58975  0.24753  Biso   1.000  H
  H765     1.0000 0.14057  0.62475  0.26063  Biso   1.000  H
  C770     1.0000 0.06151  0.53258  0.26447  Biso   1.000  C
  C771     1.0000 0.93739  0.60467  0.20663  Biso   1.000  C
  C772     1.0000 0.93736  0.60463  0.20663  Biso   1.000  C
  H766     1.0000 0.14760  0.90986  0.23183  Biso   1.000  H
  H767     1.0000 0.08657  0.91365  0.22993  Biso   1.000  H
  C773     1.0000 0.10496  0.87515  0.21568  Biso   1.000  C
  H768     1.0000 0.14758  0.90982  0.23183  Biso   1.000  H
  H769     1.0000 0.85077  0.58605  0.22323  Biso   1.000  H
  H770     1.0000 0.85688  0.77105  0.27143  Biso   1.000  H
  H771     1.0000 0.89035  0.77414  0.25813  Biso   1.000  H
  C774     1.0000 0.80989  0.77788  0.25544  Biso   1.000  C
  C775     1.0000 0.80986  0.77783  0.25544  Biso   1.000  C
  H772     1.0000 0.86177  0.58334  0.28873  Biso   1.000  H
  H773     1.0000 0.83128  0.52195  0.28063  Biso   1.000  H
  C776     1.0000 0.92317  0.56935  0.27915  Biso   1.000  C
  C777     1.0000 0.74318  0.66367  0.31294  Biso   1.000  C
  C778     1.0000 0.74316  0.66363  0.31294  Biso   1.000  C
  C779     1.0000 0.11349  0.36038  0.28592  Biso   1.000  C
  H774     1.0000 0.11499  0.30868  0.30104  Biso   1.000  H
  C780     1.0000 0.11347  0.36033  0.28592  Biso   1.000  C
  H775     1.0000 0.11497  0.30863  0.30104  Biso   1.000  H
  H776     1.0000 0.31380  0.35247  0.29783  Biso   1.000  H
  H777     1.0000 0.27071  0.38218  0.29933  Biso   1.000  H
  C781     1.0000 0.31229  0.38026  0.31715  Biso   1.000  C
  H778     1.0000 0.31377  0.35242  0.29783  Biso   1.000  H
  H779     1.0000 0.27068  0.38213  0.29933  Biso   1.000  H
  C782     1.0000 0.31227  0.38021  0.31715  Biso   1.000  C
  H780     1.0000 0.08367  0.18914  0.27993  Biso   1.000  H
  H781     1.0000 0.11568  0.14806  0.27953  Biso   1.000  H
  C783     1.0000 0.03098  0.10426  0.28969  Biso   1.000  C
  H782     1.0000 0.11566  0.14801  0.27953  Biso   1.000  H
  C784     1.0000 0.03096  0.10422  0.28969  Biso   1.000  C
  C785     1.0000 0.13747  0.38045  0.27318  Biso   1.000  C
  H783     1.0000 0.18971  0.37488  0.25883  Biso   1.000  H
  H784     1.0000 0.18969  0.37483  0.25883  Biso   1.000  H
  H785     1.0000 0.32387  0.35925  0.22164  Biso   1.000  H
  C786     1.0000 0.37250  0.31396  0.22037  Biso   1.000  C
  C787     1.0000 0.37248  0.31392  0.22037  Biso   1.000  C
  H786     1.0000 0.41398  0.26474  0.22323  Biso   1.000  H
  H787     1.0000 0.22127  0.32884  0.23024  Biso   1.000  H
  H788     1.0000 0.18620  0.32426  0.24334  Biso   1.000  H
  C788     1.0000 0.17110  0.23976  0.23703  Biso   1.000  C
  C789     1.0000 0.17107  0.23971  0.23703  Biso   1.000  C
  H789     1.0000 0.28057  0.41568  0.25323  Biso   1.000  H
  H790     1.0000 0.31638  0.42433  0.24003  Biso   1.000  H
  C790     1.0000 0.36816  0.43154  0.25585  Biso   1.000  C
  H791     1.0000 0.28055  0.41563  0.25323  Biso   1.000  H
  H792     1.0000 0.02368  0.50506  0.25983  Biso   1.000  H
  H793     1.0000 0.08660  0.51307  0.26533  Biso   1.000  H
  H794     1.0000 0.05107  0.54095  0.27303  Biso   1.000  H
  H795     1.0000 0.02366  0.50502  0.25983  Biso   1.000  H
  H796     1.0000 0.08657  0.51302  0.26533  Biso   1.000  H
  N29      1.0000 0.98377  0.61300  0.20004  Biso   1.000  N
  H797     1.0000 0.06267  0.85274  0.21254  Biso   1.000  H
  H798     1.0000 0.12787  0.91384  0.21104  Biso   1.000  H
  H799     1.0000 0.12439  0.85016  0.21433  Biso   1.000  H
  H800     1.0000 0.12437  0.85012  0.21433  Biso   1.000  H
  H801     1.0000 0.79957  0.75837  0.24684  Biso   1.000  H
  H802     1.0000 0.83579  0.82256  0.25404  Biso   1.000  H
  C791     1.0000 0.75496  0.76754  0.26116  Biso   1.000  C
  H803     1.0000 0.79954  0.75832  0.24684  Biso   1.000  H
  H804     1.0000 0.83577  0.82251  0.25404  Biso   1.000  H
  C792     1.0000 0.92707  0.52425  0.28951  Biso   1.000  C
  H805     1.0000 0.92848  0.55737  0.27043  Biso   1.000  H
  H806     1.0000 0.95647  0.61197  0.28074  Biso   1.000  H
  H807     1.0000 0.92846  0.55733  0.27043  Biso   1.000  H
  H808     1.0000 0.95645  0.61193  0.28074  Biso   1.000  H
  N30      1.0000 0.69039  0.62315  0.30917  Biso   1.000  N
  C793     1.0000 0.07658  0.38573  0.29187  Biso   1.000  C
  H809     1.0000 0.35208  0.41858  0.31603  Biso   1.000  H
  H810     1.0000 0.32048  0.35004  0.32143  Biso   1.000  H
  C794     1.0000 0.27046  0.39336  0.32581  Biso   1.000  C
  H811     1.0000 0.35205  0.41853  0.31603  Biso   1.000  H
  C795     1.0000 0.27044  0.39331  0.32581  Biso   1.000  C
  C796     1.0000 0.98770  0.11446  0.29915  Biso   1.000  C
  C797     1.0000 0.98768  0.11442  0.29915  Biso   1.000  C
  H812     1.0000 0.04136  0.07535  0.29394  Biso   1.000  H
  H813     1.0000 0.00676  0.08354  0.28193  Biso   1.000  H
  H814     1.0000 0.12766  0.40735  0.26873  Biso   1.000  H
  C798     1.0000 0.39540  0.33277  0.20663  Biso   1.000  C
  C799     1.0000 0.39537  0.33272  0.20663  Biso   1.000  C
  H815     1.0000 0.19676  0.22455  0.23313  Biso   1.000  H
  H816     1.0000 0.15839  0.22067  0.24563  Biso   1.000  H
  C800     1.0000 0.11297  0.21768  0.22872  Biso   1.000  C
  H817     1.0000 0.15837  0.22062  0.24563  Biso   1.000  H
  C801     1.0000 0.11295  0.21763  0.22872  Biso   1.000  C
  H818     1.0000 0.35998  0.41526  0.26473  Biso   1.000  H
  H819     1.0000 0.39508  0.41844  0.25163  Biso   1.000  H
  C802     1.0000 0.40167  0.50237  0.25635  Biso   1.000  C
  H820     1.0000 0.35996  0.41521  0.26473  Biso   1.000  H
  C803     1.0000 0.40165  0.50233  0.25635  Biso   1.000  C
  C804     1.0000 0.97223  0.58718  0.18669  Biso   1.000  C
  H821     1.0000 0.76416  0.78934  0.26933  Biso   1.000  H
  H822     1.0000 0.73438  0.78246  0.25544  Biso   1.000  H
  H823     1.0000 0.72826  0.72347  0.26264  Biso   1.000  H
  H824     1.0000 0.73436  0.78242  0.25544  Biso   1.000  H
  H825     1.0000 0.72824  0.72342  0.26264  Biso   1.000  H
  H826     1.0000 0.89579  0.48186  0.28763  Biso   1.000  H
  H827     1.0000 0.96778  0.52818  0.28913  Biso   1.000  H
  H828     1.0000 0.92017  0.53515  0.29813  Biso   1.000  H
  H829     1.0000 0.89577  0.48181  0.28763  Biso   1.000  H
  H830     1.0000 0.96775  0.52813  0.28913  Biso   1.000  H
  C805     1.0000 0.63778  0.61235  0.31781  Biso   1.000  C
  N31      1.0000 0.06125  0.37624  0.30407  Biso   1.000  N
  H831     1.0000 0.23189  0.35528  0.32734  Biso   1.000  H
  H832     1.0000 0.29106  0.41016  0.33403  Biso   1.000  H
  H833     1.0000 0.26207  0.42316  0.32153  Biso   1.000  H
  H834     1.0000 0.23187  0.35523  0.32734  Biso   1.000  H
  H835     1.0000 0.29104  0.41011  0.33403  Biso   1.000  H
  H836     1.0000 0.26204  0.42312  0.32153  Biso   1.000  H
  H837     1.0000 0.97367  0.14006  0.29494  Biso   1.000  H
  H838     1.0000 0.95216  0.07474  0.30144  Biso   1.000  H
  H839     1.0000 0.01030  0.13486  0.30693  Biso   1.000  H
  H840     1.0000 0.01028  0.13482  0.30693  Biso   1.000  H
  N32      1.0000 0.38703  0.37081  0.20004  Biso   1.000  N
  N33      1.0000 0.38700  0.37076  0.20004  Biso   1.000  N
  H841     1.0000 0.09019  0.23775  0.23183  Biso   1.000  H
  H842     1.0000 0.08639  0.17295  0.22993  Biso   1.000  H
  C806     1.0000 0.12489  0.22984  0.21568  Biso   1.000  C
  H843     1.0000 0.41027  0.51917  0.24753  Biso   1.000  H
  H844     1.0000 0.37527  0.51585  0.26063  Biso   1.000  H
  C807     1.0000 0.46747  0.52895  0.26447  Biso   1.000  C
  H845     1.0000 0.41025  0.51912  0.24753  Biso   1.000  H
  C808     1.0000 0.01706  0.63817  0.17739  Biso   1.000  C
  H846     1.0000 0.92927  0.57515  0.18424  Biso   1.000  H
  C809     1.0000 0.97820  0.52949  0.18671  Biso   1.000  C
  H847     1.0000 0.65360  0.64318  0.32493  Biso   1.000  H
  C810     1.0000 0.60807  0.54685  0.32368  Biso   1.000  C
  C811     1.0000 0.59075  0.62194  0.30950  Biso   1.000  C
  H848     1.0000 0.65358  0.64313  0.32493  Biso   1.000  H
  C812     1.0000 0.03117  0.40927  0.30950  Biso   1.000  C
  C813     1.0000 0.03115  0.40922  0.30950  Biso   1.000  C
  C814     1.0000 0.41284  0.38508  0.18669  Biso   1.000  C
  C815     1.0000 0.41282  0.38503  0.18669  Biso   1.000  C
  H849     1.0000 0.14728  0.20996  0.21254  Biso   1.000  H
  H850     1.0000 0.08617  0.21407  0.21104  Biso   1.000  H
  H851     1.0000 0.14988  0.27424  0.21433  Biso   1.000  H
  H852     1.0000 0.08615  0.21403  0.21104  Biso   1.000  H
  H853     1.0000 0.49498  0.51866  0.25983  Biso   1.000  H
  H854     1.0000 0.48697  0.57354  0.26533  Biso   1.000  H
  H855     1.0000 0.45908  0.51014  0.27303  Biso   1.000  H
  N34      1.0000 0.00665  0.69198  0.17842  Biso   1.000  N
  H856     1.0000 0.05998  0.65165  0.18014  Biso   1.000  H
  C816     1.0000 0.01007  0.61843  0.16318  Biso   1.000  C
  N35      1.0000 0.00662  0.69193  0.17842  Biso   1.000  N
  C817     1.0000 0.01004  0.61838  0.16318  Biso   1.000  C
  C818     1.0000 0.03559  0.53365  0.18895  Biso   1.000  C
  C819     1.0000 0.92858  0.47208  0.18489  Biso   1.000  C
  C820     1.0000 0.92856  0.47203  0.18489  Biso   1.000  C
  C821     1.0000 0.60238  0.53824  0.33696  Biso   1.000  C
  C822     1.0000 0.58790  0.49468  0.31609  Biso   1.000  C
  C823     1.0000 0.58787  0.49463  0.31609  Biso   1.000  C
  N36      1.0000 0.62377  0.68505  0.30407  Biso   1.000  N
  H857     1.0000 0.57496  0.59134  0.30233  Biso   1.000  H
  C824     1.0000 0.53418  0.61543  0.31786  Biso   1.000  C
  N37      1.0000 0.62374  0.68501  0.30407  Biso   1.000  N
  C825     1.0000 0.97456  0.36225  0.31781  Biso   1.000  C
  H858     1.0000 0.01637  0.42504  0.30233  Biso   1.000  H
  C826     1.0000 0.08126  0.46583  0.31786  Biso   1.000  C
  C827     1.0000 0.36188  0.37895  0.17739  Biso   1.000  C
  C828     1.0000 0.36186  0.37890  0.17739  Biso   1.000  C
  H859     1.0000 0.42489  0.35415  0.18424  Biso   1.000  H
  C829     1.0000 0.47051  0.44871  0.18671  Biso   1.000  C
  C830     1.0000 0.05418  0.74499  0.18023  Biso   1.000  C
  C831     1.0000 0.05649  0.61216  0.15688  Biso   1.000  C
  C832     1.0000 0.05646  0.61211  0.15688  Biso   1.000  C
  C833     1.0000 0.95890  0.60977  0.15591  Biso   1.000  C
  H860     1.0000 0.07118  0.57267  0.18993  Biso   1.000  H
  C834     1.0000 0.04039  0.48045  0.18974  Biso   1.000  C
  H861     1.0000 0.07116  0.57262  0.18993  Biso   1.000  H
  H862     1.0000 0.88969  0.46787  0.18314  Biso   1.000  H
  C835     1.0000 0.93418  0.41804  0.18556  Biso   1.000  C
  H863     1.0000 0.88966  0.46782  0.18314  Biso   1.000  H
  H864     1.0000 0.61640  0.57267  0.34244  Biso   1.000  H
  C836     1.0000 0.57598  0.47886  0.34230  Biso   1.000  C
  H865     1.0000 0.61638  0.57262  0.34244  Biso   1.000  H
  C837     1.0000 0.57596  0.47882  0.34230  Biso   1.000  C
  H866     1.0000 0.59229  0.49917  0.30704  Biso   1.000  H
  C838     1.0000 0.56137  0.43587  0.32139  Biso   1.000  C
  H867     1.0000 0.59227  0.49912  0.30704  Biso   1.000  H
  C839     1.0000 0.56135  0.43582  0.32139  Biso   1.000  C
  C840     1.0000 0.61427  0.69086  0.29187  Biso   1.000  C
  C841     1.0000 0.54288  0.66227  0.32659  Biso   1.000  C
  C842     1.0000 0.47649  0.56757  0.31598  Biso   1.000  C
  C843     1.0000 0.54286  0.66222  0.32659  Biso   1.000  C
  C844     1.0000 0.47647  0.56753  0.31598  Biso   1.000  C
  N38      1.0000 0.93279  0.30966  0.30917  Biso   1.000  N
  N39      1.0000 0.93276  0.30961  0.30917  Biso   1.000  N
  H868     1.0000 0.98959  0.34643  0.32493  Biso   1.000  H
  C845     1.0000 0.93877  0.39196  0.32368  Biso   1.000  C
  C846     1.0000 0.93874  0.39191  0.32368  Biso   1.000  C
  C847     1.0000 0.11939  0.45718  0.32659  Biso   1.000  C
  C848     1.0000 0.09108  0.52357  0.31598  Biso   1.000  C
  C849     1.0000 0.11937  0.45713  0.32659  Biso   1.000  C
  C850     1.0000 0.09106  0.52352  0.31598  Biso   1.000  C
  N40      1.0000 0.30804  0.31471  0.17842  Biso   1.000  N
  H869     1.0000 0.34840  0.40838  0.18014  Biso   1.000  H
  C851     1.0000 0.38162  0.39168  0.16318  Biso   1.000  C
  H870     1.0000 0.34837  0.40833  0.18014  Biso   1.000  H
  C852     1.0000 0.52800  0.45657  0.18489  Biso   1.000  C
  C853     1.0000 0.46637  0.50195  0.18895  Biso   1.000  C
  C854     1.0000 0.52798  0.45652  0.18489  Biso   1.000  C
  C855     1.0000 0.05036  0.80225  0.18100  Biso   1.000  C
  C856     1.0000 0.05033  0.80221  0.18100  Biso   1.000  C
  H871     1.0000 0.09098  0.61777  0.16163  Biso   1.000  H
  C857     1.0000 0.05298  0.59817  0.14375  Biso   1.000  C
  H872     1.0000 0.09095  0.61773  0.16163  Biso   1.000  H
  C858     1.0000 0.05295  0.59812  0.14375  Biso   1.000  C
  H873     1.0000 0.92676  0.61277  0.15994  Biso   1.000  H
  C859     1.0000 0.95519  0.59644  0.14250  Biso   1.000  C
  H874     1.0000 0.92674  0.61272  0.15994  Biso   1.000  H
  H875     1.0000 0.07908  0.48434  0.19153  Biso   1.000  H
  C860     1.0000 0.99160  0.42436  0.18805  Biso   1.000  C
  C861     1.0000 0.99157  0.42431  0.18805  Biso   1.000  C
  H876     1.0000 0.89938  0.37874  0.18433  Biso   1.000  H
  H877     1.0000 0.57348  0.47428  0.35133  Biso   1.000  H
  C862     1.0000 0.55428  0.42866  0.33480  Biso   1.000  C
  H878     1.0000 0.57346  0.47423  0.35133  Biso   1.000  H
  C863     1.0000 0.55426  0.42861  0.33480  Biso   1.000  C
  H879     1.0000 0.54839  0.40115  0.31603  Biso   1.000  H
  C864     1.0000 0.63968  0.75318  0.28592  Biso   1.000  C
  C865     1.0000 0.63965  0.75313  0.28592  Biso   1.000  C
  H880     1.0000 0.58367  0.69474  0.32793  Biso   1.000  H
  C866     1.0000 0.49690  0.66437  0.33334  Biso   1.000  C
  C867     1.0000 0.49687  0.66433  0.33334  Biso   1.000  C
  H881     1.0000 0.46915  0.53515  0.31033  Biso   1.000  H
  C868     1.0000 0.42410  0.56748  0.32325  Biso   1.000  C
  C869     1.0000 0.42407  0.56743  0.32325  Biso   1.000  C
  C870     1.0000 0.92048  0.25684  0.31294  Biso   1.000  C
  C871     1.0000 0.93587  0.39766  0.33696  Biso   1.000  C
  C872     1.0000 0.90677  0.41217  0.31609  Biso   1.000  C
  C873     1.0000 0.93584  0.39762  0.33696  Biso   1.000  C
  C874     1.0000 0.90675  0.41212  0.31609  Biso   1.000  C
  H882     1.0000 0.11111  0.41638  0.32793  Biso   1.000  H
  C875     1.0000 0.16747  0.50317  0.33334  Biso   1.000  C
  H883     1.0000 0.11108  0.41633  0.32793  Biso   1.000  H
  C876     1.0000 0.16744  0.50312  0.33334  Biso   1.000  C
  H884     1.0000 0.06600  0.53087  0.31033  Biso   1.000  H
  C877     1.0000 0.14337  0.57597  0.32325  Biso   1.000  C
  H885     1.0000 0.06598  0.53082  0.31033  Biso   1.000  H
  C878     1.0000 0.14335  0.57592  0.32325  Biso   1.000  C
  C879     1.0000 0.25502  0.30924  0.18023  Biso   1.000  C
  C880     1.0000 0.25500  0.30919  0.18023  Biso   1.000  C
  C881     1.0000 0.39025  0.34915  0.15591  Biso   1.000  C
  C882     1.0000 0.38786  0.44436  0.15688  Biso   1.000  C
  C883     1.0000 0.38784  0.44431  0.15688  Biso   1.000  C
  H886     1.0000 0.53216  0.42185  0.18314  Biso   1.000  H
  C884     1.0000 0.58199  0.51618  0.18556  Biso   1.000  C
  C885     1.0000 0.58197  0.51613  0.18556  Biso   1.000  C
  H887     1.0000 0.42739  0.49854  0.18993  Biso   1.000  H
  C886     1.0000 0.51957  0.55997  0.18974  Biso   1.000  C
  C887     1.0000 0.51955  0.55992  0.18974  Biso   1.000  C
  C888     1.0000 0.10538  0.86004  0.18111  Biso   1.000  C
  C889     1.0000 0.99360  0.80179  0.18114  Biso   1.000  C
  C890     1.0000 0.99358  0.80174  0.18114  Biso   1.000  C
  C891     1.0000 0.00348  0.59115  0.13665  Biso   1.000  C
  H888     1.0000 0.08437  0.59354  0.13974  Biso   1.000  H
  H889     1.0000 0.92119  0.59125  0.13753  Biso   1.000  H
  H890     1.0000 0.99609  0.38927  0.18853  Biso   1.000  H
  H891     1.0000 0.99607  0.38922  0.18853  Biso   1.000  H
  H892     1.0000 0.53438  0.38894  0.33853  Biso   1.000  H
  C892     1.0000 0.67817  0.80796  0.29255  Biso   1.000  C
  C893     1.0000 0.61957  0.75706  0.27318  Biso   1.000  C
  C894     1.0000 0.67815  0.80792  0.29255  Biso   1.000  C
  C895     1.0000 0.61955  0.75701  0.27318  Biso   1.000  C
  C896     1.0000 0.43967  0.61525  0.33140  Biso   1.000  C
  H893     1.0000 0.50439  0.69736  0.33884  Biso   1.000  H
  H894     1.0000 0.50437  0.69731  0.33884  Biso   1.000  H
  H895     1.0000 0.38275  0.53585  0.32214  Biso   1.000  H
  C897     1.0000 0.88187  0.19948  0.30526  Biso   1.000  C
  C898     1.0000 0.88185  0.19943  0.30526  Biso   1.000  C
  H896     1.0000 0.95630  0.38368  0.34244  Biso   1.000  H
  C899     1.0000 0.90287  0.42405  0.34230  Biso   1.000  C
  H897     1.0000 0.95628  0.38363  0.34244  Biso   1.000  H
  H898     1.0000 0.90688  0.40777  0.30704  Biso   1.000  H
  C900     1.0000 0.87447  0.43865  0.32139  Biso   1.000  C
  H899     1.0000 0.90686  0.40772  0.30704  Biso   1.000  H
  C901     1.0000 0.17555  0.56034  0.33140  Biso   1.000  C
  H900     1.0000 0.19296  0.49564  0.33884  Biso   1.000  H
  H901     1.0000 0.15307  0.61724  0.32214  Biso   1.000  H
  C902     1.0000 0.19781  0.24813  0.18100  Biso   1.000  C
  H902     1.0000 0.38730  0.31406  0.15994  Biso   1.000  H
  C903     1.0000 0.40356  0.35874  0.14250  Biso   1.000  C
  H903     1.0000 0.38230  0.47327  0.16163  Biso   1.000  H
  C904     1.0000 0.40185  0.45484  0.14375  Biso   1.000  C
  H904     1.0000 0.38228  0.47323  0.16163  Biso   1.000  H
  H905     1.0000 0.62127  0.52067  0.18433  Biso   1.000  H
  C905     1.0000 0.57569  0.56727  0.18805  Biso   1.000  C
  H906     1.0000 0.62125  0.52062  0.18433  Biso   1.000  H
  C906     1.0000 0.57567  0.56722  0.18805  Biso   1.000  C
  H907     1.0000 0.51570  0.59478  0.19153  Biso   1.000  H
  H908     1.0000 0.51568  0.59473  0.19153  Biso   1.000  H
  H909     1.0000 0.14377  0.86144  0.18114  Biso   1.000  H
  C907     1.0000 0.10411  0.91510  0.18121  Biso   1.000  C
  H910     1.0000 0.95615  0.76384  0.18114  Biso   1.000  H
  C908     1.0000 0.99246  0.85639  0.18127  Biso   1.000  C
  H911     1.0000 0.00156  0.58254  0.12773  Biso   1.000  H
  H912     1.0000 0.69140  0.80637  0.30104  Biso   1.000  H
  C909     1.0000 0.69749  0.86598  0.28660  Biso   1.000  C
  H913     1.0000 0.69137  0.80633  0.30104  Biso   1.000  H
  C910     1.0000 0.69747  0.86593  0.28660  Biso   1.000  C
  H914     1.0000 0.59268  0.72038  0.26873  Biso   1.000  H
  C911     1.0000 0.63869  0.81344  0.26724  Biso   1.000  C
  H915     1.0000 0.59266  0.72033  0.26873  Biso   1.000  H
  H916     1.0000 0.40738  0.61427  0.33623  Biso   1.000  H
  H917     1.0000 0.40735  0.61422  0.33623  Biso   1.000  H
  C912     1.0000 0.86320  0.20046  0.29270  Biso   1.000  C
  C913     1.0000 0.86317  0.20041  0.29270  Biso   1.000  C
  C914     1.0000 0.86447  0.14085  0.31062  Biso   1.000  C
  H918     1.0000 0.90081  0.42658  0.35133  Biso   1.000  H
  C915     1.0000 0.87438  0.44576  0.33480  Biso   1.000  C
  H919     1.0000 0.90079  0.42653  0.35133  Biso   1.000  H
  C916     1.0000 0.87436  0.44572  0.33480  Biso   1.000  C
  H920     1.0000 0.85277  0.45166  0.31603  Biso   1.000  H
  H921     1.0000 0.85275  0.45161  0.31603  Biso   1.000  H
  H922     1.0000 0.20687  0.59267  0.33623  Biso   1.000  H
  H923     1.0000 0.20685  0.59263  0.33623  Biso   1.000  H
  C917     1.0000 0.19827  0.19185  0.18114  Biso   1.000  C
  C918     1.0000 0.13999  0.24537  0.18111  Biso   1.000  C
  H924     1.0000 0.40878  0.32996  0.13753  Biso   1.000  H
  C919     1.0000 0.40889  0.41236  0.13665  Biso   1.000  C
  H925     1.0000 0.40876  0.32992  0.13753  Biso   1.000  H
  H926     1.0000 0.40649  0.49086  0.13974  Biso   1.000  H
  H927     1.0000 0.40647  0.49082  0.13974  Biso   1.000  H
  H928     1.0000 0.61076  0.60685  0.18853  Biso   1.000  H
  C920     1.0000 0.04736  0.91482  0.18128  Biso   1.000  C
  H929     1.0000 0.14148  0.95305  0.18124  Biso   1.000  H
  C921     1.0000 0.04734  0.91478  0.18128  Biso   1.000  C
  C922     1.0000 0.93505  0.86355  0.18112  Biso   1.000  C
  C923     1.0000 0.93503  0.86350  0.18112  Biso   1.000  C
  C924     1.0000 0.67910  0.86986  0.27394  Biso   1.000  C
  C925     1.0000 0.73817  0.92877  0.29259  Biso   1.000  C
  C926     1.0000 0.67907  0.86982  0.27394  Biso   1.000  C
  C927     1.0000 0.73814  0.92872  0.29259  Biso   1.000  C
  H930     1.0000 0.62517  0.81484  0.25883  Biso   1.000  H
  C928     1.0000 0.82727  0.14473  0.28590  Biso   1.000  C
  H931     1.0000 0.87429  0.23845  0.28873  Biso   1.000  H
  C929     1.0000 0.82977  0.08588  0.30390  Biso   1.000  C
  C930     1.0000 0.82975  0.08583  0.30390  Biso   1.000  C
  H932     1.0000 0.87707  0.13907  0.31914  Biso   1.000  H
  H933     1.0000 0.87705  0.13903  0.31914  Biso   1.000  H
  H934     1.0000 0.85458  0.46565  0.33853  Biso   1.000  H
  C931     1.0000 0.14363  0.13613  0.18127  Biso   1.000  C
  C932     1.0000 0.14361  0.13608  0.18127  Biso   1.000  C
  H935     1.0000 0.23617  0.19236  0.18114  Biso   1.000  H
  H936     1.0000 0.23615  0.19232  0.18114  Biso   1.000  H
  C933     1.0000 0.08492  0.18904  0.18121  Biso   1.000  C
  C934     1.0000 0.08489  0.18900  0.18121  Biso   1.000  C
  H937     1.0000 0.13857  0.28234  0.18114  Biso   1.000  H
  H938     1.0000 0.41746  0.41905  0.12773  Biso   1.000  H
  C935     1.0000 0.03011  0.96395  0.18150  Biso   1.000  C
  C936     1.0000 0.03009  0.96390  0.18150  Biso   1.000  C
  C937     1.0000 0.96384  0.93424  0.18135  Biso   1.000  C
  C938     1.0000 0.89544  0.83140  0.19351  Biso   1.000  C
  C939     1.0000 0.89807  0.83430  0.16817  Biso   1.000  C
  C940     1.0000 0.89542  0.83136  0.19351  Biso   1.000  C
  C941     1.0000 0.89804  0.83426  0.16817  Biso   1.000  C
  C942     1.0000 0.70727  0.93747  0.27053  Biso   1.000  C
  C943     1.0000 0.70724  0.93742  0.27053  Biso   1.000  C
  C944     1.0000 0.74188  0.97275  0.28152  Biso   1.000  C
  C945     1.0000 0.70606  0.93635  0.30490  Biso   1.000  C
  C946     1.0000 0.80178  0.93564  0.29619  Biso   1.000  C
  C947     1.0000 0.81007  0.08723  0.29102  Biso   1.000  C
  C948     1.0000 0.80370  0.13917  0.27191  Biso   1.000  C
  C949     1.0000 0.80368  0.13912  0.27191  Biso   1.000  C
  H939     1.0000 0.81938  0.04784  0.30783  Biso   1.000  H
  C950     1.0000 0.13651  0.07156  0.18112  Biso   1.000  C
  C951     1.0000 0.13649  0.07151  0.18112  Biso   1.000  C
  C952     1.0000 0.08521  0.13257  0.18128  Biso   1.000  C
  H940     1.0000 0.04697  0.18843  0.18124  Biso   1.000  H
  C953     1.0000 0.06577  0.02959  0.18135  Biso   1.000  C
  C954     1.0000 0.93384  0.96994  0.18150  Biso   1.000  C
  C955     1.0000 0.93381  0.96989  0.18150  Biso   1.000  C
  H941     1.0000 0.88328  0.78747  0.19334  Biso   1.000  H
  H942     1.0000 0.85748  0.83384  0.19313  Biso   1.000  H
  C956     1.0000 0.92739  0.85835  0.20614  Biso   1.000  C
  H943     1.0000 0.88326  0.78742  0.19334  Biso   1.000  H
  H944     1.0000 0.86317  0.84198  0.16773  Biso   1.000  H
  H945     1.0000 0.88085  0.78934  0.16854  Biso   1.000  H
  C957     1.0000 0.93637  0.85905  0.15573  Biso   1.000  C
  H946     1.0000 0.86314  0.84193  0.16773  Biso   1.000  H
  C958     1.0000 0.70430  0.96816  0.25935  Biso   1.000  C
  C959     1.0000 0.70428  0.96811  0.25935  Biso   1.000  C
  C960     1.0000 0.77235  0.03773  0.28129  Biso   1.000  C
  H947     1.0000 0.73316  0.97775  0.30843  Biso   1.000  H
  H948     1.0000 0.70338  0.90636  0.31143  Biso   1.000  H
  C961     1.0000 0.64558  0.92867  0.30341  Biso   1.000  C
  C962     1.0000 0.64555  0.92863  0.30341  Biso   1.000  C
  H949     1.0000 0.79489  0.90355  0.30254  Biso   1.000  H
  H950     1.0000 0.82698  0.97583  0.30044  Biso   1.000  H
  C963     1.0000 0.83799  0.93125  0.28513  Biso   1.000  C
  C964     1.0000 0.76835  0.06903  0.26990  Biso   1.000  C
  C965     1.0000 0.86167  0.17618  0.26301  Biso   1.000  C
  C966     1.0000 0.75828  0.16607  0.27137  Biso   1.000  C
  C967     1.0000 0.86165  0.17613  0.26301  Biso   1.000  C
  C968     1.0000 0.75825  0.16602  0.27137  Biso   1.000  C
  C969     1.0000 0.16863  0.06407  0.19351  Biso   1.000  C
  C970     1.0000 0.16573  0.06379  0.16817  Biso   1.000  C
  C971     1.0000 0.03609  0.06618  0.18150  Biso   1.000  C
  C972     1.0000 0.86746  0.95267  0.18128  Biso   1.000  C
  C973     1.0000 0.97040  0.03619  0.18135  Biso   1.000  C
  H951     1.0000 0.96797  0.86107  0.20583  Biso   1.000  H
  H952     1.0000 0.93486  0.90083  0.20673  Biso   1.000  H
  C974     1.0000 0.89369  0.82336  0.21919  Biso   1.000  C
  H953     1.0000 0.96795  0.86102  0.20583  Biso   1.000  H
  H954     1.0000 0.95300  0.90397  0.15534  Biso   1.000  H
  H955     1.0000 0.97155  0.85194  0.15623  Biso   1.000  H
  C975     1.0000 0.90067  0.82986  0.14306  Biso   1.000  C
  H956     1.0000 0.95297  0.90392  0.15534  Biso   1.000  H
  C976     1.0000 0.90064  0.82981  0.14306  Biso   1.000  C
  C977     1.0000 0.66790  0.93976  0.24647  Biso   1.000  C
  C978     1.0000 0.66787  0.93971  0.24647  Biso   1.000  C
  C979     1.0000 0.73658  0.03427  0.25894  Biso   1.000  C
  C980     1.0000 0.73656  0.03422  0.25894  Biso   1.000  C
  H957     1.0000 0.64758  0.96138  0.29783  Biso   1.000  H
  H958     1.0000 0.61787  0.88858  0.29933  Biso   1.000  H
  C981     1.0000 0.61979  0.93204  0.31715  Biso   1.000  C
  H959     1.0000 0.64756  0.96133  0.29783  Biso   1.000  H
  H960     1.0000 0.61785  0.88853  0.29933  Biso   1.000  H
  H961     1.0000 0.81090  0.89457  0.27993  Biso   1.000  H
  H962     1.0000 0.85198  0.96765  0.27953  Biso   1.000  H
  C982     1.0000 0.89579  0.92675  0.28969  Biso   1.000  C
  H963     1.0000 0.81087  0.89452  0.27993  Biso   1.000  H
  H964     1.0000 0.88490  0.21908  0.26614  Biso   1.000  H
  H965     1.0000 0.84740  0.17697  0.25413  Biso   1.000  H
  C983     1.0000 0.90547  0.15016  0.26246  Biso   1.000  C
  H966     1.0000 0.88488  0.21903  0.26614  Biso   1.000  H
  H967     1.0000 0.84738  0.17692  0.25413  Biso   1.000  H
  C984     1.0000 0.90545  0.15012  0.26246  Biso   1.000  C
  H968     1.0000 0.74299  0.16167  0.26243  Biso   1.000  H
  H969     1.0000 0.78238  0.21047  0.27324  Biso   1.000  H
  C985     1.0000 0.70447  0.13828  0.28013  Biso   1.000  C
  H970     1.0000 0.74297  0.16162  0.26243  Biso   1.000  H
  H971     1.0000 0.78236  0.21042  0.27324  Biso   1.000  H
  C986     1.0000 0.70445  0.13823  0.28013  Biso   1.000  C
  H972     1.0000 0.21259  0.09584  0.19334  Biso   1.000  H
  H973     1.0000 0.16616  0.02365  0.19313  Biso   1.000  H
  C987     1.0000 0.14165  0.06903  0.20614  Biso   1.000  C
  H974     1.0000 0.15808  0.02126  0.16773  Biso   1.000  H
  H975     1.0000 0.21068  0.09154  0.16854  Biso   1.000  H
  C988     1.0000 0.14099  0.07736  0.15573  Biso   1.000  C
  H976     1.0000 0.15806  0.02122  0.16773  Biso   1.000  H
  C989     1.0000 0.14097  0.07732  0.15573  Biso   1.000  C
  C990     1.0000 0.81101  0.89592  0.18121  Biso   1.000  C
  C991     1.0000 0.81098  0.89588  0.18121  Biso   1.000  C
  C992     1.0000 0.86391  0.00756  0.18127  Biso   1.000  C
  C993     1.0000 0.92847  0.06496  0.18112  Biso   1.000  C
  H977     1.0000 0.85185  0.81765  0.21943  Biso   1.000  H
  H978     1.0000 0.91668  0.84876  0.22664  Biso   1.000  H
  C994     1.0000 0.88956  0.75935  0.22013  Biso   1.000  C
  H979     1.0000 0.91666  0.84871  0.22664  Biso   1.000  H
  H980     1.0000 0.88968  0.78625  0.14253  Biso   1.000  H
  H981     1.0000 0.86249  0.83187  0.14283  Biso   1.000  H
  C995     1.0000 0.94655  0.86944  0.13059  Biso   1.000  C
  H982     1.0000 0.86247  0.83182  0.14283  Biso   1.000  H
  C996     1.0000 0.68559  0.99857  0.23890  Biso   1.000  C
  C997     1.0000 0.69056  0.90154  0.23884  Biso   1.000  C
  C998     1.0000 0.59549  0.90345  0.24856  Biso   1.000  C
  C999     1.0000 0.68557  0.99853  0.23890  Biso   1.000  C
  C1000    1.0000 0.72386  0.05275  0.24573  Biso   1.000  C
  H983     1.0000 0.58148  0.93354  0.31603  Biso   1.000  H
  H984     1.0000 0.64998  0.97045  0.32143  Biso   1.000  H
  C1001    1.0000 0.60669  0.87716  0.32581  Biso   1.000  C
  C1002    1.0000 0.60667  0.87711  0.32581  Biso   1.000  C
  H985     1.0000 0.92468  0.96606  0.29394  Biso   1.000  H
  H986     1.0000 0.91649  0.92325  0.28193  Biso   1.000  H
  C1003    1.0000 0.88559  0.87328  0.29915  Biso   1.000  C
  C1004    1.0000 0.88556  0.87323  0.29915  Biso   1.000  C
  H987     1.0000 0.91416  0.14314  0.27143  Biso   1.000  H
  H988     1.0000 0.88375  0.10964  0.25813  Biso   1.000  H
  C1005    1.0000 0.96798  0.19017  0.25544  Biso   1.000  C
  C1006    1.0000 0.96795  0.19012  0.25544  Biso   1.000  C
  H989     1.0000 0.72157  0.13828  0.28873  Biso   1.000  H
  H990     1.0000 0.69065  0.16874  0.28063  Biso   1.000  H
  C1007    1.0000 0.64616  0.07685  0.27915  Biso   1.000  C
  H991     1.0000 0.72155  0.13823  0.28873  Biso   1.000  H
  H992     1.0000 0.13898  0.10698  0.20583  Biso   1.000  H
  H993     1.0000 0.09915  0.03404  0.20673  Biso   1.000  H
  C1008    1.0000 0.17666  0.07034  0.21919  Biso   1.000  C
  H994     1.0000 0.13896  0.10693  0.20583  Biso   1.000  H
  H995     1.0000 0.09608  0.04906  0.15534  Biso   1.000  H
  H996     1.0000 0.14808  0.11966  0.15623  Biso   1.000  H
  C1009    1.0000 0.17019  0.07086  0.14306  Biso   1.000  C
  H997     1.0000 0.14805  0.11961  0.15623  Biso   1.000  H
  C1010    1.0000 0.17017  0.07081  0.14306  Biso   1.000  C
  C1011    1.0000 0.75466  0.89466  0.18111  Biso   1.000  C
  H998     1.0000 0.81156  0.85854  0.18124  Biso   1.000  H
  C1012    1.0000 0.75464  0.89461  0.18111  Biso   1.000  C
  C1013    1.0000 0.80816  0.00643  0.18114  Biso   1.000  C
  C1014    1.0000 0.93593  0.10459  0.19351  Biso   1.000  C
  C1015    1.0000 0.93624  0.10197  0.16817  Biso   1.000  C
  H999     1.0000 0.93048  0.76445  0.21893  Biso   1.000  H
  H1000    1.0000 0.87359  0.74134  0.22853  Biso   1.000  H
  H1001    1.0000 0.86217  0.73236  0.21344  Biso   1.000  H
  H1002    1.0000 0.98378  0.86626  0.13083  Biso   1.000  H
  H1003    1.0000 0.92486  0.85255  0.12254  Biso   1.000  H
  H1004    1.0000 0.95779  0.91267  0.13123  Biso   1.000  H
  H1005    1.0000 0.98375  0.86621  0.13083  Biso   1.000  H
  H1006    1.0000 0.95777  0.91263  0.13123  Biso   1.000  H
  C1016    1.0000 0.66655  0.00133  0.22619  Biso   1.000  C
  H1007    1.0000 0.67119  0.89246  0.23024  Biso   1.000  H
  H1008    1.0000 0.67579  0.86195  0.24334  Biso   1.000  H
  C1017    1.0000 0.76028  0.93134  0.23703  Biso   1.000  C
  H1009    1.0000 0.67117  0.89241  0.23024  Biso   1.000  H
  H1010    1.0000 0.58438  0.86495  0.25323  Biso   1.000  H
  H1011    1.0000 0.57568  0.89204  0.24003  Biso   1.000  H
  C1018    1.0000 0.56850  0.93667  0.25585  Biso   1.000  C
  C1019    1.0000 0.56848  0.93663  0.25585  Biso   1.000  C
  C1020    1.0000 0.74290  0.11067  0.23989  Biso   1.000  C
  C1021    1.0000 0.74287  0.11063  0.23989  Biso   1.000  C
  H1012    1.0000 0.64477  0.87665  0.32734  Biso   1.000  H
  H1013    1.0000 0.58987  0.88095  0.33403  Biso   1.000  H
  H1014    1.0000 0.57688  0.83894  0.32153  Biso   1.000  H
  H1015    1.0000 0.85998  0.83365  0.29494  Biso   1.000  H
  H1016    1.0000 0.92527  0.87744  0.30144  Biso   1.000  H
  H1017    1.0000 0.86517  0.87548  0.30693  Biso   1.000  H
  H1018    1.0000 0.86515  0.87543  0.30693  Biso   1.000  H
  H1019    1.0000 0.95878  0.20046  0.24684  Biso   1.000  H
  H1020    1.0000 0.98678  0.16425  0.25404  Biso   1.000  H
  H1021    1.0000 0.95876  0.20041  0.24684  Biso   1.000  H
  C1022    1.0000 0.01256  0.24505  0.26116  Biso   1.000  C
  C1023    1.0000 0.59718  0.07296  0.28951  Biso   1.000  C
  H1022    1.0000 0.62889  0.07156  0.27043  Biso   1.000  H
  H1023    1.0000 0.65548  0.04353  0.28074  Biso   1.000  H
  C1024    1.0000 0.59716  0.07292  0.28951  Biso   1.000  C
  H1024    1.0000 0.62887  0.07151  0.27043  Biso   1.000  H
  H1025    1.0000 0.18237  0.03427  0.21943  Biso   1.000  H
  H1026    1.0000 0.15128  0.06796  0.22664  Biso   1.000  H
  C1025    1.0000 0.24071  0.13028  0.22013  Biso   1.000  C
  H1027    1.0000 0.18235  0.03422  0.21943  Biso   1.000  H
  H1028    1.0000 0.15126  0.06791  0.22664  Biso   1.000  H
  C1026    1.0000 0.24068  0.13023  0.22013  Biso   1.000  C
  H1029    1.0000 0.21377  0.10347  0.14253  Biso   1.000  H
  H1030    1.0000 0.16817  0.03067  0.14283  Biso   1.000  H
  C1027    1.0000 0.13061  0.07717  0.13059  Biso   1.000  C
  H1031    1.0000 0.21375  0.10342  0.14253  Biso   1.000  H
  H1032    1.0000 0.16815  0.03062  0.14283  Biso   1.000  H
  C1028    1.0000 0.13058  0.07713  0.13059  Biso   1.000  C
  C1029    1.0000 0.75187  0.94968  0.18100  Biso   1.000  C
  H1033    1.0000 0.71767  0.85625  0.18114  Biso   1.000  H
  H1034    1.0000 0.80767  0.04386  0.18114  Biso   1.000  H
  H1035    1.0000 0.80765  0.04382  0.18114  Biso   1.000  H
  H1036    1.0000 0.90416  0.11676  0.19334  Biso   1.000  H
  H1037    1.0000 0.97637  0.14254  0.19313  Biso   1.000  H
  C1030    1.0000 0.93097  0.07264  0.20614  Biso   1.000  C
  H1038    1.0000 0.97877  0.13687  0.16773  Biso   1.000  H
  H1039    1.0000 0.90848  0.11914  0.16854  Biso   1.000  H
  C1031    1.0000 0.92267  0.06365  0.15573  Biso   1.000  C
  H1040    1.0000 0.97875  0.13683  0.16773  Biso   1.000  H
  H1041    1.0000 0.64079  0.96465  0.22164  Biso   1.000  H
  C1032    1.0000 0.68608  0.05855  0.22037  Biso   1.000  C
  H1042    1.0000 0.77548  0.97228  0.23313  Biso   1.000  H
  H1043    1.0000 0.77937  0.93775  0.24563  Biso   1.000  H
  C1033    1.0000 0.78236  0.89536  0.22872  Biso   1.000  C
  H1044    1.0000 0.77546  0.97223  0.23313  Biso   1.000  H
  C1034    1.0000 0.78234  0.89531  0.22872  Biso   1.000  C
  H1045    1.0000 0.58478  0.94477  0.26473  Biso   1.000  H
  H1046    1.0000 0.58157  0.97668  0.25163  Biso   1.000  H
  C1035    1.0000 0.49768  0.89934  0.25635  Biso   1.000  C
  H1047    1.0000 0.58476  0.94472  0.26473  Biso   1.000  H
  H1048    1.0000 0.58155  0.97663  0.25163  Biso   1.000  H
  C1036    1.0000 0.72277  0.11086  0.22723  Biso   1.000  C
  H1049    1.0000 0.76817  0.14778  0.24434  Biso   1.000  H
  C1037    1.0000 0.72275  0.11081  0.22723  Biso   1.000  C
  H1050    1.0000 0.76815  0.14773  0.24434  Biso   1.000  H
  H1051    1.0000 0.99520  0.27176  0.26264  Biso   1.000  H
  H1052    1.0000 0.99518  0.27171  0.26264  Biso   1.000  H
  H1053    1.0000 0.02519  0.23588  0.26933  Biso   1.000  H
  H1054    1.0000 0.04807  0.26568  0.25544  Biso   1.000  H
  H1055    1.0000 0.02517  0.23583  0.26933  Biso   1.000  H
  H1056    1.0000 0.04805  0.26563  0.25544  Biso   1.000  H
  H1057    1.0000 0.58609  0.10426  0.28763  Biso   1.000  H
  H1058    1.0000 0.56038  0.03226  0.28913  Biso   1.000  H
  H1059    1.0000 0.61496  0.07984  0.29813  Biso   1.000  H
  H1060    1.0000 0.58606  0.10422  0.28763  Biso   1.000  H
  H1061    1.0000 0.56035  0.03221  0.28913  Biso   1.000  H
  H1062    1.0000 0.23559  0.16607  0.21893  Biso   1.000  H
  H1063    1.0000 0.25867  0.13224  0.22853  Biso   1.000  H
  H1064    1.0000 0.26768  0.12986  0.21344  Biso   1.000  H
  H1065    1.0000 0.23556  0.16602  0.21893  Biso   1.000  H
  H1066    1.0000 0.13378  0.11755  0.13083  Biso   1.000  H
  H1067    1.0000 0.14748  0.07236  0.12254  Biso   1.000  H
  H1068    1.0000 0.08738  0.04517  0.13123  Biso   1.000  H
  H1069    1.0000 0.08735  0.04513  0.13123  Biso   1.000  H
  C1038    1.0000 0.69079  0.94584  0.18023  Biso   1.000  C
  C1039    1.0000 0.69077  0.94580  0.18023  Biso   1.000  C
  H1070    1.0000 0.89310  0.03207  0.20583  Biso   1.000  H
  H1071    1.0000 0.96596  0.06515  0.20673  Biso   1.000  H
  C1040    1.0000 0.92968  0.10637  0.21919  Biso   1.000  C
  H1072    1.0000 0.89308  0.03203  0.20583  Biso   1.000  H
  C1041    1.0000 0.92966  0.10632  0.21919  Biso   1.000  C
  H1073    1.0000 0.95095  0.04704  0.15534  Biso   1.000  H
  H1074    1.0000 0.88040  0.02847  0.15623  Biso   1.000  H
  C1042    1.0000 0.92917  0.09935  0.14306  Biso   1.000  C
  H1075    1.0000 0.88038  0.02842  0.15623  Biso   1.000  H
  C1043    1.0000 0.66728  0.06267  0.20663  Biso   1.000  C
  C1044    1.0000 0.66725  0.06262  0.20663  Biso   1.000  C
  H1076    1.0000 0.76229  0.85246  0.23183  Biso   1.000  H
  H1077    1.0000 0.82707  0.91347  0.22993  Biso   1.000  H
  C1045    1.0000 0.77017  0.89503  0.21568  Biso   1.000  C
  H1078    1.0000 0.76227  0.85241  0.23183  Biso   1.000  H
  H1079    1.0000 0.82705  0.91342  0.22993  Biso   1.000  H
  H1080    1.0000 0.48087  0.89115  0.24753  Biso   1.000  H
  H1081    1.0000 0.48419  0.85948  0.26063  Biso   1.000  H
  C1046    1.0000 0.47106  0.93855  0.26447  Biso   1.000  C
  H1082    1.0000 0.48417  0.85943  0.26063  Biso   1.000  H
  H1083    1.0000 0.73529  0.14927  0.22323  Biso   1.000  H
  H1084    1.0000 0.73527  0.14923  0.22323  Biso   1.000  H
  N41      1.0000 0.68530  0.99338  0.17842  Biso   1.000  N
  N42      1.0000 0.68528  0.99333  0.17842  Biso   1.000  N
  H1085    1.0000 0.96577  0.14815  0.21943  Biso   1.000  H
  H1086    1.0000 0.93207  0.08335  0.22664  Biso   1.000  H
  C1047    1.0000 0.86977  0.11044  0.22013  Biso   1.000  C
  H1087    1.0000 0.89658  0.11035  0.14253  Biso   1.000  H
  H1088    1.0000 0.96940  0.13758  0.14283  Biso   1.000  H
  C1048    1.0000 0.92288  0.05345  0.13059  Biso   1.000  C
  H1089    1.0000 0.96937  0.13753  0.14283  Biso   1.000  H
  N43      1.0000 0.62924  0.01626  0.20004  Biso   1.000  N
  N44      1.0000 0.62922  0.01621  0.20004  Biso   1.000  N
  H1090    1.0000 0.79008  0.93738  0.21254  Biso   1.000  H
  H1091    1.0000 0.78600  0.87215  0.21104  Biso   1.000  H
  H1092    1.0000 0.72580  0.87566  0.21433  Biso   1.000  H
  H1093    1.0000 0.79006  0.93733  0.21254  Biso   1.000  H
  H1094    1.0000 0.72577  0.87562  0.21433  Biso   1.000  H
  H1095    1.0000 0.48137  0.97635  0.25983  Biso   1.000  H
  H1096    1.0000 0.42647  0.91347  0.26533  Biso   1.000  H
  H1097    1.0000 0.48989  0.94898  0.27303  Biso   1.000  H
  H1098    1.0000 0.42644  0.91342  0.26533  Biso   1.000  H
  H1099    1.0000 0.48986  0.94893  0.27303  Biso   1.000  H
  C1049    1.0000 0.62109  0.98295  0.17739  Biso   1.000  C
  H1100    1.0000 0.83396  0.06955  0.21893  Biso   1.000  H
  H1101    1.0000 0.86776  0.12644  0.22853  Biso   1.000  H
  H1102    1.0000 0.87018  0.13786  0.21344  Biso   1.000  H
  H1103    1.0000 0.87016  0.13781  0.21344  Biso   1.000  H
  H1104    1.0000 0.88248  0.01626  0.13083  Biso   1.000  H
  H1105    1.0000 0.92769  0.07516  0.12254  Biso   1.000  H
  H1106    1.0000 0.95489  0.04227  0.13123  Biso   1.000  H
  H1107    1.0000 0.88246  0.01621  0.13083  Biso   1.000  H
  H1108    1.0000 0.92767  0.07512  0.12254  Biso   1.000  H
  H1109    1.0000 0.95486  0.04222  0.13123  Biso   1.000  H
  C1050    1.0000 0.61496  0.02781  0.18669  Biso   1.000  C
  C1051    1.0000 0.61494  0.02777  0.18669  Biso   1.000  C
  H1110    1.0000 0.59166  0.94004  0.18014  Biso   1.000  H
  C1052    1.0000 0.60835  0.98996  0.16318  Biso   1.000  C
  H1111    1.0000 0.64588  0.07076  0.18424  Biso   1.000  H
  C1053    1.0000 0.55131  0.02183  0.18671  Biso   1.000  C
  H1112    1.0000 0.64585  0.07072  0.18424  Biso   1.000  H
  C1054    1.0000 0.55569  0.94355  0.15688  Biso   1.000  C
  C1055    1.0000 0.65088  0.04115  0.15591  Biso   1.000  C
  C1056    1.0000 0.65086  0.04110  0.15591  Biso   1.000  C
  C1057    1.0000 0.49808  0.96447  0.18895  Biso   1.000  C
  C1058    1.0000 0.49805  0.96442  0.18895  Biso   1.000  C
  C1059    1.0000 0.54347  0.07147  0.18489  Biso   1.000  C
  C1060    1.0000 0.54345  0.07142  0.18489  Biso   1.000  C
  H1113    1.0000 0.52678  0.90907  0.16163  Biso   1.000  H
  C1061    1.0000 0.54517  0.94706  0.14375  Biso   1.000  C
  H1114    1.0000 0.52676  0.90902  0.16163  Biso   1.000  H
  C1062    1.0000 0.54514  0.94701  0.14375  Biso   1.000  C
  H1115    1.0000 0.68597  0.07324  0.15994  Biso   1.000  H
  C1063    1.0000 0.64126  0.04484  0.14250  Biso   1.000  C
  H1116    1.0000 0.50146  0.92886  0.18993  Biso   1.000  H
  C1064    1.0000 0.44007  0.95965  0.18974  Biso   1.000  C
  H1117    1.0000 0.50144  0.92881  0.18993  Biso   1.000  H
  H1118    1.0000 0.57819  0.11035  0.18314  Biso   1.000  H
  C1065    1.0000 0.48386  0.06585  0.18556  Biso   1.000  C
  C1066    1.0000 0.58766  0.99656  0.13665  Biso   1.000  C
  H1119    1.0000 0.50917  0.91567  0.13974  Biso   1.000  H
  C1067    1.0000 0.58764  0.99651  0.13665  Biso   1.000  C
  H1120    1.0000 0.50915  0.91562  0.13974  Biso   1.000  H
  H1121    1.0000 0.67006  0.07886  0.13753  Biso   1.000  H
  H1122    1.0000 0.67004  0.07881  0.13753  Biso   1.000  H
  H1123    1.0000 0.40529  0.92095  0.19153  Biso   1.000  H
  C1068    1.0000 0.43279  0.00844  0.18805  Biso   1.000  C
  H1124    1.0000 0.47938  0.10066  0.18433  Biso   1.000  H
  H1125    1.0000 0.47936  0.10061  0.18433  Biso   1.000  H
  H1126    1.0000 0.58101  0.99848  0.12773  Biso   1.000  H
  H1127    1.0000 0.58098  0.99843  0.12773  Biso   1.000  H
  H1128    1.0000 0.39318  0.00395  0.18853  Biso   1.000  H
  C1069    1.0000 0.33567  0.83253  0.33334  Biso   1.000  C
  C1070    1.0000 0.33778  0.88067  0.32659  Biso   1.000  C
  C1071    1.0000 0.33776  0.88062  0.32659  Biso   1.000  C
  C1072    1.0000 0.38481  0.82448  0.33140  Biso   1.000  C
  H1129    1.0000 0.30269  0.80707  0.33884  Biso   1.000  H
  C1073    1.0000 0.38478  0.82443  0.33140  Biso   1.000  C
  H1130    1.0000 0.30266  0.80703  0.33884  Biso   1.000  H
  C1074    1.0000 0.38458  0.91875  0.31786  Biso   1.000  C
  H1131    1.0000 0.30529  0.88895  0.32793  Biso   1.000  H
  C1075    1.0000 0.33569  0.83257  0.33334  Biso   1.000  C
  C1076    1.0000 0.43259  0.85667  0.32325  Biso   1.000  C
  C1077    1.0000 0.43257  0.85662  0.32325  Biso   1.000  C
  H1132    1.0000 0.38577  0.79318  0.33623  Biso   1.000  H
  H1133    1.0000 0.38575  0.79313  0.33623  Biso   1.000  H
  C1078    1.0000 0.37807  0.96886  0.30950  Biso   1.000  C
  C1079    1.0000 0.37805  0.96882  0.30950  Biso   1.000  C
  C1080    1.0000 0.43249  0.90898  0.31598  Biso   1.000  C
  C1081    1.0000 0.43246  0.90893  0.31598  Biso   1.000  C
  H1134    1.0000 0.46415  0.84694  0.32214  Biso   1.000  H
  N45      1.0000 0.31501  0.93878  0.30407  Biso   1.000  N
  N46      1.0000 0.31499  0.93873  0.30407  Biso   1.000  N
  H1135    1.0000 0.40868  0.98365  0.30233  Biso   1.000  H
  C1082    1.0000 0.38770  0.02548  0.31781  Biso   1.000  C
  C1083    1.0000 0.38767  0.02543  0.31781  Biso   1.000  C
  H1136    1.0000 0.46488  0.93405  0.31033  Biso   1.000  H
  C1084    1.0000 0.30919  0.92348  0.29187  Biso   1.000  C
  C1085    1.0000 0.30916  0.92343  0.29187  Biso   1.000  C
  N47      1.0000 0.37686  0.06726  0.30917  Biso   1.000  N
  H1137    1.0000 0.35689  0.01046  0.32493  Biso   1.000  H
  C1086    1.0000 0.45320  0.06127  0.32368  Biso   1.000  C
  N48      1.0000 0.37684  0.06721  0.30917  Biso   1.000  N
  C1087    1.0000 0.45318  0.06122  0.32368  Biso   1.000  C
  C1088    1.0000 0.24689  0.88656  0.28592  Biso   1.000  C
  C1089    1.0000 0.24687  0.88652  0.28592  Biso   1.000  C
  C1090    1.0000 0.33638  0.07956  0.31294  Biso   1.000  C
  C1091    1.0000 0.33635  0.07951  0.31294  Biso   1.000  C
  C1092    1.0000 0.46178  0.06417  0.33696  Biso   1.000  C
  C1093    1.0000 0.50539  0.09327  0.31609  Biso   1.000  C
  C1094    1.0000 0.46176  0.06412  0.33696  Biso   1.000  C
  C1095    1.0000 0.50536  0.09322  0.31609  Biso   1.000  C
  C1096    1.0000 0.19209  0.87024  0.29255  Biso   1.000  C
  C1097    1.0000 0.24299  0.86256  0.27318  Biso   1.000  C
  C1098    1.0000 0.24297  0.86252  0.27318  Biso   1.000  C
  C1099    1.0000 0.31759  0.11816  0.30526  Biso   1.000  C
  C1100    1.0000 0.31757  0.11811  0.30526  Biso   1.000  C
  H1138    1.0000 0.42739  0.04377  0.34244  Biso   1.000  H
  C1101    1.0000 0.52119  0.09715  0.34230  Biso   1.000  C
  H1139    1.0000 0.42737  0.04372  0.34244  Biso   1.000  H
  H1140    1.0000 0.50088  0.09318  0.30704  Biso   1.000  H
  C1102    1.0000 0.56419  0.12555  0.32139  Biso   1.000  C
  H1141    1.0000 0.50086  0.09313  0.30704  Biso   1.000  H
  C1103    1.0000 0.13409  0.83154  0.28660  Biso   1.000  C
  H1142    1.0000 0.19367  0.88507  0.30104  Biso   1.000  H
  H1143    1.0000 0.19364  0.88502  0.30104  Biso   1.000  H
  C1104    1.0000 0.18658  0.82527  0.26724  Biso   1.000  C
  C1105    1.0000 0.18656  0.82523  0.26724  Biso   1.000  C
  H1144    1.0000 0.27969  0.87234  0.26873  Biso   1.000  H
  C1106    1.0000 0.33728  0.13687  0.29270  Biso   1.000  C
  C1107    1.0000 0.27637  0.13556  0.31062  Biso   1.000  C
  C1108    1.0000 0.33726  0.13683  0.29270  Biso   1.000  C
  C1109    1.0000 0.27635  0.13552  0.31062  Biso   1.000  C
  H1145    1.0000 0.52576  0.09926  0.35133  Biso   1.000  H
  C1110    1.0000 0.57137  0.12565  0.33480  Biso   1.000  C
  H1146    1.0000 0.52574  0.09921  0.35133  Biso   1.000  H
  H1147    1.0000 0.59887  0.14726  0.31603  Biso   1.000  H
  H1148    1.0000 0.59885  0.14721  0.31603  Biso   1.000  H
  C1111    1.0000 0.13020  0.80927  0.27394  Biso   1.000  C
  C1112    1.0000 0.13018  0.80923  0.27394  Biso   1.000  C
  C1113    1.0000 0.07126  0.80946  0.29259  Biso   1.000  C
  C1114    1.0000 0.07124  0.80941  0.29259  Biso   1.000  C
  H1149    1.0000 0.18516  0.81035  0.25883  Biso   1.000  H
  H1150    1.0000 0.36417  0.12574  0.28873  Biso   1.000  H
  C1115    1.0000 0.31750  0.17276  0.28590  Biso   1.000  C
  C1116    1.0000 0.31748  0.17271  0.28590  Biso   1.000  C
  H1151    1.0000 0.26198  0.12298  0.31914  Biso   1.000  H
  C1117    1.0000 0.25607  0.17023  0.30390  Biso   1.000  C
  H1152    1.0000 0.26195  0.12293  0.31914  Biso   1.000  H
  H1153    1.0000 0.61105  0.14544  0.33853  Biso   1.000  H
  C1118    1.0000 0.06257  0.76988  0.27053  Biso   1.000  C
  C1119    1.0000 0.06255  0.76983  0.27053  Biso   1.000  C
  C1120    1.0000 0.02729  0.76918  0.28152  Biso   1.000  C
  C1121    1.0000 0.02727  0.76913  0.28152  Biso   1.000  C
  C1122    1.0000 0.06368  0.76974  0.30490  Biso   1.000  C
  C1123    1.0000 0.06436  0.86617  0.29619  Biso   1.000  C
  C1124    1.0000 0.06434  0.86612  0.29619  Biso   1.000  C
  C1125    1.0000 0.27720  0.18998  0.29102  Biso   1.000  C
  C1126    1.0000 0.33549  0.19634  0.27191  Biso   1.000  C
  C1127    1.0000 0.27718  0.18993  0.29102  Biso   1.000  C
  H1154    1.0000 0.22850  0.18067  0.30783  Biso   1.000  H
  H1155    1.0000 0.22848  0.18062  0.30783  Biso   1.000  H
  C1128    1.0000 0.03189  0.73614  0.25935  Biso   1.000  C
  C1129    1.0000 0.96226  0.73465  0.28129  Biso   1.000  C
  H1156    1.0000 0.02226  0.75547  0.30843  Biso   1.000  H
  H1157    1.0000 0.09367  0.79706  0.31143  Biso   1.000  H
  C1130    1.0000 0.07137  0.71696  0.30341  Biso   1.000  C
  H1158    1.0000 0.02224  0.75542  0.30843  Biso   1.000  H
  H1159    1.0000 0.09365  0.79701  0.31143  Biso   1.000  H
  C1131    1.0000 0.07134  0.71692  0.30341  Biso   1.000  C
  H1160    1.0000 0.09648  0.89134  0.30254  Biso   1.000  H
  H1161    1.0000 0.02416  0.85115  0.30044  Biso   1.000  H
  C1132    1.0000 0.06879  0.90678  0.28513  Biso   1.000  C
  C1133    1.0000 0.06876  0.90673  0.28513  Biso   1.000  C
  C1134    1.0000 0.26536  0.22764  0.28129  Biso   1.000  C
  C1135    1.0000 0.31449  0.13837  0.26301  Biso   1.000  C
  C1136    1.0000 0.40780  0.24177  0.27137  Biso   1.000  C
  C1137    1.0000 0.30068  0.23166  0.26990  Biso   1.000  C
  C1138    1.0000 0.31446  0.13833  0.26301  Biso   1.000  C
  C1139    1.0000 0.40777  0.24172  0.27137  Biso   1.000  C
  C1140    1.0000 0.30066  0.23162  0.26990  Biso   1.000  C
  C1141    1.0000 0.06026  0.72814  0.24647  Biso   1.000  C
  C1142    1.0000 0.96577  0.70236  0.25894  Biso   1.000  C
  C1143    1.0000 0.96575  0.70232  0.25894  Biso   1.000  C
  C1144    1.0000 0.93097  0.69937  0.26990  Biso   1.000  C
  C1145    1.0000 0.93094  0.69932  0.26990  Biso   1.000  C
  C1146    1.0000 0.91277  0.72286  0.29102  Biso   1.000  C
  C1147    1.0000 0.91274  0.72281  0.29102  Biso   1.000  C
  H1162    1.0000 0.03868  0.68627  0.29783  Biso   1.000  H
  H1163    1.0000 0.11148  0.72936  0.29933  Biso   1.000  H
  C1148    1.0000 0.06799  0.68777  0.31715  Biso   1.000  C
  H1164    1.0000 0.03865  0.68622  0.29783  Biso   1.000  H
  H1165    1.0000 0.11146  0.72931  0.29933  Biso   1.000  H
  C1149    1.0000 0.06797  0.68772  0.31715  Biso   1.000  C
  C1150    1.0000 0.07326  0.96905  0.28969  Biso   1.000  C
  H1166    1.0000 0.10547  0.91637  0.27993  Biso   1.000  H
  H1167    1.0000 0.03238  0.88437  0.27953  Biso   1.000  H
  H1168    1.0000 0.10545  0.91632  0.27993  Biso   1.000  H
  H1169    1.0000 0.03235  0.88432  0.27953  Biso   1.000  H
  C1151    1.0000 0.23086  0.25815  0.28152  Biso   1.000  C
  H1170    1.0000 0.33416  0.11517  0.26614  Biso   1.000  H
  H1171    1.0000 0.32956  0.15264  0.25413  Biso   1.000  H
  C1152    1.0000 0.24470  0.09458  0.26246  Biso   1.000  C
  H1172    1.0000 0.33414  0.11512  0.26614  Biso   1.000  H
  C1153    1.0000 0.24467  0.09453  0.26246  Biso   1.000  C
  H1173    1.0000 0.41869  0.25707  0.26243  Biso   1.000  H
  H1174    1.0000 0.42808  0.21768  0.27324  Biso   1.000  H
  C1154    1.0000 0.43377  0.29558  0.28013  Biso   1.000  C
  H1175    1.0000 0.41867  0.25702  0.26243  Biso   1.000  H
  H1176    1.0000 0.42806  0.21763  0.27324  Biso   1.000  H
  C1155    1.0000 0.43375  0.29553  0.28013  Biso   1.000  C
  C1156    1.0000 0.29768  0.26343  0.25894  Biso   1.000  C
  C1157    1.0000 0.09660  0.69207  0.24856  Biso   1.000  C
  C1158    1.0000 0.09658  0.69202  0.24856  Biso   1.000  C
  C1159    1.0000 0.00147  0.68707  0.23890  Biso   1.000  C
  C1160    1.0000 0.09846  0.78906  0.23884  Biso   1.000  C
  C1161    1.0000 0.00145  0.68702  0.23890  Biso   1.000  C
  C1162    1.0000 0.09844  0.78901  0.23884  Biso   1.000  C
  C1163    1.0000 0.94729  0.67116  0.24573  Biso   1.000  C
  C1164    1.0000 0.94727  0.67111  0.24573  Biso   1.000  C
  C1165    1.0000 0.86089  0.66456  0.27191  Biso   1.000  C
  C1166    1.0000 0.86086  0.66451  0.27191  Biso   1.000  C
  C1167    1.0000 0.85531  0.68257  0.28590  Biso   1.000  C
  C1168    1.0000 0.85528  0.68253  0.28590  Biso   1.000  C
  C1169    1.0000 0.91416  0.74396  0.30390  Biso   1.000  C
  C1170    1.0000 0.91414  0.74391  0.30390  Biso   1.000  C
  H1177    1.0000 0.06648  0.64795  0.31603  Biso   1.000  H
  C1171    1.0000 0.12288  0.72955  0.32581  Biso   1.000  C
  H1178    1.0000 0.02958  0.67958  0.32143  Biso   1.000  H
  H1179    1.0000 0.02956  0.67953  0.32143  Biso   1.000  H
  H1180    1.0000 0.07677  0.99324  0.28193  Biso   1.000  H
  H1181    1.0000 0.03399  0.95866  0.29394  Biso   1.000  H
  H1182    1.0000 0.03397  0.95862  0.29394  Biso   1.000  H
  C1172    1.0000 0.12677  0.01237  0.29915  Biso   1.000  C
  C1173    1.0000 0.12675  0.01233  0.29915  Biso   1.000  C
  C1174    1.0000 0.19056  0.26184  0.29259  Biso   1.000  C
  C1175    1.0000 0.23018  0.29277  0.27053  Biso   1.000  C
  C1176    1.0000 0.23015  0.29272  0.27053  Biso   1.000  C
  H1183    1.0000 0.22900  0.08588  0.27143  Biso   1.000  H
  H1184    1.0000 0.22587  0.11624  0.25813  Biso   1.000  H
  C1177    1.0000 0.22219  0.03207  0.25544  Biso   1.000  C
  H1185    1.0000 0.22898  0.08583  0.27143  Biso   1.000  H
  C1178    1.0000 0.22217  0.03203  0.25544  Biso   1.000  C
  H1186    1.0000 0.41666  0.27845  0.28873  Biso   1.000  H
  H1187    1.0000 0.47811  0.30938  0.28063  Biso   1.000  H
  C1179    1.0000 0.43070  0.35387  0.27915  Biso   1.000  C
  H1188    1.0000 0.47809  0.30933  0.28063  Biso   1.000  H
  C1180    1.0000 0.43068  0.35383  0.27915  Biso   1.000  C
  C1181    1.0000 0.32888  0.27616  0.24573  Biso   1.000  C
  C1182    1.0000 0.26389  0.29576  0.25935  Biso   1.000  C
  C1183    1.0000 0.32886  0.27611  0.24573  Biso   1.000  C
  C1184    1.0000 0.26386  0.29572  0.25935  Biso   1.000  C
  C1185    1.0000 0.06338  0.63186  0.25585  Biso   1.000  C
  C1186    1.0000 0.06335  0.63181  0.25585  Biso   1.000  C
  H1189    1.0000 0.13509  0.71944  0.25323  Biso   1.000  H
  H1190    1.0000 0.10799  0.68365  0.24003  Biso   1.000  H
  C1187    1.0000 0.99868  0.66526  0.22619  Biso   1.000  C
  C1188    1.0000 0.99865  0.66522  0.22619  Biso   1.000  C
  H1191    1.0000 0.10758  0.77877  0.23024  Biso   1.000  H
  H1192    1.0000 0.13809  0.81386  0.24334  Biso   1.000  H
  C1189    1.0000 0.06870  0.82897  0.23703  Biso   1.000  C
  H1193    1.0000 0.10755  0.77872  0.23024  Biso   1.000  H
  H1194    1.0000 0.13806  0.81381  0.24334  Biso   1.000  H
  C1190    1.0000 0.06868  0.82892  0.23703  Biso   1.000  C
  C1191    1.0000 0.88940  0.63228  0.23989  Biso   1.000  C
  C1192    1.0000 0.88937  0.63223  0.23989  Biso   1.000  C
  C1193    1.0000 0.82390  0.68557  0.26301  Biso   1.000  C
  C1194    1.0000 0.83398  0.59228  0.27137  Biso   1.000  C
  C1195    1.0000 0.82388  0.68552  0.26301  Biso   1.000  C
  C1196    1.0000 0.83396  0.59223  0.27137  Biso   1.000  C
  C1197    1.0000 0.79956  0.66274  0.29270  Biso   1.000  C
  C1198    1.0000 0.85919  0.72365  0.31062  Biso   1.000  C
  H1195    1.0000 0.95219  0.77156  0.30783  Biso   1.000  H
  H1196    1.0000 0.95217  0.77152  0.30783  Biso   1.000  H
  H1197    1.0000 0.12338  0.76815  0.32734  Biso   1.000  H
  H1198    1.0000 0.11907  0.70896  0.33403  Biso   1.000  H
  H1199    1.0000 0.16108  0.73797  0.32153  Biso   1.000  H
  H1200    1.0000 0.11904  0.70892  0.33403  Biso   1.000  H
  H1201    1.0000 0.16106  0.73792  0.32153  Biso   1.000  H
  H1202    1.0000 0.12459  0.98978  0.30693  Biso   1.000  H
  H1203    1.0000 0.12457  0.98973  0.30693  Biso   1.000  H
  H1204    1.0000 0.16638  0.02636  0.29494  Biso   1.000  H
  H1205    1.0000 0.12258  0.04784  0.30144  Biso   1.000  H
  H1206    1.0000 0.16636  0.02632  0.29494  Biso   1.000  H
  C1199    1.0000 0.16845  0.30255  0.28660  Biso   1.000  C
  C1200    1.0000 0.23028  0.29394  0.30490  Biso   1.000  C
  C1201    1.0000 0.13389  0.19826  0.29619  Biso   1.000  C
  C1202    1.0000 0.13387  0.19821  0.29619  Biso   1.000  C
  C1203    1.0000 0.19078  0.32093  0.27394  Biso   1.000  C
  C1204    1.0000 0.23245  0.98744  0.26116  Biso   1.000  C
  H1207    1.0000 0.24169  0.04124  0.24684  Biso   1.000  H
  H1208    1.0000 0.17750  0.01326  0.25404  Biso   1.000  H
  H1209    1.0000 0.17748  0.01322  0.25404  Biso   1.000  H
  C1205    1.0000 0.47578  0.40286  0.28951  Biso   1.000  C
  H1210    1.0000 0.44266  0.37114  0.27043  Biso   1.000  H
  H1211    1.0000 0.38808  0.34456  0.28074  Biso   1.000  H
  C1206    1.0000 0.47576  0.40281  0.28951  Biso   1.000  C
  H1212    1.0000 0.38806  0.34451  0.28074  Biso   1.000  H
  C1207    1.0000 0.31299  0.31448  0.23890  Biso   1.000  C
  C1208    1.0000 0.36776  0.25716  0.23989  Biso   1.000  C
  C1209    1.0000 0.31297  0.31443  0.23890  Biso   1.000  C
  C1210    1.0000 0.36774  0.25712  0.23989  Biso   1.000  C
  C1211    1.0000 0.27188  0.33216  0.24647  Biso   1.000  C
  C1212    1.0000 0.27185  0.33212  0.24647  Biso   1.000  C
  C1213    1.0000 0.10068  0.59836  0.25635  Biso   1.000  C
  C1214    1.0000 0.10065  0.59831  0.25635  Biso   1.000  C
  H1213    1.0000 0.05527  0.64004  0.26473  Biso   1.000  H
  H1214    1.0000 0.02338  0.60495  0.25163  Biso   1.000  H
  H1215    1.0000 0.03537  0.67616  0.22164  Biso   1.000  H
  H1216    1.0000 0.03534  0.67612  0.22164  Biso   1.000  H
  C1215    1.0000 0.94149  0.62755  0.22037  Biso   1.000  C
  H1217    1.0000 0.02775  0.80324  0.23313  Biso   1.000  H
  H1218    1.0000 0.06228  0.84165  0.24563  Biso   1.000  H
  C1216    1.0000 0.10468  0.88708  0.22872  Biso   1.000  C
  C1217    1.0000 0.10466  0.88703  0.22872  Biso   1.000  C
  C1218    1.0000 0.88917  0.61197  0.22723  Biso   1.000  C
  C1219    1.0000 0.88915  0.61193  0.22723  Biso   1.000  C
  H1219    1.0000 0.85228  0.62044  0.24434  Biso   1.000  H
  H1220    1.0000 0.78099  0.66587  0.26614  Biso   1.000  H
  H1221    1.0000 0.82307  0.67046  0.25413  Biso   1.000  H
  C1220    1.0000 0.84989  0.75537  0.26246  Biso   1.000  C
  H1222    1.0000 0.78097  0.66582  0.26614  Biso   1.000  H
  C1221    1.0000 0.84987  0.75533  0.26246  Biso   1.000  C
  H1223    1.0000 0.83838  0.58137  0.26243  Biso   1.000  H
  H1224    1.0000 0.78959  0.57197  0.27324  Biso   1.000  H
  C1222    1.0000 0.86178  0.56626  0.28013  Biso   1.000  C
  H1225    1.0000 0.83835  0.58133  0.26243  Biso   1.000  H
  H1226    1.0000 0.78957  0.57192  0.27324  Biso   1.000  H
  C1223    1.0000 0.86175  0.56621  0.28013  Biso   1.000  C
  H1227    1.0000 0.76156  0.63583  0.28873  Biso   1.000  H
  C1224    1.0000 0.80058  0.68243  0.30526  Biso   1.000  C
  H1228    1.0000 0.86097  0.73806  0.31914  Biso   1.000  H
  H1229    1.0000 0.86095  0.73802  0.31914  Biso   1.000  H
  C1225    1.0000 0.12978  0.32187  0.29255  Biso   1.000  C
  C1226    1.0000 0.12975  0.32182  0.29255  Biso   1.000  C
  H1230    1.0000 0.24457  0.26685  0.30843  Biso   1.000  H
  H1231    1.0000 0.20299  0.29665  0.31143  Biso   1.000  H
  C1227    1.0000 0.28305  0.35443  0.30341  Biso   1.000  C
  H1232    1.0000 0.10869  0.20514  0.30254  Biso   1.000  H
  H1233    1.0000 0.14888  0.17304  0.30044  Biso   1.000  H
  C1228    1.0000 0.09326  0.16205  0.28513  Biso   1.000  C
  C1229    1.0000 0.17476  0.36136  0.26724  Biso   1.000  C
  C1230    1.0000 0.17474  0.36131  0.26724  Biso   1.000  C
  H1234    1.0000 0.21068  0.97485  0.26933  Biso   1.000  H
  H1235    1.0000 0.21760  0.95197  0.25544  Biso   1.000  H
  H1236    1.0000 0.21758  0.95193  0.25544  Biso   1.000  H
  H1237    1.0000 0.27657  0.00484  0.26264  Biso   1.000  H
  H1238    1.0000 0.51816  0.41395  0.28763  Biso   1.000  H
  H1239    1.0000 0.47191  0.43968  0.28913  Biso   1.000  H
  H1240    1.0000 0.46491  0.38508  0.29813  Biso   1.000  H
  H1241    1.0000 0.47188  0.43963  0.28913  Biso   1.000  H
  H1242    1.0000 0.46488  0.38503  0.29813  Biso   1.000  H
  C1231    1.0000 0.33477  0.33347  0.22619  Biso   1.000  C
  C1232    1.0000 0.33474  0.33343  0.22619  Biso   1.000  C
  C1233    1.0000 0.38805  0.27724  0.22723  Biso   1.000  C
  H1243    1.0000 0.37958  0.23185  0.24434  Biso   1.000  H
  C1234    1.0000 0.21098  0.30947  0.23884  Biso   1.000  C
  C1235    1.0000 0.30798  0.40454  0.24856  Biso   1.000  C
  C1236    1.0000 0.21095  0.30942  0.23884  Biso   1.000  C
  C1237    1.0000 0.06148  0.53253  0.26447  Biso   1.000  C
  H1244    1.0000 0.10889  0.58975  0.24753  Biso   1.000  H
  H1245    1.0000 0.14057  0.62475  0.26063  Biso   1.000  H
  C1238    1.0000 0.06151  0.53258  0.26447  Biso   1.000  C
  C1239    1.0000 0.93739  0.60467  0.20663  Biso   1.000  C
  C1240    1.0000 0.93736  0.60463  0.20663  Biso   1.000  C
  H1246    1.0000 0.08657  0.91365  0.22993  Biso   1.000  H
  C1241    1.0000 0.10496  0.87515  0.21568  Biso   1.000  C
  H1247    1.0000 0.14760  0.90986  0.23183  Biso   1.000  H
  H1248    1.0000 0.14758  0.90982  0.23183  Biso   1.000  H
  H1249    1.0000 0.85077  0.58605  0.22323  Biso   1.000  H
  H1250    1.0000 0.85688  0.77105  0.27143  Biso   1.000  H
  H1251    1.0000 0.89035  0.77414  0.25813  Biso   1.000  H
  C1242    1.0000 0.80989  0.77788  0.25544  Biso   1.000  C
  C1243    1.0000 0.80986  0.77783  0.25544  Biso   1.000  C
  H1252    1.0000 0.86177  0.58334  0.28873  Biso   1.000  H
  H1253    1.0000 0.83128  0.52195  0.28063  Biso   1.000  H
  C1244    1.0000 0.92317  0.56935  0.27915  Biso   1.000  C
  C1245    1.0000 0.74318  0.66367  0.31294  Biso   1.000  C
  C1246    1.0000 0.74316  0.66363  0.31294  Biso   1.000  C
  C1247    1.0000 0.11349  0.36038  0.28592  Biso   1.000  C
  H1254    1.0000 0.11499  0.30868  0.30104  Biso   1.000  H
  C1248    1.0000 0.11347  0.36033  0.28592  Biso   1.000  C
  H1255    1.0000 0.11497  0.30863  0.30104  Biso   1.000  H
  H1256    1.0000 0.31380  0.35247  0.29783  Biso   1.000  H
  H1257    1.0000 0.27071  0.38218  0.29933  Biso   1.000  H
  C1249    1.0000 0.31229  0.38026  0.31715  Biso   1.000  C
  H1258    1.0000 0.31377  0.35242  0.29783  Biso   1.000  H
  H1259    1.0000 0.27068  0.38213  0.29933  Biso   1.000  H
  C1250    1.0000 0.31227  0.38021  0.31715  Biso   1.000  C
  H1260    1.0000 0.08367  0.18914  0.27993  Biso   1.000  H
  H1261    1.0000 0.11568  0.14806  0.27953  Biso   1.000  H
  C1251    1.0000 0.03098  0.10426  0.28969  Biso   1.000  C
  H1262    1.0000 0.11566  0.14801  0.27953  Biso   1.000  H
  C1252    1.0000 0.03096  0.10422  0.28969  Biso   1.000  C
  C1253    1.0000 0.13747  0.38045  0.27318  Biso   1.000  C
  H1263    1.0000 0.18971  0.37488  0.25883  Biso   1.000  H
  H1264    1.0000 0.18969  0.37483  0.25883  Biso   1.000  H
  H1265    1.0000 0.32387  0.35925  0.22164  Biso   1.000  H
  C1254    1.0000 0.37250  0.31396  0.22037  Biso   1.000  C
  C1255    1.0000 0.37248  0.31392  0.22037  Biso   1.000  C
  H1266    1.0000 0.41398  0.26474  0.22323  Biso   1.000  H
  H1267    1.0000 0.22127  0.32884  0.23024  Biso   1.000  H
  H1268    1.0000 0.18620  0.32426  0.24334  Biso   1.000  H
  C1256    1.0000 0.17110  0.23976  0.23703  Biso   1.000  C
  C1257    1.0000 0.17107  0.23971  0.23703  Biso   1.000  C
  H1269    1.0000 0.28057  0.41568  0.25323  Biso   1.000  H
  H1270    1.0000 0.31638  0.42433  0.24003  Biso   1.000  H
  C1258    1.0000 0.36816  0.43154  0.25585  Biso   1.000  C
  H1271    1.0000 0.28055  0.41563  0.25323  Biso   1.000  H
  H1272    1.0000 0.05107  0.54095  0.27303  Biso   1.000  H
  H1273    1.0000 0.02368  0.50506  0.25983  Biso   1.000  H
  H1274    1.0000 0.08660  0.51307  0.26533  Biso   1.000  H
  H1275    1.0000 0.02366  0.50502  0.25983  Biso   1.000  H
  H1276    1.0000 0.08657  0.51302  0.26533  Biso   1.000  H
  N49      1.0000 0.98377  0.61300  0.20004  Biso   1.000  N
  H1277    1.0000 0.06267  0.85274  0.21254  Biso   1.000  H
  H1278    1.0000 0.12787  0.91384  0.21104  Biso   1.000  H
  H1279    1.0000 0.12439  0.85016  0.21433  Biso   1.000  H
  H1280    1.0000 0.12437  0.85012  0.21433  Biso   1.000  H
  H1281    1.0000 0.79957  0.75837  0.24684  Biso   1.000  H
  H1282    1.0000 0.83579  0.82256  0.25404  Biso   1.000  H
  C1259    1.0000 0.75496  0.76754  0.26116  Biso   1.000  C
  H1283    1.0000 0.79954  0.75832  0.24684  Biso   1.000  H
  H1284    1.0000 0.83577  0.82251  0.25404  Biso   1.000  H
  C1260    1.0000 0.92707  0.52425  0.28951  Biso   1.000  C
  H1285    1.0000 0.92848  0.55737  0.27043  Biso   1.000  H
  H1286    1.0000 0.95647  0.61197  0.28074  Biso   1.000  H
  H1287    1.0000 0.92846  0.55733  0.27043  Biso   1.000  H
  H1288    1.0000 0.95645  0.61193  0.28074  Biso   1.000  H
  N50      1.0000 0.69039  0.62315  0.30917  Biso   1.000  N
  C1261    1.0000 0.07658  0.38573  0.29187  Biso   1.000  C
  H1289    1.0000 0.35208  0.41858  0.31603  Biso   1.000  H
  H1290    1.0000 0.32048  0.35004  0.32143  Biso   1.000  H
  C1262    1.0000 0.27046  0.39336  0.32581  Biso   1.000  C
  H1291    1.0000 0.35205  0.41853  0.31603  Biso   1.000  H
  C1263    1.0000 0.27044  0.39331  0.32581  Biso   1.000  C
  C1264    1.0000 0.98770  0.11446  0.29915  Biso   1.000  C
  C1265    1.0000 0.98768  0.11442  0.29915  Biso   1.000  C
  H1292    1.0000 0.04136  0.07535  0.29394  Biso   1.000  H
  H1293    1.0000 0.00676  0.08354  0.28193  Biso   1.000  H
  H1294    1.0000 0.12766  0.40735  0.26873  Biso   1.000  H
  C1266    1.0000 0.39540  0.33277  0.20663  Biso   1.000  C
  C1267    1.0000 0.39537  0.33272  0.20663  Biso   1.000  C
  H1295    1.0000 0.19676  0.22455  0.23313  Biso   1.000  H
  H1296    1.0000 0.15839  0.22067  0.24563  Biso   1.000  H
  C1268    1.0000 0.11297  0.21768  0.22872  Biso   1.000  C
  H1297    1.0000 0.15837  0.22062  0.24563  Biso   1.000  H
  C1269    1.0000 0.11295  0.21763  0.22872  Biso   1.000  C
  H1298    1.0000 0.35998  0.41526  0.26473  Biso   1.000  H
  H1299    1.0000 0.39508  0.41844  0.25163  Biso   1.000  H
  C1270    1.0000 0.40167  0.50237  0.25635  Biso   1.000  C
  H1300    1.0000 0.35996  0.41521  0.26473  Biso   1.000  H
  C1271    1.0000 0.40165  0.50233  0.25635  Biso   1.000  C
  C1272    1.0000 0.97223  0.58718  0.18669  Biso   1.000  C
  H1301    1.0000 0.76416  0.78934  0.26933  Biso   1.000  H
  H1302    1.0000 0.73438  0.78246  0.25544  Biso   1.000  H
  H1303    1.0000 0.72826  0.72347  0.26264  Biso   1.000  H
  H1304    1.0000 0.73436  0.78242  0.25544  Biso   1.000  H
  H1305    1.0000 0.72824  0.72342  0.26264  Biso   1.000  H
  H1306    1.0000 0.89579  0.48186  0.28763  Biso   1.000  H
  H1307    1.0000 0.96778  0.52818  0.28913  Biso   1.000  H
  H1308    1.0000 0.92017  0.53515  0.29813  Biso   1.000  H
  H1309    1.0000 0.89577  0.48181  0.28763  Biso   1.000  H
  H1310    1.0000 0.96775  0.52813  0.28913  Biso   1.000  H
  C1273    1.0000 0.63778  0.61235  0.31781  Biso   1.000  C
  N51      1.0000 0.06125  0.37624  0.30407  Biso   1.000  N
  H1311    1.0000 0.23189  0.35528  0.32734  Biso   1.000  H
  H1312    1.0000 0.29106  0.41016  0.33403  Biso   1.000  H
  H1313    1.0000 0.26207  0.42316  0.32153  Biso   1.000  H
  H1314    1.0000 0.23187  0.35523  0.32734  Biso   1.000  H
  H1315    1.0000 0.29104  0.41011  0.33403  Biso   1.000  H
  H1316    1.0000 0.26204  0.42312  0.32153  Biso   1.000  H
  H1317    1.0000 0.97367  0.14006  0.29494  Biso   1.000  H
  H1318    1.0000 0.95216  0.07474  0.30144  Biso   1.000  H
  H1319    1.0000 0.01030  0.13486  0.30693  Biso   1.000  H
  H1320    1.0000 0.01028  0.13482  0.30693  Biso   1.000  H
  N52      1.0000 0.38703  0.37081  0.20004  Biso   1.000  N
  N53      1.0000 0.38700  0.37076  0.20004  Biso   1.000  N
  H1321    1.0000 0.09019  0.23775  0.23183  Biso   1.000  H
  H1322    1.0000 0.08639  0.17295  0.22993  Biso   1.000  H
  C1274    1.0000 0.12489  0.22984  0.21568  Biso   1.000  C
  H1323    1.0000 0.41027  0.51917  0.24753  Biso   1.000  H
  H1324    1.0000 0.37527  0.51585  0.26063  Biso   1.000  H
  C1275    1.0000 0.46747  0.52895  0.26447  Biso   1.000  C
  H1325    1.0000 0.41025  0.51912  0.24753  Biso   1.000  H
  C1276    1.0000 0.01706  0.63817  0.17739  Biso   1.000  C
  H1326    1.0000 0.92927  0.57515  0.18424  Biso   1.000  H
  C1277    1.0000 0.97820  0.52949  0.18671  Biso   1.000  C
  H1327    1.0000 0.65360  0.64318  0.32493  Biso   1.000  H
  C1278    1.0000 0.60807  0.54685  0.32368  Biso   1.000  C
  C1279    1.0000 0.59075  0.62194  0.30950  Biso   1.000  C
  H1328    1.0000 0.65358  0.64313  0.32493  Biso   1.000  H
  C1280    1.0000 0.03117  0.40927  0.30950  Biso   1.000  C
  C1281    1.0000 0.03115  0.40922  0.30950  Biso   1.000  C
  C1282    1.0000 0.41284  0.38508  0.18669  Biso   1.000  C
  C1283    1.0000 0.41282  0.38503  0.18669  Biso   1.000  C
  H1329    1.0000 0.14728  0.20996  0.21254  Biso   1.000  H
  H1330    1.0000 0.08617  0.21407  0.21104  Biso   1.000  H
  H1331    1.0000 0.14988  0.27424  0.21433  Biso   1.000  H
  H1332    1.0000 0.08615  0.21403  0.21104  Biso   1.000  H
  H1333    1.0000 0.49498  0.51866  0.25983  Biso   1.000  H
  H1334    1.0000 0.48697  0.57354  0.26533  Biso   1.000  H
  H1335    1.0000 0.45908  0.51014  0.27303  Biso   1.000  H
  H1336    1.0000 0.05998  0.65165  0.18014  Biso   1.000  H
  N54      1.0000 0.00665  0.69198  0.17842  Biso   1.000  N
  C1284    1.0000 0.01007  0.61843  0.16318  Biso   1.000  C
  N55      1.0000 0.00662  0.69193  0.17842  Biso   1.000  N
  C1285    1.0000 0.01004  0.61838  0.16318  Biso   1.000  C
  C1286    1.0000 0.03559  0.53365  0.18895  Biso   1.000  C
  C1287    1.0000 0.92858  0.47208  0.18489  Biso   1.000  C
  C1288    1.0000 0.92856  0.47203  0.18489  Biso   1.000  C
  C1289    1.0000 0.60238  0.53824  0.33696  Biso   1.000  C
  C1290    1.0000 0.58790  0.49468  0.31609  Biso   1.000  C
  C1291    1.0000 0.58787  0.49463  0.31609  Biso   1.000  C
  N56      1.0000 0.62377  0.68505  0.30407  Biso   1.000  N
  H1337    1.0000 0.57496  0.59134  0.30233  Biso   1.000  H
  C1292    1.0000 0.53418  0.61543  0.31786  Biso   1.000  C
  N57      1.0000 0.62374  0.68501  0.30407  Biso   1.000  N
  C1293    1.0000 0.97456  0.36225  0.31781  Biso   1.000  C
  H1338    1.0000 0.01637  0.42504  0.30233  Biso   1.000  H
  C1294    1.0000 0.08126  0.46583  0.31786  Biso   1.000  C
  C1295    1.0000 0.36188  0.37895  0.17739  Biso   1.000  C
  C1296    1.0000 0.36186  0.37890  0.17739  Biso   1.000  C
  H1339    1.0000 0.42489  0.35415  0.18424  Biso   1.000  H
  C1297    1.0000 0.47051  0.44871  0.18671  Biso   1.000  C
  C1298    1.0000 0.05418  0.74499  0.18023  Biso   1.000  C
  C1299    1.0000 0.05649  0.61216  0.15688  Biso   1.000  C
  C1300    1.0000 0.05646  0.61211  0.15688  Biso   1.000  C
  C1301    1.0000 0.95890  0.60977  0.15591  Biso   1.000  C
  C1302    1.0000 0.04039  0.48045  0.18974  Biso   1.000  C
  H1340    1.0000 0.07118  0.57267  0.18993  Biso   1.000  H
  H1341    1.0000 0.07116  0.57262  0.18993  Biso   1.000  H
  H1342    1.0000 0.88969  0.46787  0.18314  Biso   1.000  H
  C1303    1.0000 0.93418  0.41804  0.18556  Biso   1.000  C
  H1343    1.0000 0.88966  0.46782  0.18314  Biso   1.000  H
  H1344    1.0000 0.61640  0.57267  0.34244  Biso   1.000  H
  C1304    1.0000 0.57598  0.47886  0.34230  Biso   1.000  C
  H1345    1.0000 0.61638  0.57262  0.34244  Biso   1.000  H
  C1305    1.0000 0.57596  0.47882  0.34230  Biso   1.000  C
  H1346    1.0000 0.59229  0.49917  0.30704  Biso   1.000  H
  C1306    1.0000 0.56137  0.43587  0.32139  Biso   1.000  C
  H1347    1.0000 0.59227  0.49912  0.30704  Biso   1.000  H
  C1307    1.0000 0.56135  0.43582  0.32139  Biso   1.000  C
  C1308    1.0000 0.61427  0.69086  0.29187  Biso   1.000  C
  C1309    1.0000 0.54288  0.66227  0.32659  Biso   1.000  C
  C1310    1.0000 0.47649  0.56757  0.31598  Biso   1.000  C
  C1311    1.0000 0.54286  0.66222  0.32659  Biso   1.000  C
  C1312    1.0000 0.47647  0.56753  0.31598  Biso   1.000  C
  N58      1.0000 0.93279  0.30966  0.30917  Biso   1.000  N
  N59      1.0000 0.93276  0.30961  0.30917  Biso   1.000  N
  H1348    1.0000 0.98959  0.34643  0.32493  Biso   1.000  H
  C1313    1.0000 0.93877  0.39196  0.32368  Biso   1.000  C
  C1314    1.0000 0.93874  0.39191  0.32368  Biso   1.000  C
  C1315    1.0000 0.11939  0.45718  0.32659  Biso   1.000  C
  C1316    1.0000 0.09108  0.52357  0.31598  Biso   1.000  C
  C1317    1.0000 0.11937  0.45713  0.32659  Biso   1.000  C
  C1318    1.0000 0.09106  0.52352  0.31598  Biso   1.000  C
  N60      1.0000 0.30804  0.31471  0.17842  Biso   1.000  N
  H1349    1.0000 0.34840  0.40838  0.18014  Biso   1.000  H
  C1319    1.0000 0.38162  0.39168  0.16318  Biso   1.000  C
  H1350    1.0000 0.34837  0.40833  0.18014  Biso   1.000  H
  C1320    1.0000 0.52800  0.45657  0.18489  Biso   1.000  C
  C1321    1.0000 0.46637  0.50195  0.18895  Biso   1.000  C
  C1322    1.0000 0.52798  0.45652  0.18489  Biso   1.000  C
  C1323    1.0000 0.05036  0.80225  0.18100  Biso   1.000  C
  C1324    1.0000 0.05033  0.80221  0.18100  Biso   1.000  C
  H1351    1.0000 0.09098  0.61777  0.16163  Biso   1.000  H
  C1325    1.0000 0.05298  0.59817  0.14375  Biso   1.000  C
  H1352    1.0000 0.09095  0.61773  0.16163  Biso   1.000  H
  C1326    1.0000 0.05295  0.59812  0.14375  Biso   1.000  C
  H1353    1.0000 0.92676  0.61277  0.15994  Biso   1.000  H
  C1327    1.0000 0.95519  0.59644  0.14250  Biso   1.000  C
  H1354    1.0000 0.92674  0.61272  0.15994  Biso   1.000  H
  H1355    1.0000 0.07908  0.48434  0.19153  Biso   1.000  H
  C1328    1.0000 0.99160  0.42436  0.18805  Biso   1.000  C
  C1329    1.0000 0.99157  0.42431  0.18805  Biso   1.000  C
  H1356    1.0000 0.89938  0.37874  0.18433  Biso   1.000  H
  H1357    1.0000 0.57348  0.47428  0.35133  Biso   1.000  H
  C1330    1.0000 0.55428  0.42866  0.33480  Biso   1.000  C
  H1358    1.0000 0.57346  0.47423  0.35133  Biso   1.000  H
  C1331    1.0000 0.55426  0.42861  0.33480  Biso   1.000  C
  H1359    1.0000 0.54839  0.40115  0.31603  Biso   1.000  H
  C1332    1.0000 0.63968  0.75318  0.28592  Biso   1.000  C
  C1333    1.0000 0.63965  0.75313  0.28592  Biso   1.000  C
  H1360    1.0000 0.58367  0.69474  0.32793  Biso   1.000  H
  C1334    1.0000 0.49690  0.66437  0.33334  Biso   1.000  C
  C1335    1.0000 0.49687  0.66433  0.33334  Biso   1.000  C
  H1361    1.0000 0.46915  0.53515  0.31033  Biso   1.000  H
  C1336    1.0000 0.42410  0.56748  0.32325  Biso   1.000  C
  C1337    1.0000 0.42407  0.56743  0.32325  Biso   1.000  C
  C1338    1.0000 0.92048  0.25684  0.31294  Biso   1.000  C
  C1339    1.0000 0.93587  0.39766  0.33696  Biso   1.000  C
  C1340    1.0000 0.90677  0.41217  0.31609  Biso   1.000  C
  C1341    1.0000 0.93584  0.39762  0.33696  Biso   1.000  C
  C1342    1.0000 0.90675  0.41212  0.31609  Biso   1.000  C
  H1362    1.0000 0.11111  0.41638  0.32793  Biso   1.000  H
  C1343    1.0000 0.16747  0.50317  0.33334  Biso   1.000  C
  H1363    1.0000 0.11108  0.41633  0.32793  Biso   1.000  H
  C1344    1.0000 0.16744  0.50312  0.33334  Biso   1.000  C
  H1364    1.0000 0.06600  0.53087  0.31033  Biso   1.000  H
  C1345    1.0000 0.14337  0.57597  0.32325  Biso   1.000  C
  H1365    1.0000 0.06598  0.53082  0.31033  Biso   1.000  H
  C1346    1.0000 0.14335  0.57592  0.32325  Biso   1.000  C
  C1347    1.0000 0.25502  0.30924  0.18023  Biso   1.000  C
  C1348    1.0000 0.25500  0.30919  0.18023  Biso   1.000  C
  C1349    1.0000 0.39025  0.34915  0.15591  Biso   1.000  C
  C1350    1.0000 0.38786  0.44436  0.15688  Biso   1.000  C
  C1351    1.0000 0.38784  0.44431  0.15688  Biso   1.000  C
  H1366    1.0000 0.53216  0.42185  0.18314  Biso   1.000  H
  C1352    1.0000 0.58199  0.51618  0.18556  Biso   1.000  C
  C1353    1.0000 0.58197  0.51613  0.18556  Biso   1.000  C
  H1367    1.0000 0.42739  0.49854  0.18993  Biso   1.000  H
  C1354    1.0000 0.51957  0.55997  0.18974  Biso   1.000  C
  C1355    1.0000 0.51955  0.55992  0.18974  Biso   1.000  C
  C1356    1.0000 0.10538  0.86004  0.18111  Biso   1.000  C
  C1357    1.0000 0.99360  0.80179  0.18114  Biso   1.000  C
  C1358    1.0000 0.99358  0.80174  0.18114  Biso   1.000  C
  C1359    1.0000 0.00348  0.59115  0.13665  Biso   1.000  C
  H1368    1.0000 0.08437  0.59354  0.13974  Biso   1.000  H
  H1369    1.0000 0.92119  0.59125  0.13753  Biso   1.000  H
  H1370    1.0000 0.99609  0.38927  0.18853  Biso   1.000  H
  H1371    1.0000 0.99607  0.38922  0.18853  Biso   1.000  H
  H1372    1.0000 0.53438  0.38894  0.33853  Biso   1.000  H
  C1360    1.0000 0.67817  0.80796  0.29255  Biso   1.000  C
  C1361    1.0000 0.61957  0.75706  0.27318  Biso   1.000  C
  C1362    1.0000 0.67815  0.80792  0.29255  Biso   1.000  C
  C1363    1.0000 0.61955  0.75701  0.27318  Biso   1.000  C
  C1364    1.0000 0.43967  0.61525  0.33140  Biso   1.000  C
  H1373    1.0000 0.50439  0.69736  0.33884  Biso   1.000  H
  H1374    1.0000 0.50437  0.69731  0.33884  Biso   1.000  H
  H1375    1.0000 0.38275  0.53585  0.32214  Biso   1.000  H
  C1365    1.0000 0.88187  0.19948  0.30526  Biso   1.000  C
  C1366    1.0000 0.88185  0.19943  0.30526  Biso   1.000  C
  H1376    1.0000 0.95630  0.38368  0.34244  Biso   1.000  H
  C1367    1.0000 0.90287  0.42405  0.34230  Biso   1.000  C
  H1377    1.0000 0.95628  0.38363  0.34244  Biso   1.000  H
  H1378    1.0000 0.90688  0.40777  0.30704  Biso   1.000  H
  C1368    1.0000 0.87447  0.43865  0.32139  Biso   1.000  C
  H1379    1.0000 0.90686  0.40772  0.30704  Biso   1.000  H
  C1369    1.0000 0.17555  0.56034  0.33140  Biso   1.000  C
  H1380    1.0000 0.19296  0.49564  0.33884  Biso   1.000  H
  H1381    1.0000 0.15307  0.61724  0.32214  Biso   1.000  H
  C1370    1.0000 0.19781  0.24813  0.18100  Biso   1.000  C
  H1382    1.0000 0.38730  0.31406  0.15994  Biso   1.000  H
  C1371    1.0000 0.40356  0.35874  0.14250  Biso   1.000  C
  H1383    1.0000 0.38230  0.47327  0.16163  Biso   1.000  H
  C1372    1.0000 0.40185  0.45484  0.14375  Biso   1.000  C
  H1384    1.0000 0.38228  0.47323  0.16163  Biso   1.000  H
  H1385    1.0000 0.62127  0.52067  0.18433  Biso   1.000  H
  C1373    1.0000 0.57569  0.56727  0.18805  Biso   1.000  C
  H1386    1.0000 0.62125  0.52062  0.18433  Biso   1.000  H
  C1374    1.0000 0.57567  0.56722  0.18805  Biso   1.000  C
  H1387    1.0000 0.51570  0.59478  0.19153  Biso   1.000  H
  H1388    1.0000 0.51568  0.59473  0.19153  Biso   1.000  H
  H1389    1.0000 0.14377  0.86144  0.18114  Biso   1.000  H
  C1375    1.0000 0.10411  0.91510  0.18121  Biso   1.000  C
  H1390    1.0000 0.95615  0.76384  0.18114  Biso   1.000  H
  C1376    1.0000 0.99246  0.85639  0.18127  Biso   1.000  C
  H1391    1.0000 0.00156  0.58254  0.12773  Biso   1.000  H
  H1392    1.0000 0.69140  0.80637  0.30104  Biso   1.000  H
  C1377    1.0000 0.69749  0.86598  0.28660  Biso   1.000  C
  H1393    1.0000 0.69137  0.80633  0.30104  Biso   1.000  H
  C1378    1.0000 0.69747  0.86593  0.28660  Biso   1.000  C
  H1394    1.0000 0.59268  0.72038  0.26873  Biso   1.000  H
  C1379    1.0000 0.63869  0.81344  0.26724  Biso   1.000  C
  H1395    1.0000 0.59266  0.72033  0.26873  Biso   1.000  H
  H1396    1.0000 0.40738  0.61427  0.33623  Biso   1.000  H
  H1397    1.0000 0.40735  0.61422  0.33623  Biso   1.000  H
  C1380    1.0000 0.86320  0.20046  0.29270  Biso   1.000  C
  C1381    1.0000 0.86317  0.20041  0.29270  Biso   1.000  C
  C1382    1.0000 0.86447  0.14085  0.31062  Biso   1.000  C
  H1398    1.0000 0.90081  0.42658  0.35133  Biso   1.000  H
  C1383    1.0000 0.87438  0.44576  0.33480  Biso   1.000  C
  H1399    1.0000 0.90079  0.42653  0.35133  Biso   1.000  H
  C1384    1.0000 0.87436  0.44572  0.33480  Biso   1.000  C
  H1400    1.0000 0.85277  0.45166  0.31603  Biso   1.000  H
  H1401    1.0000 0.85275  0.45161  0.31603  Biso   1.000  H
  H1402    1.0000 0.20687  0.59267  0.33623  Biso   1.000  H
  H1403    1.0000 0.20685  0.59263  0.33623  Biso   1.000  H
  C1385    1.0000 0.19827  0.19185  0.18114  Biso   1.000  C
  C1386    1.0000 0.13999  0.24537  0.18111  Biso   1.000  C
  H1404    1.0000 0.40878  0.32996  0.13753  Biso   1.000  H
  C1387    1.0000 0.40889  0.41236  0.13665  Biso   1.000  C
  H1405    1.0000 0.40876  0.32992  0.13753  Biso   1.000  H
  H1406    1.0000 0.40649  0.49086  0.13974  Biso   1.000  H
  H1407    1.0000 0.40647  0.49082  0.13974  Biso   1.000  H
  H1408    1.0000 0.61076  0.60685  0.18853  Biso   1.000  H
  H1409    1.0000 0.14148  0.95305  0.18124  Biso   1.000  H
  C1388    1.0000 0.04736  0.91482  0.18128  Biso   1.000  C
  C1389    1.0000 0.04734  0.91478  0.18128  Biso   1.000  C
  C1390    1.0000 0.93505  0.86355  0.18112  Biso   1.000  C
  C1391    1.0000 0.93503  0.86350  0.18112  Biso   1.000  C
  C1392    1.0000 0.67910  0.86986  0.27394  Biso   1.000  C
  C1393    1.0000 0.73817  0.92877  0.29259  Biso   1.000  C
  C1394    1.0000 0.67907  0.86982  0.27394  Biso   1.000  C
  C1395    1.0000 0.73814  0.92872  0.29259  Biso   1.000  C
  H1410    1.0000 0.62517  0.81484  0.25883  Biso   1.000  H
  C1396    1.0000 0.82727  0.14473  0.28590  Biso   1.000  C
  H1411    1.0000 0.87429  0.23845  0.28873  Biso   1.000  H
  C1397    1.0000 0.82977  0.08588  0.30390  Biso   1.000  C
  C1398    1.0000 0.82975  0.08583  0.30390  Biso   1.000  C
  H1412    1.0000 0.87707  0.13907  0.31914  Biso   1.000  H
  H1413    1.0000 0.87705  0.13903  0.31914  Biso   1.000  H
  H1414    1.0000 0.85458  0.46565  0.33853  Biso   1.000  H
  C1399    1.0000 0.14363  0.13613  0.18127  Biso   1.000  C
  C1400    1.0000 0.14361  0.13608  0.18127  Biso   1.000  C
  H1415    1.0000 0.23617  0.19236  0.18114  Biso   1.000  H
  H1416    1.0000 0.23615  0.19232  0.18114  Biso   1.000  H
  C1401    1.0000 0.08492  0.18904  0.18121  Biso   1.000  C
  C1402    1.0000 0.08489  0.18900  0.18121  Biso   1.000  C
  H1417    1.0000 0.13857  0.28234  0.18114  Biso   1.000  H
  H1418    1.0000 0.41746  0.41905  0.12773  Biso   1.000  H
  C1403    1.0000 0.03011  0.96395  0.18150  Biso   1.000  C
  C1404    1.0000 0.03009  0.96390  0.18150  Biso   1.000  C
  C1405    1.0000 0.96384  0.93424  0.18135  Biso   1.000  C
  C1406    1.0000 0.89544  0.83140  0.19351  Biso   1.000  C
  C1407    1.0000 0.89807  0.83430  0.16817  Biso   1.000  C
  C1408    1.0000 0.89542  0.83136  0.19351  Biso   1.000  C
  C1409    1.0000 0.89804  0.83426  0.16817  Biso   1.000  C
  C1410    1.0000 0.70727  0.93747  0.27053  Biso   1.000  C
  C1411    1.0000 0.70724  0.93742  0.27053  Biso   1.000  C
  C1412    1.0000 0.74188  0.97275  0.28152  Biso   1.000  C
  C1413    1.0000 0.70606  0.93635  0.30490  Biso   1.000  C
  C1414    1.0000 0.80178  0.93564  0.29619  Biso   1.000  C
  C1415    1.0000 0.81007  0.08723  0.29102  Biso   1.000  C
  C1416    1.0000 0.80370  0.13917  0.27191  Biso   1.000  C
  C1417    1.0000 0.80368  0.13912  0.27191  Biso   1.000  C
  H1419    1.0000 0.81938  0.04784  0.30783  Biso   1.000  H
  C1418    1.0000 0.13651  0.07156  0.18112  Biso   1.000  C
  C1419    1.0000 0.13649  0.07151  0.18112  Biso   1.000  C
  C1420    1.0000 0.08521  0.13257  0.18128  Biso   1.000  C
  H1420    1.0000 0.04697  0.18843  0.18124  Biso   1.000  H
  C1421    1.0000 0.06577  0.02959  0.18135  Biso   1.000  C
  C1422    1.0000 0.93384  0.96994  0.18150  Biso   1.000  C
  C1423    1.0000 0.93381  0.96989  0.18150  Biso   1.000  C
  H1421    1.0000 0.88328  0.78747  0.19334  Biso   1.000  H
  H1422    1.0000 0.85748  0.83384  0.19313  Biso   1.000  H
  C1424    1.0000 0.92739  0.85835  0.20614  Biso   1.000  C
  H1423    1.0000 0.88326  0.78742  0.19334  Biso   1.000  H
  H1424    1.0000 0.86317  0.84198  0.16773  Biso   1.000  H
  H1425    1.0000 0.88085  0.78934  0.16854  Biso   1.000  H
  C1425    1.0000 0.93637  0.85905  0.15573  Biso   1.000  C
  H1426    1.0000 0.86314  0.84193  0.16773  Biso   1.000  H
  C1426    1.0000 0.70430  0.96816  0.25935  Biso   1.000  C
  C1427    1.0000 0.70428  0.96811  0.25935  Biso   1.000  C
  C1428    1.0000 0.77235  0.03773  0.28129  Biso   1.000  C
  H1427    1.0000 0.73316  0.97775  0.30843  Biso   1.000  H
  H1428    1.0000 0.70338  0.90636  0.31143  Biso   1.000  H
  C1429    1.0000 0.64558  0.92867  0.30341  Biso   1.000  C
  C1430    1.0000 0.64555  0.92863  0.30341  Biso   1.000  C
  H1429    1.0000 0.79489  0.90355  0.30254  Biso   1.000  H
  H1430    1.0000 0.82698  0.97583  0.30044  Biso   1.000  H
  C1431    1.0000 0.83799  0.93125  0.28513  Biso   1.000  C
  C1432    1.0000 0.76835  0.06903  0.26990  Biso   1.000  C
  C1433    1.0000 0.86167  0.17618  0.26301  Biso   1.000  C
  C1434    1.0000 0.75828  0.16607  0.27137  Biso   1.000  C
  C1435    1.0000 0.86165  0.17613  0.26301  Biso   1.000  C
  C1436    1.0000 0.75825  0.16602  0.27137  Biso   1.000  C
  C1437    1.0000 0.16863  0.06407  0.19351  Biso   1.000  C
  C1438    1.0000 0.16573  0.06379  0.16817  Biso   1.000  C
  C1439    1.0000 0.03609  0.06618  0.18150  Biso   1.000  C
  C1440    1.0000 0.86746  0.95267  0.18128  Biso   1.000  C
  C1441    1.0000 0.97040  0.03619  0.18135  Biso   1.000  C
  H1431    1.0000 0.96797  0.86107  0.20583  Biso   1.000  H
  H1432    1.0000 0.93486  0.90083  0.20673  Biso   1.000  H
  C1442    1.0000 0.89369  0.82336  0.21919  Biso   1.000  C
  H1433    1.0000 0.96795  0.86102  0.20583  Biso   1.000  H
  H1434    1.0000 0.95300  0.90397  0.15534  Biso   1.000  H
  H1435    1.0000 0.97155  0.85194  0.15623  Biso   1.000  H
  C1443    1.0000 0.90067  0.82986  0.14306  Biso   1.000  C
  H1436    1.0000 0.95297  0.90392  0.15534  Biso   1.000  H
  C1444    1.0000 0.90064  0.82981  0.14306  Biso   1.000  C
  C1445    1.0000 0.66790  0.93976  0.24647  Biso   1.000  C
  C1446    1.0000 0.66787  0.93971  0.24647  Biso   1.000  C
  C1447    1.0000 0.73658  0.03427  0.25894  Biso   1.000  C
  C1448    1.0000 0.73656  0.03422  0.25894  Biso   1.000  C
  H1437    1.0000 0.64758  0.96138  0.29783  Biso   1.000  H
  H1438    1.0000 0.61787  0.88858  0.29933  Biso   1.000  H
  C1449    1.0000 0.61979  0.93204  0.31715  Biso   1.000  C
  H1439    1.0000 0.64756  0.96133  0.29783  Biso   1.000  H
  H1440    1.0000 0.61785  0.88853  0.29933  Biso   1.000  H
  H1441    1.0000 0.81090  0.89457  0.27993  Biso   1.000  H
  H1442    1.0000 0.85198  0.96765  0.27953  Biso   1.000  H
  C1450    1.0000 0.89579  0.92675  0.28969  Biso   1.000  C
  H1443    1.0000 0.81087  0.89452  0.27993  Biso   1.000  H
  H1444    1.0000 0.88490  0.21908  0.26614  Biso   1.000  H
  H1445    1.0000 0.84740  0.17697  0.25413  Biso   1.000  H
  C1451    1.0000 0.90547  0.15016  0.26246  Biso   1.000  C
  H1446    1.0000 0.88488  0.21903  0.26614  Biso   1.000  H
  H1447    1.0000 0.84738  0.17692  0.25413  Biso   1.000  H
  C1452    1.0000 0.90545  0.15012  0.26246  Biso   1.000  C
  H1448    1.0000 0.74299  0.16167  0.26243  Biso   1.000  H
  H1449    1.0000 0.78238  0.21047  0.27324  Biso   1.000  H
  C1453    1.0000 0.70447  0.13828  0.28013  Biso   1.000  C
  H1450    1.0000 0.74297  0.16162  0.26243  Biso   1.000  H
  H1451    1.0000 0.78236  0.21042  0.27324  Biso   1.000  H
  C1454    1.0000 0.70445  0.13823  0.28013  Biso   1.000  C
  H1452    1.0000 0.21259  0.09584  0.19334  Biso   1.000  H
  H1453    1.0000 0.16616  0.02365  0.19313  Biso   1.000  H
  C1455    1.0000 0.14165  0.06903  0.20614  Biso   1.000  C
  H1454    1.0000 0.15808  0.02126  0.16773  Biso   1.000  H
  H1455    1.0000 0.21068  0.09154  0.16854  Biso   1.000  H
  C1456    1.0000 0.14099  0.07736  0.15573  Biso   1.000  C
  H1456    1.0000 0.15806  0.02122  0.16773  Biso   1.000  H
  C1457    1.0000 0.14097  0.07732  0.15573  Biso   1.000  C
  C1458    1.0000 0.81101  0.89592  0.18121  Biso   1.000  C
  C1459    1.0000 0.81098  0.89588  0.18121  Biso   1.000  C
  C1460    1.0000 0.86391  0.00756  0.18127  Biso   1.000  C
  C1461    1.0000 0.92847  0.06496  0.18112  Biso   1.000  C
  H1457    1.0000 0.85185  0.81765  0.21943  Biso   1.000  H
  H1458    1.0000 0.91668  0.84876  0.22664  Biso   1.000  H
  C1462    1.0000 0.88956  0.75935  0.22013  Biso   1.000  C
  H1459    1.0000 0.91666  0.84871  0.22664  Biso   1.000  H
  H1460    1.0000 0.88968  0.78625  0.14253  Biso   1.000  H
  H1461    1.0000 0.86249  0.83187  0.14283  Biso   1.000  H
  C1463    1.0000 0.94655  0.86944  0.13059  Biso   1.000  C
  H1462    1.0000 0.86247  0.83182  0.14283  Biso   1.000  H
  C1464    1.0000 0.68559  0.99857  0.23890  Biso   1.000  C
  C1465    1.0000 0.69056  0.90154  0.23884  Biso   1.000  C
  C1466    1.0000 0.59549  0.90345  0.24856  Biso   1.000  C
  C1467    1.0000 0.68557  0.99853  0.23890  Biso   1.000  C
  C1468    1.0000 0.72386  0.05275  0.24573  Biso   1.000  C
  H1463    1.0000 0.58148  0.93354  0.31603  Biso   1.000  H
  H1464    1.0000 0.64998  0.97045  0.32143  Biso   1.000  H
  C1469    1.0000 0.60669  0.87716  0.32581  Biso   1.000  C
  C1470    1.0000 0.60667  0.87711  0.32581  Biso   1.000  C
  H1465    1.0000 0.92468  0.96606  0.29394  Biso   1.000  H
  H1466    1.0000 0.91649  0.92325  0.28193  Biso   1.000  H
  C1471    1.0000 0.88559  0.87328  0.29915  Biso   1.000  C
  C1472    1.0000 0.88556  0.87323  0.29915  Biso   1.000  C
  H1467    1.0000 0.91416  0.14314  0.27143  Biso   1.000  H
  H1468    1.0000 0.88375  0.10964  0.25813  Biso   1.000  H
  C1473    1.0000 0.96798  0.19017  0.25544  Biso   1.000  C
  C1474    1.0000 0.96795  0.19012  0.25544  Biso   1.000  C
  H1469    1.0000 0.72157  0.13828  0.28873  Biso   1.000  H
  H1470    1.0000 0.69065  0.16874  0.28063  Biso   1.000  H
  C1475    1.0000 0.64616  0.07685  0.27915  Biso   1.000  C
  H1471    1.0000 0.72155  0.13823  0.28873  Biso   1.000  H
  H1472    1.0000 0.13898  0.10698  0.20583  Biso   1.000  H
  H1473    1.0000 0.09915  0.03404  0.20673  Biso   1.000  H
  C1476    1.0000 0.17666  0.07034  0.21919  Biso   1.000  C
  H1474    1.0000 0.13896  0.10693  0.20583  Biso   1.000  H
  H1475    1.0000 0.09608  0.04906  0.15534  Biso   1.000  H
  H1476    1.0000 0.14808  0.11966  0.15623  Biso   1.000  H
  C1477    1.0000 0.17019  0.07086  0.14306  Biso   1.000  C
  H1477    1.0000 0.14805  0.11961  0.15623  Biso   1.000  H
  C1478    1.0000 0.17017  0.07081  0.14306  Biso   1.000  C
  C1479    1.0000 0.75466  0.89466  0.18111  Biso   1.000  C
  H1478    1.0000 0.81156  0.85854  0.18124  Biso   1.000  H
  C1480    1.0000 0.75464  0.89461  0.18111  Biso   1.000  C
  C1481    1.0000 0.80816  0.00643  0.18114  Biso   1.000  C
  C1482    1.0000 0.93593  0.10459  0.19351  Biso   1.000  C
  C1483    1.0000 0.93624  0.10197  0.16817  Biso   1.000  C
  H1479    1.0000 0.93048  0.76445  0.21893  Biso   1.000  H
  H1480    1.0000 0.87359  0.74134  0.22853  Biso   1.000  H
  H1481    1.0000 0.86217  0.73236  0.21344  Biso   1.000  H
  H1482    1.0000 0.98378  0.86626  0.13083  Biso   1.000  H
  H1483    1.0000 0.92486  0.85255  0.12254  Biso   1.000  H
  H1484    1.0000 0.95779  0.91267  0.13123  Biso   1.000  H
  H1485    1.0000 0.98375  0.86621  0.13083  Biso   1.000  H
  H1486    1.0000 0.95777  0.91263  0.13123  Biso   1.000  H
  C1484    1.0000 0.66655  0.00133  0.22619  Biso   1.000  C
  H1487    1.0000 0.67119  0.89246  0.23024  Biso   1.000  H
  H1488    1.0000 0.67579  0.86195  0.24334  Biso   1.000  H
  C1485    1.0000 0.76028  0.93134  0.23703  Biso   1.000  C
  H1489    1.0000 0.67117  0.89241  0.23024  Biso   1.000  H
  H1490    1.0000 0.58438  0.86495  0.25323  Biso   1.000  H
  H1491    1.0000 0.57568  0.89204  0.24003  Biso   1.000  H
  C1486    1.0000 0.56850  0.93667  0.25585  Biso   1.000  C
  C1487    1.0000 0.56848  0.93663  0.25585  Biso   1.000  C
  C1488    1.0000 0.74290  0.11067  0.23989  Biso   1.000  C
  C1489    1.0000 0.74287  0.11063  0.23989  Biso   1.000  C
  H1492    1.0000 0.64477  0.87665  0.32734  Biso   1.000  H
  H1493    1.0000 0.58987  0.88095  0.33403  Biso   1.000  H
  H1494    1.0000 0.57688  0.83894  0.32153  Biso   1.000  H
  H1495    1.0000 0.85998  0.83365  0.29494  Biso   1.000  H
  H1496    1.0000 0.92527  0.87744  0.30144  Biso   1.000  H
  H1497    1.0000 0.86517  0.87548  0.30693  Biso   1.000  H
  H1498    1.0000 0.86515  0.87543  0.30693  Biso   1.000  H
  H1499    1.0000 0.95878  0.20046  0.24684  Biso   1.000  H
  H1500    1.0000 0.98678  0.16425  0.25404  Biso   1.000  H
  H1501    1.0000 0.95876  0.20041  0.24684  Biso   1.000  H
  C1490    1.0000 0.01256  0.24505  0.26116  Biso   1.000  C
  C1491    1.0000 0.59718  0.07296  0.28951  Biso   1.000  C
  H1502    1.0000 0.62889  0.07156  0.27043  Biso   1.000  H
  H1503    1.0000 0.65548  0.04353  0.28074  Biso   1.000  H
  C1492    1.0000 0.59716  0.07292  0.28951  Biso   1.000  C
  H1504    1.0000 0.62887  0.07151  0.27043  Biso   1.000  H
  H1505    1.0000 0.18237  0.03427  0.21943  Biso   1.000  H
  H1506    1.0000 0.15128  0.06796  0.22664  Biso   1.000  H
  C1493    1.0000 0.24071  0.13028  0.22013  Biso   1.000  C
  H1507    1.0000 0.18235  0.03422  0.21943  Biso   1.000  H
  H1508    1.0000 0.15126  0.06791  0.22664  Biso   1.000  H
  C1494    1.0000 0.24068  0.13023  0.22013  Biso   1.000  C
  H1509    1.0000 0.21377  0.10347  0.14253  Biso   1.000  H
  H1510    1.0000 0.16817  0.03067  0.14283  Biso   1.000  H
  C1495    1.0000 0.13061  0.07717  0.13059  Biso   1.000  C
  H1511    1.0000 0.21375  0.10342  0.14253  Biso   1.000  H
  H1512    1.0000 0.16815  0.03062  0.14283  Biso   1.000  H
  C1496    1.0000 0.13058  0.07713  0.13059  Biso   1.000  C
  C1497    1.0000 0.75187  0.94968  0.18100  Biso   1.000  C
  H1513    1.0000 0.71767  0.85625  0.18114  Biso   1.000  H
  H1514    1.0000 0.80767  0.04386  0.18114  Biso   1.000  H
  H1515    1.0000 0.80765  0.04382  0.18114  Biso   1.000  H
  H1516    1.0000 0.90416  0.11676  0.19334  Biso   1.000  H
  H1517    1.0000 0.97637  0.14254  0.19313  Biso   1.000  H
  C1498    1.0000 0.93097  0.07264  0.20614  Biso   1.000  C
  H1518    1.0000 0.97877  0.13687  0.16773  Biso   1.000  H
  H1519    1.0000 0.90848  0.11914  0.16854  Biso   1.000  H
  C1499    1.0000 0.92267  0.06365  0.15573  Biso   1.000  C
  H1520    1.0000 0.97875  0.13683  0.16773  Biso   1.000  H
  H1521    1.0000 0.64079  0.96465  0.22164  Biso   1.000  H
  C1500    1.0000 0.68608  0.05855  0.22037  Biso   1.000  C
  H1522    1.0000 0.77548  0.97228  0.23313  Biso   1.000  H
  H1523    1.0000 0.77937  0.93775  0.24563  Biso   1.000  H
  C1501    1.0000 0.78236  0.89536  0.22872  Biso   1.000  C
  H1524    1.0000 0.77546  0.97223  0.23313  Biso   1.000  H
  C1502    1.0000 0.78234  0.89531  0.22872  Biso   1.000  C
  H1525    1.0000 0.58478  0.94477  0.26473  Biso   1.000  H
  H1526    1.0000 0.58157  0.97668  0.25163  Biso   1.000  H
  C1503    1.0000 0.49768  0.89934  0.25635  Biso   1.000  C
  H1527    1.0000 0.58476  0.94472  0.26473  Biso   1.000  H
  H1528    1.0000 0.58155  0.97663  0.25163  Biso   1.000  H
  C1504    1.0000 0.72277  0.11086  0.22723  Biso   1.000  C
  H1529    1.0000 0.76817  0.14778  0.24434  Biso   1.000  H
  C1505    1.0000 0.72275  0.11081  0.22723  Biso   1.000  C
  H1530    1.0000 0.76815  0.14773  0.24434  Biso   1.000  H
  H1531    1.0000 0.99520  0.27176  0.26264  Biso   1.000  H
  H1532    1.0000 0.99518  0.27171  0.26264  Biso   1.000  H
  H1533    1.0000 0.02519  0.23588  0.26933  Biso   1.000  H
  H1534    1.0000 0.04807  0.26568  0.25544  Biso   1.000  H
  H1535    1.0000 0.02517  0.23583  0.26933  Biso   1.000  H
  H1536    1.0000 0.04805  0.26563  0.25544  Biso   1.000  H
  H1537    1.0000 0.58609  0.10426  0.28763  Biso   1.000  H
  H1538    1.0000 0.56038  0.03226  0.28913  Biso   1.000  H
  H1539    1.0000 0.61496  0.07984  0.29813  Biso   1.000  H
  H1540    1.0000 0.58606  0.10422  0.28763  Biso   1.000  H
  H1541    1.0000 0.56035  0.03221  0.28913  Biso   1.000  H
  H1542    1.0000 0.23559  0.16607  0.21893  Biso   1.000  H
  H1543    1.0000 0.25867  0.13224  0.22853  Biso   1.000  H
  H1544    1.0000 0.26768  0.12986  0.21344  Biso   1.000  H
  H1545    1.0000 0.23556  0.16602  0.21893  Biso   1.000  H
  H1546    1.0000 0.13378  0.11755  0.13083  Biso   1.000  H
  H1547    1.0000 0.14748  0.07236  0.12254  Biso   1.000  H
  H1548    1.0000 0.08738  0.04517  0.13123  Biso   1.000  H
  H1549    1.0000 0.08735  0.04513  0.13123  Biso   1.000  H
  C1506    1.0000 0.69079  0.94584  0.18023  Biso   1.000  C
  C1507    1.0000 0.69077  0.94580  0.18023  Biso   1.000  C
  H1550    1.0000 0.89310  0.03207  0.20583  Biso   1.000  H
  H1551    1.0000 0.96596  0.06515  0.20673  Biso   1.000  H
  C1508    1.0000 0.92968  0.10637  0.21919  Biso   1.000  C
  H1552    1.0000 0.89308  0.03203  0.20583  Biso   1.000  H
  C1509    1.0000 0.92966  0.10632  0.21919  Biso   1.000  C
  H1553    1.0000 0.95095  0.04704  0.15534  Biso   1.000  H
  H1554    1.0000 0.88040  0.02847  0.15623  Biso   1.000  H
  C1510    1.0000 0.92917  0.09935  0.14306  Biso   1.000  C
  H1555    1.0000 0.88038  0.02842  0.15623  Biso   1.000  H
  C1511    1.0000 0.66728  0.06267  0.20663  Biso   1.000  C
  C1512    1.0000 0.66725  0.06262  0.20663  Biso   1.000  C
  H1556    1.0000 0.76229  0.85246  0.23183  Biso   1.000  H
  H1557    1.0000 0.82707  0.91347  0.22993  Biso   1.000  H
  C1513    1.0000 0.77017  0.89503  0.21568  Biso   1.000  C
  H1558    1.0000 0.76227  0.85241  0.23183  Biso   1.000  H
  H1559    1.0000 0.82705  0.91342  0.22993  Biso   1.000  H
  H1560    1.0000 0.48087  0.89115  0.24753  Biso   1.000  H
  H1561    1.0000 0.48419  0.85948  0.26063  Biso   1.000  H
  C1514    1.0000 0.47106  0.93855  0.26447  Biso   1.000  C
  H1562    1.0000 0.48417  0.85943  0.26063  Biso   1.000  H
  H1563    1.0000 0.73529  0.14927  0.22323  Biso   1.000  H
  H1564    1.0000 0.73527  0.14923  0.22323  Biso   1.000  H
  N61      1.0000 0.68530  0.99338  0.17842  Biso   1.000  N
  N62      1.0000 0.68528  0.99333  0.17842  Biso   1.000  N
  H1565    1.0000 0.96577  0.14815  0.21943  Biso   1.000  H
  H1566    1.0000 0.93207  0.08335  0.22664  Biso   1.000  H
  C1515    1.0000 0.86977  0.11044  0.22013  Biso   1.000  C
  H1567    1.0000 0.89658  0.11035  0.14253  Biso   1.000  H
  H1568    1.0000 0.96940  0.13758  0.14283  Biso   1.000  H
  C1516    1.0000 0.92288  0.05345  0.13059  Biso   1.000  C
  H1569    1.0000 0.96937  0.13753  0.14283  Biso   1.000  H
  N63      1.0000 0.62924  0.01626  0.20004  Biso   1.000  N
  N64      1.0000 0.62922  0.01621  0.20004  Biso   1.000  N
  H1570    1.0000 0.79008  0.93738  0.21254  Biso   1.000  H
  H1571    1.0000 0.78600  0.87215  0.21104  Biso   1.000  H
  H1572    1.0000 0.72580  0.87566  0.21433  Biso   1.000  H
  H1573    1.0000 0.79006  0.93733  0.21254  Biso   1.000  H
  H1574    1.0000 0.72577  0.87562  0.21433  Biso   1.000  H
  H1575    1.0000 0.48137  0.97635  0.25983  Biso   1.000  H
  H1576    1.0000 0.42647  0.91347  0.26533  Biso   1.000  H
  H1577    1.0000 0.48989  0.94898  0.27303  Biso   1.000  H
  H1578    1.0000 0.42644  0.91342  0.26533  Biso   1.000  H
  H1579    1.0000 0.48986  0.94893  0.27303  Biso   1.000  H
  C1517    1.0000 0.62109  0.98295  0.17739  Biso   1.000  C
  H1580    1.0000 0.83396  0.06955  0.21893  Biso   1.000  H
  H1581    1.0000 0.86776  0.12644  0.22853  Biso   1.000  H
  H1582    1.0000 0.87018  0.13786  0.21344  Biso   1.000  H
  H1583    1.0000 0.87016  0.13781  0.21344  Biso   1.000  H
  H1584    1.0000 0.88248  0.01626  0.13083  Biso   1.000  H
  H1585    1.0000 0.92769  0.07516  0.12254  Biso   1.000  H
  H1586    1.0000 0.95489  0.04227  0.13123  Biso   1.000  H
  H1587    1.0000 0.88246  0.01621  0.13083  Biso   1.000  H
  H1588    1.0000 0.92767  0.07512  0.12254  Biso   1.000  H
  H1589    1.0000 0.95486  0.04222  0.13123  Biso   1.000  H
  C1518    1.0000 0.61496  0.02781  0.18669  Biso   1.000  C
  C1519    1.0000 0.61494  0.02777  0.18669  Biso   1.000  C
  H1590    1.0000 0.59166  0.94004  0.18014  Biso   1.000  H
  C1520    1.0000 0.60835  0.98996  0.16318  Biso   1.000  C
  H1591    1.0000 0.64588  0.07076  0.18424  Biso   1.000  H
  C1521    1.0000 0.55131  0.02183  0.18671  Biso   1.000  C
  H1592    1.0000 0.64585  0.07072  0.18424  Biso   1.000  H
  C1522    1.0000 0.55569  0.94355  0.15688  Biso   1.000  C
  C1523    1.0000 0.65088  0.04115  0.15591  Biso   1.000  C
  C1524    1.0000 0.65086  0.04110  0.15591  Biso   1.000  C
  C1525    1.0000 0.49808  0.96447  0.18895  Biso   1.000  C
  C1526    1.0000 0.49805  0.96442  0.18895  Biso   1.000  C
  C1527    1.0000 0.54347  0.07147  0.18489  Biso   1.000  C
  C1528    1.0000 0.54345  0.07142  0.18489  Biso   1.000  C
  H1593    1.0000 0.52678  0.90907  0.16163  Biso   1.000  H
  C1529    1.0000 0.54517  0.94706  0.14375  Biso   1.000  C
  H1594    1.0000 0.52676  0.90902  0.16163  Biso   1.000  H
  C1530    1.0000 0.54514  0.94701  0.14375  Biso   1.000  C
  H1595    1.0000 0.68597  0.07324  0.15994  Biso   1.000  H
  C1531    1.0000 0.64126  0.04484  0.14250  Biso   1.000  C
  H1596    1.0000 0.50146  0.92886  0.18993  Biso   1.000  H
  C1532    1.0000 0.44007  0.95965  0.18974  Biso   1.000  C
  H1597    1.0000 0.50144  0.92881  0.18993  Biso   1.000  H
  H1598    1.0000 0.57819  0.11035  0.18314  Biso   1.000  H
  C1533    1.0000 0.48386  0.06585  0.18556  Biso   1.000  C
  C1534    1.0000 0.58766  0.99656  0.13665  Biso   1.000  C
  H1599    1.0000 0.50917  0.91567  0.13974  Biso   1.000  H
  C1535    1.0000 0.58764  0.99651  0.13665  Biso   1.000  C
  H1600    1.0000 0.50915  0.91562  0.13974  Biso   1.000  H
  H1601    1.0000 0.67006  0.07886  0.13753  Biso   1.000  H
  H1602    1.0000 0.67004  0.07881  0.13753  Biso   1.000  H
  H1603    1.0000 0.40529  0.92095  0.19153  Biso   1.000  H
  C1536    1.0000 0.43279  0.00844  0.18805  Biso   1.000  C
  H1604    1.0000 0.47938  0.10066  0.18433  Biso   1.000  H
  H1605    1.0000 0.47936  0.10061  0.18433  Biso   1.000  H
  H1606    1.0000 0.58101  0.99848  0.12773  Biso   1.000  H
  H1607    1.0000 0.58098  0.99843  0.12773  Biso   1.000  H
  H1608    1.0000 0.39318  0.00395  0.18853  Biso   1.000  H
  C1537    1.0000 0.33567  0.83253  0.33334  Biso   1.000  C
  C1538    1.0000 0.33778  0.88067  0.32659  Biso   1.000  C
  C1539    1.0000 0.33776  0.88062  0.32659  Biso   1.000  C
  C1540    1.0000 0.38481  0.82448  0.33140  Biso   1.000  C
  H1609    1.0000 0.30269  0.80707  0.33884  Biso   1.000  H
  C1541    1.0000 0.38478  0.82443  0.33140  Biso   1.000  C
  H1610    1.0000 0.30266  0.80703  0.33884  Biso   1.000  H
  C1542    1.0000 0.38458  0.91875  0.31786  Biso   1.000  C
  H1611    1.0000 0.30529  0.88895  0.32793  Biso   1.000  H
  C1543    1.0000 0.33569  0.83257  0.33334  Biso   1.000  C
  C1544    1.0000 0.43259  0.85667  0.32325  Biso   1.000  C
  C1545    1.0000 0.43257  0.85662  0.32325  Biso   1.000  C
  H1612    1.0000 0.38577  0.79318  0.33623  Biso   1.000  H
  H1613    1.0000 0.38575  0.79313  0.33623  Biso   1.000  H
  C1546    1.0000 0.37807  0.96886  0.30950  Biso   1.000  C
  C1547    1.0000 0.37805  0.96882  0.30950  Biso   1.000  C
  C1548    1.0000 0.43249  0.90898  0.31598  Biso   1.000  C
  C1549    1.0000 0.43246  0.90893  0.31598  Biso   1.000  C
  H1614    1.0000 0.46415  0.84694  0.32214  Biso   1.000  H
  N65      1.0000 0.31501  0.93878  0.30407  Biso   1.000  N
  N66      1.0000 0.31499  0.93873  0.30407  Biso   1.000  N
  H1615    1.0000 0.40868  0.98365  0.30233  Biso   1.000  H
  C1550    1.0000 0.38770  0.02548  0.31781  Biso   1.000  C
  C1551    1.0000 0.38767  0.02543  0.31781  Biso   1.000  C
  H1616    1.0000 0.46488  0.93405  0.31033  Biso   1.000  H
  C1552    1.0000 0.30919  0.92348  0.29187  Biso   1.000  C
  C1553    1.0000 0.30916  0.92343  0.29187  Biso   1.000  C
  N67      1.0000 0.37686  0.06726  0.30917  Biso   1.000  N
  H1617    1.0000 0.35689  0.01046  0.32493  Biso   1.000  H
  C1554    1.0000 0.45320  0.06127  0.32368  Biso   1.000  C
  N68      1.0000 0.37684  0.06721  0.30917  Biso   1.000  N
  C1555    1.0000 0.45318  0.06122  0.32368  Biso   1.000  C
  C1556    1.0000 0.24689  0.88656  0.28592  Biso   1.000  C
  C1557    1.0000 0.24687  0.88652  0.28592  Biso   1.000  C
  C1558    1.0000 0.33638  0.07956  0.31294  Biso   1.000  C
  C1559    1.0000 0.33635  0.07951  0.31294  Biso   1.000  C
  C1560    1.0000 0.46178  0.06417  0.33696  Biso   1.000  C
  C1561    1.0000 0.50539  0.09327  0.31609  Biso   1.000  C
  C1562    1.0000 0.46176  0.06412  0.33696  Biso   1.000  C
  C1563    1.0000 0.50536  0.09322  0.31609  Biso   1.000  C
  C1564    1.0000 0.19209  0.87024  0.29255  Biso   1.000  C
  C1565    1.0000 0.24299  0.86256  0.27318  Biso   1.000  C
  C1566    1.0000 0.24297  0.86252  0.27318  Biso   1.000  C
  C1567    1.0000 0.31759  0.11816  0.30526  Biso   1.000  C
  C1568    1.0000 0.31757  0.11811  0.30526  Biso   1.000  C
  H1618    1.0000 0.42739  0.04377  0.34244  Biso   1.000  H
  C1569    1.0000 0.52119  0.09715  0.34230  Biso   1.000  C
  H1619    1.0000 0.42737  0.04372  0.34244  Biso   1.000  H
  H1620    1.0000 0.50088  0.09318  0.30704  Biso   1.000  H
  C1570    1.0000 0.56419  0.12555  0.32139  Biso   1.000  C
  H1621    1.0000 0.50086  0.09313  0.30704  Biso   1.000  H
  C1571    1.0000 0.13409  0.83154  0.28660  Biso   1.000  C
  H1622    1.0000 0.19367  0.88507  0.30104  Biso   1.000  H
  H1623    1.0000 0.19364  0.88502  0.30104  Biso   1.000  H
  C1572    1.0000 0.18658  0.82527  0.26724  Biso   1.000  C
  C1573    1.0000 0.18656  0.82523  0.26724  Biso   1.000  C
  H1624    1.0000 0.27969  0.87234  0.26873  Biso   1.000  H
  C1574    1.0000 0.33728  0.13687  0.29270  Biso   1.000  C
  C1575    1.0000 0.27637  0.13556  0.31062  Biso   1.000  C
  C1576    1.0000 0.33726  0.13683  0.29270  Biso   1.000  C
  C1577    1.0000 0.27635  0.13552  0.31062  Biso   1.000  C
  H1625    1.0000 0.52576  0.09926  0.35133  Biso   1.000  H
  C1578    1.0000 0.57137  0.12565  0.33480  Biso   1.000  C
  H1626    1.0000 0.52574  0.09921  0.35133  Biso   1.000  H
  H1627    1.0000 0.59887  0.14726  0.31603  Biso   1.000  H
  H1628    1.0000 0.59885  0.14721  0.31603  Biso   1.000  H
  C1579    1.0000 0.13020  0.80927  0.27394  Biso   1.000  C
  C1580    1.0000 0.13018  0.80923  0.27394  Biso   1.000  C
  C1581    1.0000 0.07126  0.80946  0.29259  Biso   1.000  C
  C1582    1.0000 0.07124  0.80941  0.29259  Biso   1.000  C
  H1629    1.0000 0.18516  0.81035  0.25883  Biso   1.000  H
  H1630    1.0000 0.36417  0.12574  0.28873  Biso   1.000  H
  C1583    1.0000 0.31750  0.17276  0.28590  Biso   1.000  C
  C1584    1.0000 0.31748  0.17271  0.28590  Biso   1.000  C
  H1631    1.0000 0.26198  0.12298  0.31914  Biso   1.000  H
  C1585    1.0000 0.25607  0.17023  0.30390  Biso   1.000  C
  H1632    1.0000 0.26195  0.12293  0.31914  Biso   1.000  H
  H1633    1.0000 0.61105  0.14544  0.33853  Biso   1.000  H
  C1586    1.0000 0.06257  0.76988  0.27053  Biso   1.000  C
  C1587    1.0000 0.06255  0.76983  0.27053  Biso   1.000  C
  C1588    1.0000 0.02729  0.76918  0.28152  Biso   1.000  C
  C1589    1.0000 0.02727  0.76913  0.28152  Biso   1.000  C
  C1590    1.0000 0.06368  0.76974  0.30490  Biso   1.000  C
  C1591    1.0000 0.06436  0.86617  0.29619  Biso   1.000  C
  C1592    1.0000 0.06434  0.86612  0.29619  Biso   1.000  C
  C1593    1.0000 0.27720  0.18998  0.29102  Biso   1.000  C
  C1594    1.0000 0.33549  0.19634  0.27191  Biso   1.000  C
  C1595    1.0000 0.27718  0.18993  0.29102  Biso   1.000  C
  H1634    1.0000 0.22850  0.18067  0.30783  Biso   1.000  H
  H1635    1.0000 0.22848  0.18062  0.30783  Biso   1.000  H
  C1596    1.0000 0.03189  0.73614  0.25935  Biso   1.000  C
  C1597    1.0000 0.96226  0.73465  0.28129  Biso   1.000  C
  H1636    1.0000 0.02226  0.75547  0.30843  Biso   1.000  H
  H1637    1.0000 0.09367  0.79706  0.31143  Biso   1.000  H
  C1598    1.0000 0.07137  0.71696  0.30341  Biso   1.000  C
  H1638    1.0000 0.02224  0.75542  0.30843  Biso   1.000  H
  H1639    1.0000 0.09365  0.79701  0.31143  Biso   1.000  H
  C1599    1.0000 0.07134  0.71692  0.30341  Biso   1.000  C
  H1640    1.0000 0.09648  0.89134  0.30254  Biso   1.000  H
  H1641    1.0000 0.02416  0.85115  0.30044  Biso   1.000  H
  C1600    1.0000 0.06879  0.90678  0.28513  Biso   1.000  C
  C1601    1.0000 0.06876  0.90673  0.28513  Biso   1.000  C
  C1602    1.0000 0.26536  0.22764  0.28129  Biso   1.000  C
  C1603    1.0000 0.31449  0.13837  0.26301  Biso   1.000  C
  C1604    1.0000 0.40780  0.24177  0.27137  Biso   1.000  C
  C1605    1.0000 0.30068  0.23166  0.26990  Biso   1.000  C
  C1606    1.0000 0.31446  0.13833  0.26301  Biso   1.000  C
  C1607    1.0000 0.40777  0.24172  0.27137  Biso   1.000  C
  C1608    1.0000 0.30066  0.23162  0.26990  Biso   1.000  C
  C1609    1.0000 0.06026  0.72814  0.24647  Biso   1.000  C
  C1610    1.0000 0.96577  0.70236  0.25894  Biso   1.000  C
  C1611    1.0000 0.96575  0.70232  0.25894  Biso   1.000  C
  C1612    1.0000 0.93097  0.69937  0.26990  Biso   1.000  C
  C1613    1.0000 0.93094  0.69932  0.26990  Biso   1.000  C
  C1614    1.0000 0.91277  0.72286  0.29102  Biso   1.000  C
  C1615    1.0000 0.91274  0.72281  0.29102  Biso   1.000  C
  H1642    1.0000 0.03868  0.68627  0.29783  Biso   1.000  H
  H1643    1.0000 0.11148  0.72936  0.29933  Biso   1.000  H
  C1616    1.0000 0.06799  0.68777  0.31715  Biso   1.000  C
  H1644    1.0000 0.03865  0.68622  0.29783  Biso   1.000  H
  H1645    1.0000 0.11146  0.72931  0.29933  Biso   1.000  H
  C1617    1.0000 0.06797  0.68772  0.31715  Biso   1.000  C
  C1618    1.0000 0.07326  0.96905  0.28969  Biso   1.000  C
  H1646    1.0000 0.10547  0.91637  0.27993  Biso   1.000  H
  H1647    1.0000 0.03238  0.88437  0.27953  Biso   1.000  H
  H1648    1.0000 0.10545  0.91632  0.27993  Biso   1.000  H
  H1649    1.0000 0.03235  0.88432  0.27953  Biso   1.000  H
  C1619    1.0000 0.23086  0.25815  0.28152  Biso   1.000  C
  H1650    1.0000 0.33416  0.11517  0.26614  Biso   1.000  H
  H1651    1.0000 0.32956  0.15264  0.25413  Biso   1.000  H
  C1620    1.0000 0.24470  0.09458  0.26246  Biso   1.000  C
  H1652    1.0000 0.33414  0.11512  0.26614  Biso   1.000  H
  C1621    1.0000 0.24467  0.09453  0.26246  Biso   1.000  C
  H1653    1.0000 0.41869  0.25707  0.26243  Biso   1.000  H
  H1654    1.0000 0.42808  0.21768  0.27324  Biso   1.000  H
  C1622    1.0000 0.43377  0.29558  0.28013  Biso   1.000  C
  H1655    1.0000 0.41867  0.25702  0.26243  Biso   1.000  H
  H1656    1.0000 0.42806  0.21763  0.27324  Biso   1.000  H
  C1623    1.0000 0.43375  0.29553  0.28013  Biso   1.000  C
  C1624    1.0000 0.29768  0.26343  0.25894  Biso   1.000  C
  C1625    1.0000 0.00147  0.68707  0.23890  Biso   1.000  C
  C1626    1.0000 0.00145  0.68702  0.23890  Biso   1.000  C
  C1627    1.0000 0.09846  0.78906  0.23884  Biso   1.000  C
  C1628    1.0000 0.09660  0.69207  0.24856  Biso   1.000  C
  C1629    1.0000 0.09844  0.78901  0.23884  Biso   1.000  C
  C1630    1.0000 0.09658  0.69202  0.24856  Biso   1.000  C
  C1631    1.0000 0.94729  0.67116  0.24573  Biso   1.000  C
  C1632    1.0000 0.94727  0.67111  0.24573  Biso   1.000  C
  C1633    1.0000 0.86089  0.66456  0.27191  Biso   1.000  C
  C1634    1.0000 0.86086  0.66451  0.27191  Biso   1.000  C
  C1635    1.0000 0.85531  0.68257  0.28590  Biso   1.000  C
  C1636    1.0000 0.85528  0.68253  0.28590  Biso   1.000  C
  C1637    1.0000 0.91416  0.74396  0.30390  Biso   1.000  C
  C1638    1.0000 0.91414  0.74391  0.30390  Biso   1.000  C
  H1657    1.0000 0.06648  0.64795  0.31603  Biso   1.000  H
  C1639    1.0000 0.12288  0.72955  0.32581  Biso   1.000  C
  H1658    1.0000 0.02958  0.67958  0.32143  Biso   1.000  H
  H1659    1.0000 0.02956  0.67953  0.32143  Biso   1.000  H
  H1660    1.0000 0.07677  0.99324  0.28193  Biso   1.000  H
  H1661    1.0000 0.03399  0.95866  0.29394  Biso   1.000  H
  H1662    1.0000 0.03397  0.95862  0.29394  Biso   1.000  H
  C1640    1.0000 0.12677  0.01237  0.29915  Biso   1.000  C
  C1641    1.0000 0.12675  0.01233  0.29915  Biso   1.000  C
  C1642    1.0000 0.23018  0.29277  0.27053  Biso   1.000  C
  C1643    1.0000 0.23015  0.29272  0.27053  Biso   1.000  C
  C1644    1.0000 0.19056  0.26184  0.29259  Biso   1.000  C
  H1663    1.0000 0.22900  0.08588  0.27143  Biso   1.000  H
  H1664    1.0000 0.22587  0.11624  0.25813  Biso   1.000  H
  C1645    1.0000 0.22219  0.03207  0.25544  Biso   1.000  C
  H1665    1.0000 0.22898  0.08583  0.27143  Biso   1.000  H
  C1646    1.0000 0.22217  0.03203  0.25544  Biso   1.000  C
  H1666    1.0000 0.41666  0.27845  0.28873  Biso   1.000  H
  H1667    1.0000 0.47811  0.30938  0.28063  Biso   1.000  H
  C1647    1.0000 0.43070  0.35387  0.27915  Biso   1.000  C
  H1668    1.0000 0.47809  0.30933  0.28063  Biso   1.000  H
  C1648    1.0000 0.43068  0.35383  0.27915  Biso   1.000  C
  C1649    1.0000 0.32888  0.27616  0.24573  Biso   1.000  C
  C1650    1.0000 0.32886  0.27611  0.24573  Biso   1.000  C
  C1651    1.0000 0.26389  0.29576  0.25935  Biso   1.000  C
  C1652    1.0000 0.26386  0.29572  0.25935  Biso   1.000  C
  C1653    1.0000 0.99868  0.66526  0.22619  Biso   1.000  C
  C1654    1.0000 0.99865  0.66522  0.22619  Biso   1.000  C
  H1669    1.0000 0.10758  0.77877  0.23024  Biso   1.000  H
  H1670    1.0000 0.13809  0.81386  0.24334  Biso   1.000  H
  C1655    1.0000 0.06870  0.82897  0.23703  Biso   1.000  C
  H1671    1.0000 0.10755  0.77872  0.23024  Biso   1.000  H
  H1672    1.0000 0.13806  0.81381  0.24334  Biso   1.000  H
  C1656    1.0000 0.06868  0.82892  0.23703  Biso   1.000  C
  H1673    1.0000 0.13509  0.71944  0.25323  Biso   1.000  H
  H1674    1.0000 0.10799  0.68365  0.24003  Biso   1.000  H
  C1657    1.0000 0.06338  0.63186  0.25585  Biso   1.000  C
  C1658    1.0000 0.06335  0.63181  0.25585  Biso   1.000  C
  C1659    1.0000 0.88940  0.63228  0.23989  Biso   1.000  C
  C1660    1.0000 0.88937  0.63223  0.23989  Biso   1.000  C
  C1661    1.0000 0.82390  0.68557  0.26301  Biso   1.000  C
  C1662    1.0000 0.83398  0.59228  0.27137  Biso   1.000  C
  C1663    1.0000 0.82388  0.68552  0.26301  Biso   1.000  C
  C1664    1.0000 0.83396  0.59223  0.27137  Biso   1.000  C
  C1665    1.0000 0.79956  0.66274  0.29270  Biso   1.000  C
  C1666    1.0000 0.85919  0.72365  0.31062  Biso   1.000  C
  H1675    1.0000 0.95219  0.77156  0.30783  Biso   1.000  H
  H1676    1.0000 0.95217  0.77152  0.30783  Biso   1.000  H
  H1677    1.0000 0.12338  0.76815  0.32734  Biso   1.000  H
  H1678    1.0000 0.11907  0.70896  0.33403  Biso   1.000  H
  H1679    1.0000 0.16108  0.73797  0.32153  Biso   1.000  H
  H1680    1.0000 0.11904  0.70892  0.33403  Biso   1.000  H
  H1681    1.0000 0.16106  0.73792  0.32153  Biso   1.000  H
  H1682    1.0000 0.12459  0.98978  0.30693  Biso   1.000  H
  H1683    1.0000 0.12457  0.98973  0.30693  Biso   1.000  H
  H1684    1.0000 0.16638  0.02636  0.29494  Biso   1.000  H
  H1685    1.0000 0.12258  0.04784  0.30144  Biso   1.000  H
  H1686    1.0000 0.16636  0.02632  0.29494  Biso   1.000  H
  C1667    1.0000 0.19078  0.32093  0.27394  Biso   1.000  C
  C1668    1.0000 0.16845  0.30255  0.28660  Biso   1.000  C
  C1669    1.0000 0.23028  0.29394  0.30490  Biso   1.000  C
  C1670    1.0000 0.13389  0.19826  0.29619  Biso   1.000  C
  C1671    1.0000 0.13387  0.19821  0.29619  Biso   1.000  C
  C1672    1.0000 0.23245  0.98744  0.26116  Biso   1.000  C
  H1687    1.0000 0.24169  0.04124  0.24684  Biso   1.000  H
  H1688    1.0000 0.17750  0.01326  0.25404  Biso   1.000  H
  H1689    1.0000 0.17748  0.01322  0.25404  Biso   1.000  H
  C1673    1.0000 0.47578  0.40286  0.28951  Biso   1.000  C
  H1690    1.0000 0.44266  0.37114  0.27043  Biso   1.000  H
  H1691    1.0000 0.38808  0.34456  0.28074  Biso   1.000  H
  C1674    1.0000 0.47576  0.40281  0.28951  Biso   1.000  C
  H1692    1.0000 0.38806  0.34451  0.28074  Biso   1.000  H
  C1675    1.0000 0.31299  0.31448  0.23890  Biso   1.000  C
  C1676    1.0000 0.31297  0.31443  0.23890  Biso   1.000  C
  C1677    1.0000 0.36776  0.25716  0.23989  Biso   1.000  C
  C1678    1.0000 0.36774  0.25712  0.23989  Biso   1.000  C
  C1679    1.0000 0.27188  0.33216  0.24647  Biso   1.000  C
  C1680    1.0000 0.27185  0.33212  0.24647  Biso   1.000  C
  C1681    1.0000 0.94149  0.62755  0.22037  Biso   1.000  C
  H1693    1.0000 0.03537  0.67616  0.22164  Biso   1.000  H
  H1694    1.0000 0.03534  0.67612  0.22164  Biso   1.000  H
  H1695    1.0000 0.02775  0.80324  0.23313  Biso   1.000  H
  H1696    1.0000 0.06228  0.84165  0.24563  Biso   1.000  H
  C1682    1.0000 0.10468  0.88708  0.22872  Biso   1.000  C
  C1683    1.0000 0.10466  0.88703  0.22872  Biso   1.000  C
  H1697    1.0000 0.05527  0.64004  0.26473  Biso   1.000  H
  H1698    1.0000 0.02338  0.60495  0.25163  Biso   1.000  H
  C1684    1.0000 0.10068  0.59836  0.25635  Biso   1.000  C
  C1685    1.0000 0.10065  0.59831  0.25635  Biso   1.000  C
  C1686    1.0000 0.88917  0.61197  0.22723  Biso   1.000  C
  C1687    1.0000 0.88915  0.61193  0.22723  Biso   1.000  C
  H1699    1.0000 0.85228  0.62044  0.24434  Biso   1.000  H
  H1700    1.0000 0.78099  0.66587  0.26614  Biso   1.000  H
  H1701    1.0000 0.82307  0.67046  0.25413  Biso   1.000  H
  C1688    1.0000 0.84989  0.75537  0.26246  Biso   1.000  C
  H1702    1.0000 0.78097  0.66582  0.26614  Biso   1.000  H
  C1689    1.0000 0.84987  0.75533  0.26246  Biso   1.000  C
  H1703    1.0000 0.83838  0.58137  0.26243  Biso   1.000  H
  H1704    1.0000 0.78959  0.57197  0.27324  Biso   1.000  H
  C1690    1.0000 0.86178  0.56626  0.28013  Biso   1.000  C
  H1705    1.0000 0.83835  0.58133  0.26243  Biso   1.000  H
  H1706    1.0000 0.78957  0.57192  0.27324  Biso   1.000  H
  C1691    1.0000 0.86175  0.56621  0.28013  Biso   1.000  C
  H1707    1.0000 0.76156  0.63583  0.28873  Biso   1.000  H
  C1692    1.0000 0.80058  0.68243  0.30526  Biso   1.000  C
  H1708    1.0000 0.86097  0.73806  0.31914  Biso   1.000  H
  H1709    1.0000 0.86095  0.73802  0.31914  Biso   1.000  H
  C1693    1.0000 0.17476  0.36136  0.26724  Biso   1.000  C
  C1694    1.0000 0.17474  0.36131  0.26724  Biso   1.000  C
  C1695    1.0000 0.12978  0.32187  0.29255  Biso   1.000  C
  C1696    1.0000 0.12975  0.32182  0.29255  Biso   1.000  C
  H1710    1.0000 0.24457  0.26685  0.30843  Biso   1.000  H
  H1711    1.0000 0.20299  0.29665  0.31143  Biso   1.000  H
  C1697    1.0000 0.28305  0.35443  0.30341  Biso   1.000  C
  H1712    1.0000 0.10869  0.20514  0.30254  Biso   1.000  H
  H1713    1.0000 0.14888  0.17304  0.30044  Biso   1.000  H
  C1698    1.0000 0.09326  0.16205  0.28513  Biso   1.000  C
  H1714    1.0000 0.21068  0.97485  0.26933  Biso   1.000  H
  H1715    1.0000 0.21760  0.95197  0.25544  Biso   1.000  H
  H1716    1.0000 0.21758  0.95193  0.25544  Biso   1.000  H
  H1717    1.0000 0.27657  0.00484  0.26264  Biso   1.000  H
  H1718    1.0000 0.51816  0.41395  0.28763  Biso   1.000  H
  H1719    1.0000 0.47191  0.43968  0.28913  Biso   1.000  H
  H1720    1.0000 0.46491  0.38508  0.29813  Biso   1.000  H
  H1721    1.0000 0.47188  0.43963  0.28913  Biso   1.000  H
  H1722    1.0000 0.46488  0.38503  0.29813  Biso   1.000  H
  C1699    1.0000 0.33477  0.33347  0.22619  Biso   1.000  C
  C1700    1.0000 0.33474  0.33343  0.22619  Biso   1.000  C
  C1701    1.0000 0.38805  0.27724  0.22723  Biso   1.000  C
  H1723    1.0000 0.37958  0.23185  0.24434  Biso   1.000  H
  C1702    1.0000 0.21098  0.30947  0.23884  Biso   1.000  C
  C1703    1.0000 0.30798  0.40454  0.24856  Biso   1.000  C
  C1704    1.0000 0.21095  0.30942  0.23884  Biso   1.000  C
  C1705    1.0000 0.93739  0.60467  0.20663  Biso   1.000  C
  C1706    1.0000 0.93736  0.60463  0.20663  Biso   1.000  C
  H1724    1.0000 0.08657  0.91365  0.22993  Biso   1.000  H
  C1707    1.0000 0.10496  0.87515  0.21568  Biso   1.000  C
  H1725    1.0000 0.14760  0.90986  0.23183  Biso   1.000  H
  H1726    1.0000 0.14758  0.90982  0.23183  Biso   1.000  H
  H1727    1.0000 0.10889  0.58975  0.24753  Biso   1.000  H
  H1728    1.0000 0.14057  0.62475  0.26063  Biso   1.000  H
  C1708    1.0000 0.06151  0.53258  0.26447  Biso   1.000  C
  C1709    1.0000 0.06148  0.53253  0.26447  Biso   1.000  C
  H1729    1.0000 0.85077  0.58605  0.22323  Biso   1.000  H
  H1730    1.0000 0.85688  0.77105  0.27143  Biso   1.000  H
  H1731    1.0000 0.89035  0.77414  0.25813  Biso   1.000  H
  C1710    1.0000 0.80989  0.77788  0.25544  Biso   1.000  C
  C1711    1.0000 0.80986  0.77783  0.25544  Biso   1.000  C
  H1732    1.0000 0.86177  0.58334  0.28873  Biso   1.000  H
  H1733    1.0000 0.83128  0.52195  0.28063  Biso   1.000  H
  C1712    1.0000 0.92317  0.56935  0.27915  Biso   1.000  C
  C1713    1.0000 0.74318  0.66367  0.31294  Biso   1.000  C
  C1714    1.0000 0.74316  0.66363  0.31294  Biso   1.000  C
  C1715    1.0000 0.13747  0.38045  0.27318  Biso   1.000  C
  H1734    1.0000 0.18971  0.37488  0.25883  Biso   1.000  H
  H1735    1.0000 0.18969  0.37483  0.25883  Biso   1.000  H
  C1716    1.0000 0.11349  0.36038  0.28592  Biso   1.000  C
  H1736    1.0000 0.11499  0.30868  0.30104  Biso   1.000  H
  C1717    1.0000 0.11347  0.36033  0.28592  Biso   1.000  C
  H1737    1.0000 0.11497  0.30863  0.30104  Biso   1.000  H
  H1738    1.0000 0.31380  0.35247  0.29783  Biso   1.000  H
  H1739    1.0000 0.27071  0.38218  0.29933  Biso   1.000  H
  C1718    1.0000 0.31229  0.38026  0.31715  Biso   1.000  C
  H1740    1.0000 0.31377  0.35242  0.29783  Biso   1.000  H
  H1741    1.0000 0.27068  0.38213  0.29933  Biso   1.000  H
  C1719    1.0000 0.31227  0.38021  0.31715  Biso   1.000  C
  H1742    1.0000 0.08367  0.18914  0.27993  Biso   1.000  H
  H1743    1.0000 0.11568  0.14806  0.27953  Biso   1.000  H
  C1720    1.0000 0.03098  0.10426  0.28969  Biso   1.000  C
  H1744    1.0000 0.11566  0.14801  0.27953  Biso   1.000  H
  C1721    1.0000 0.03096  0.10422  0.28969  Biso   1.000  C
  C1722    1.0000 0.37250  0.31396  0.22037  Biso   1.000  C
  C1723    1.0000 0.37248  0.31392  0.22037  Biso   1.000  C
  H1745    1.0000 0.32387  0.35925  0.22164  Biso   1.000  H
  H1746    1.0000 0.41398  0.26474  0.22323  Biso   1.000  H
  H1747    1.0000 0.22127  0.32884  0.23024  Biso   1.000  H
  H1748    1.0000 0.18620  0.32426  0.24334  Biso   1.000  H
  C1724    1.0000 0.17110  0.23976  0.23703  Biso   1.000  C
  C1725    1.0000 0.17107  0.23971  0.23703  Biso   1.000  C
  H1749    1.0000 0.28057  0.41568  0.25323  Biso   1.000  H
  H1750    1.0000 0.31638  0.42433  0.24003  Biso   1.000  H
  C1726    1.0000 0.36816  0.43154  0.25585  Biso   1.000  C
  H1751    1.0000 0.28055  0.41563  0.25323  Biso   1.000  H
  N69      1.0000 0.98377  0.61300  0.20004  Biso   1.000  N
  H1752    1.0000 0.06267  0.85274  0.21254  Biso   1.000  H
  H1753    1.0000 0.12787  0.91384  0.21104  Biso   1.000  H
  H1754    1.0000 0.12439  0.85016  0.21433  Biso   1.000  H
  H1755    1.0000 0.12437  0.85012  0.21433  Biso   1.000  H
  H1756    1.0000 0.05107  0.54095  0.27303  Biso   1.000  H
  H1757    1.0000 0.02368  0.50506  0.25983  Biso   1.000  H
  H1758    1.0000 0.08660  0.51307  0.26533  Biso   1.000  H
  H1759    1.0000 0.02366  0.50502  0.25983  Biso   1.000  H
  H1760    1.0000 0.08657  0.51302  0.26533  Biso   1.000  H
  H1761    1.0000 0.79957  0.75837  0.24684  Biso   1.000  H
  H1762    1.0000 0.83579  0.82256  0.25404  Biso   1.000  H
  C1727    1.0000 0.75496  0.76754  0.26116  Biso   1.000  C
  H1763    1.0000 0.79954  0.75832  0.24684  Biso   1.000  H
  H1764    1.0000 0.83577  0.82251  0.25404  Biso   1.000  H
  C1728    1.0000 0.92707  0.52425  0.28951  Biso   1.000  C
  H1765    1.0000 0.92848  0.55737  0.27043  Biso   1.000  H
  H1766    1.0000 0.95647  0.61197  0.28074  Biso   1.000  H
  H1767    1.0000 0.92846  0.55733  0.27043  Biso   1.000  H
  H1768    1.0000 0.95645  0.61193  0.28074  Biso   1.000  H
  N70      1.0000 0.69039  0.62315  0.30917  Biso   1.000  N
  H1769    1.0000 0.12766  0.40735  0.26873  Biso   1.000  H
  C1729    1.0000 0.07658  0.38573  0.29187  Biso   1.000  C
  H1770    1.0000 0.35208  0.41858  0.31603  Biso   1.000  H
  H1771    1.0000 0.32048  0.35004  0.32143  Biso   1.000  H
  C1730    1.0000 0.27046  0.39336  0.32581  Biso   1.000  C
  H1772    1.0000 0.35205  0.41853  0.31603  Biso   1.000  H
  C1731    1.0000 0.27044  0.39331  0.32581  Biso   1.000  C
  C1732    1.0000 0.98770  0.11446  0.29915  Biso   1.000  C
  C1733    1.0000 0.98768  0.11442  0.29915  Biso   1.000  C
  H1773    1.0000 0.04136  0.07535  0.29394  Biso   1.000  H
  H1774    1.0000 0.00676  0.08354  0.28193  Biso   1.000  H
  C1734    1.0000 0.39540  0.33277  0.20663  Biso   1.000  C
  C1735    1.0000 0.39537  0.33272  0.20663  Biso   1.000  C
  H1775    1.0000 0.19676  0.22455  0.23313  Biso   1.000  H
  H1776    1.0000 0.15839  0.22067  0.24563  Biso   1.000  H
  C1736    1.0000 0.11297  0.21768  0.22872  Biso   1.000  C
  H1777    1.0000 0.15837  0.22062  0.24563  Biso   1.000  H
  C1737    1.0000 0.11295  0.21763  0.22872  Biso   1.000  C
  H1778    1.0000 0.35998  0.41526  0.26473  Biso   1.000  H
  H1779    1.0000 0.39508  0.41844  0.25163  Biso   1.000  H
  C1738    1.0000 0.40167  0.50237  0.25635  Biso   1.000  C
  H1780    1.0000 0.35996  0.41521  0.26473  Biso   1.000  H
  C1739    1.0000 0.40165  0.50233  0.25635  Biso   1.000  C
  C1740    1.0000 0.97223  0.58718  0.18669  Biso   1.000  C
  H1781    1.0000 0.76416  0.78934  0.26933  Biso   1.000  H
  H1782    1.0000 0.73438  0.78246  0.25544  Biso   1.000  H
  H1783    1.0000 0.72826  0.72347  0.26264  Biso   1.000  H
  H1784    1.0000 0.73436  0.78242  0.25544  Biso   1.000  H
  H1785    1.0000 0.72824  0.72342  0.26264  Biso   1.000  H
  H1786    1.0000 0.89579  0.48186  0.28763  Biso   1.000  H
  H1787    1.0000 0.96778  0.52818  0.28913  Biso   1.000  H
  H1788    1.0000 0.92017  0.53515  0.29813  Biso   1.000  H
  H1789    1.0000 0.89577  0.48181  0.28763  Biso   1.000  H
  H1790    1.0000 0.96775  0.52813  0.28913  Biso   1.000  H
  C1741    1.0000 0.63778  0.61235  0.31781  Biso   1.000  C
  N71      1.0000 0.06125  0.37624  0.30407  Biso   1.000  N
  H1791    1.0000 0.23189  0.35528  0.32734  Biso   1.000  H
  H1792    1.0000 0.29106  0.41016  0.33403  Biso   1.000  H
  H1793    1.0000 0.26207  0.42316  0.32153  Biso   1.000  H
  H1794    1.0000 0.23187  0.35523  0.32734  Biso   1.000  H
  H1795    1.0000 0.29104  0.41011  0.33403  Biso   1.000  H
  H1796    1.0000 0.26204  0.42312  0.32153  Biso   1.000  H
  H1797    1.0000 0.97367  0.14006  0.29494  Biso   1.000  H
  H1798    1.0000 0.95216  0.07474  0.30144  Biso   1.000  H
  H1799    1.0000 0.01030  0.13486  0.30693  Biso   1.000  H
  H1800    1.0000 0.01028  0.13482  0.30693  Biso   1.000  H
  N72      1.0000 0.38703  0.37081  0.20004  Biso   1.000  N
  N73      1.0000 0.38700  0.37076  0.20004  Biso   1.000  N
  H1801    1.0000 0.09019  0.23775  0.23183  Biso   1.000  H
  H1802    1.0000 0.08639  0.17295  0.22993  Biso   1.000  H
  C1742    1.0000 0.12489  0.22984  0.21568  Biso   1.000  C
  H1803    1.0000 0.41027  0.51917  0.24753  Biso   1.000  H
  H1804    1.0000 0.37527  0.51585  0.26063  Biso   1.000  H
  C1743    1.0000 0.46747  0.52895  0.26447  Biso   1.000  C
  H1805    1.0000 0.41025  0.51912  0.24753  Biso   1.000  H
  C1744    1.0000 0.97820  0.52949  0.18671  Biso   1.000  C
  C1745    1.0000 0.01706  0.63817  0.17739  Biso   1.000  C
  H1806    1.0000 0.92927  0.57515  0.18424  Biso   1.000  H
  H1807    1.0000 0.65360  0.64318  0.32493  Biso   1.000  H
  C1746    1.0000 0.60807  0.54685  0.32368  Biso   1.000  C
  C1747    1.0000 0.59075  0.62194  0.30950  Biso   1.000  C
  H1808    1.0000 0.65358  0.64313  0.32493  Biso   1.000  H
  C1748    1.0000 0.03117  0.40927  0.30950  Biso   1.000  C
  C1749    1.0000 0.03115  0.40922  0.30950  Biso   1.000  C
  C1750    1.0000 0.41284  0.38508  0.18669  Biso   1.000  C
  C1751    1.0000 0.41282  0.38503  0.18669  Biso   1.000  C
  H1809    1.0000 0.14728  0.20996  0.21254  Biso   1.000  H
  H1810    1.0000 0.08617  0.21407  0.21104  Biso   1.000  H
  H1811    1.0000 0.14988  0.27424  0.21433  Biso   1.000  H
  H1812    1.0000 0.08615  0.21403  0.21104  Biso   1.000  H
  H1813    1.0000 0.49498  0.51866  0.25983  Biso   1.000  H
  H1814    1.0000 0.48697  0.57354  0.26533  Biso   1.000  H
  H1815    1.0000 0.45908  0.51014  0.27303  Biso   1.000  H
  C1752    1.0000 0.03559  0.53365  0.18895  Biso   1.000  C
  C1753    1.0000 0.92858  0.47208  0.18489  Biso   1.000  C
  C1754    1.0000 0.92856  0.47203  0.18489  Biso   1.000  C
  H1816    1.0000 0.05998  0.65165  0.18014  Biso   1.000  H
  N74      1.0000 0.00665  0.69198  0.17842  Biso   1.000  N
  C1755    1.0000 0.01007  0.61843  0.16318  Biso   1.000  C
  N75      1.0000 0.00662  0.69193  0.17842  Biso   1.000  N
  C1756    1.0000 0.01004  0.61838  0.16318  Biso   1.000  C
  C1757    1.0000 0.60238  0.53824  0.33696  Biso   1.000  C
  C1758    1.0000 0.58790  0.49468  0.31609  Biso   1.000  C
  C1759    1.0000 0.58787  0.49463  0.31609  Biso   1.000  C
  N76      1.0000 0.62377  0.68505  0.30407  Biso   1.000  N
  H1817    1.0000 0.57496  0.59134  0.30233  Biso   1.000  H
  C1760    1.0000 0.53418  0.61543  0.31786  Biso   1.000  C
  N77      1.0000 0.62374  0.68501  0.30407  Biso   1.000  N
  C1761    1.0000 0.97456  0.36225  0.31781  Biso   1.000  C
  H1818    1.0000 0.01637  0.42504  0.30233  Biso   1.000  H
  C1762    1.0000 0.08126  0.46583  0.31786  Biso   1.000  C
  C1763    1.0000 0.36188  0.37895  0.17739  Biso   1.000  C
  C1764    1.0000 0.36186  0.37890  0.17739  Biso   1.000  C
  H1819    1.0000 0.42489  0.35415  0.18424  Biso   1.000  H
  C1765    1.0000 0.47051  0.44871  0.18671  Biso   1.000  C
  C1766    1.0000 0.04039  0.48045  0.18974  Biso   1.000  C
  H1820    1.0000 0.07118  0.57267  0.18993  Biso   1.000  H
  H1821    1.0000 0.07116  0.57262  0.18993  Biso   1.000  H
  C1767    1.0000 0.93418  0.41804  0.18556  Biso   1.000  C
  H1822    1.0000 0.88969  0.46787  0.18314  Biso   1.000  H
  H1823    1.0000 0.88966  0.46782  0.18314  Biso   1.000  H
  C1768    1.0000 0.05418  0.74499  0.18023  Biso   1.000  C
  C1769    1.0000 0.95890  0.60977  0.15591  Biso   1.000  C
  C1770    1.0000 0.05649  0.61216  0.15688  Biso   1.000  C
  C1771    1.0000 0.05646  0.61211  0.15688  Biso   1.000  C
  H1824    1.0000 0.61640  0.57267  0.34244  Biso   1.000  H
  C1772    1.0000 0.57598  0.47886  0.34230  Biso   1.000  C
  H1825    1.0000 0.61638  0.57262  0.34244  Biso   1.000  H
  C1773    1.0000 0.57596  0.47882  0.34230  Biso   1.000  C
  H1826    1.0000 0.59229  0.49917  0.30704  Biso   1.000  H
  C1774    1.0000 0.56137  0.43587  0.32139  Biso   1.000  C
  H1827    1.0000 0.59227  0.49912  0.30704  Biso   1.000  H
  C1775    1.0000 0.56135  0.43582  0.32139  Biso   1.000  C
  C1776    1.0000 0.61427  0.69086  0.29187  Biso   1.000  C
  C1777    1.0000 0.54288  0.66227  0.32659  Biso   1.000  C
  C1778    1.0000 0.47649  0.56757  0.31598  Biso   1.000  C
  C1779    1.0000 0.54286  0.66222  0.32659  Biso   1.000  C
  C1780    1.0000 0.47647  0.56753  0.31598  Biso   1.000  C
  N78      1.0000 0.93279  0.30966  0.30917  Biso   1.000  N
  N79      1.0000 0.93276  0.30961  0.30917  Biso   1.000  N
  H1828    1.0000 0.98959  0.34643  0.32493  Biso   1.000  H
  C1781    1.0000 0.93877  0.39196  0.32368  Biso   1.000  C
  C1782    1.0000 0.93874  0.39191  0.32368  Biso   1.000  C
  C1783    1.0000 0.11939  0.45718  0.32659  Biso   1.000  C
  C1784    1.0000 0.09108  0.52357  0.31598  Biso   1.000  C
  C1785    1.0000 0.11937  0.45713  0.32659  Biso   1.000  C
  C1786    1.0000 0.09106  0.52352  0.31598  Biso   1.000  C
  N80      1.0000 0.30804  0.31471  0.17842  Biso   1.000  N
  H1829    1.0000 0.34840  0.40838  0.18014  Biso   1.000  H
  C1787    1.0000 0.38162  0.39168  0.16318  Biso   1.000  C
  H1830    1.0000 0.34837  0.40833  0.18014  Biso   1.000  H
  C1788    1.0000 0.52800  0.45657  0.18489  Biso   1.000  C
  C1789    1.0000 0.46637  0.50195  0.18895  Biso   1.000  C
  C1790    1.0000 0.52798  0.45652  0.18489  Biso   1.000  C
  H1831    1.0000 0.07908  0.48434  0.19153  Biso   1.000  H
  C1791    1.0000 0.99160  0.42436  0.18805  Biso   1.000  C
  C1792    1.0000 0.99157  0.42431  0.18805  Biso   1.000  C
  H1832    1.0000 0.89938  0.37874  0.18433  Biso   1.000  H
  C1793    1.0000 0.05036  0.80225  0.18100  Biso   1.000  C
  C1794    1.0000 0.05033  0.80221  0.18100  Biso   1.000  C
  H1833    1.0000 0.92676  0.61277  0.15994  Biso   1.000  H
  C1795    1.0000 0.95519  0.59644  0.14250  Biso   1.000  C
  H1834    1.0000 0.92674  0.61272  0.15994  Biso   1.000  H
  H1835    1.0000 0.09098  0.61777  0.16163  Biso   1.000  H
  C1796    1.0000 0.05298  0.59817  0.14375  Biso   1.000  C
  H1836    1.0000 0.09095  0.61773  0.16163  Biso   1.000  H
  C1797    1.0000 0.05295  0.59812  0.14375  Biso   1.000  C
  H1837    1.0000 0.57348  0.47428  0.35133  Biso   1.000  H
  C1798    1.0000 0.55428  0.42866  0.33480  Biso   1.000  C
  H1838    1.0000 0.57346  0.47423  0.35133  Biso   1.000  H
  C1799    1.0000 0.55426  0.42861  0.33480  Biso   1.000  C
  H1839    1.0000 0.54839  0.40115  0.31603  Biso   1.000  H
  C1800    1.0000 0.63968  0.75318  0.28592  Biso   1.000  C
  C1801    1.0000 0.63965  0.75313  0.28592  Biso   1.000  C
  H1840    1.0000 0.58367  0.69474  0.32793  Biso   1.000  H
  C1802    1.0000 0.49690  0.66437  0.33334  Biso   1.000  C
  C1803    1.0000 0.49687  0.66433  0.33334  Biso   1.000  C
  H1841    1.0000 0.46915  0.53515  0.31033  Biso   1.000  H
  C1804    1.0000 0.42410  0.56748  0.32325  Biso   1.000  C
  C1805    1.0000 0.42407  0.56743  0.32325  Biso   1.000  C
  C1806    1.0000 0.92048  0.25684  0.31294  Biso   1.000  C
  C1807    1.0000 0.93587  0.39766  0.33696  Biso   1.000  C
  C1808    1.0000 0.90677  0.41217  0.31609  Biso   1.000  C
  C1809    1.0000 0.93584  0.39762  0.33696  Biso   1.000  C
  C1810    1.0000 0.90675  0.41212  0.31609  Biso   1.000  C
  H1842    1.0000 0.11111  0.41638  0.32793  Biso   1.000  H
  C1811    1.0000 0.16747  0.50317  0.33334  Biso   1.000  C
  H1843    1.0000 0.11108  0.41633  0.32793  Biso   1.000  H
  C1812    1.0000 0.16744  0.50312  0.33334  Biso   1.000  C
  H1844    1.0000 0.06600  0.53087  0.31033  Biso   1.000  H
  C1813    1.0000 0.14337  0.57597  0.32325  Biso   1.000  C
  H1845    1.0000 0.06598  0.53082  0.31033  Biso   1.000  H
  C1814    1.0000 0.14335  0.57592  0.32325  Biso   1.000  C
  C1815    1.0000 0.25502  0.30924  0.18023  Biso   1.000  C
  C1816    1.0000 0.25500  0.30919  0.18023  Biso   1.000  C
  C1817    1.0000 0.39025  0.34915  0.15591  Biso   1.000  C
  C1818    1.0000 0.38786  0.44436  0.15688  Biso   1.000  C
  C1819    1.0000 0.38784  0.44431  0.15688  Biso   1.000  C
  H1846    1.0000 0.53216  0.42185  0.18314  Biso   1.000  H
  C1820    1.0000 0.58199  0.51618  0.18556  Biso   1.000  C
  C1821    1.0000 0.58197  0.51613  0.18556  Biso   1.000  C
  H1847    1.0000 0.42739  0.49854  0.18993  Biso   1.000  H
  C1822    1.0000 0.51957  0.55997  0.18974  Biso   1.000  C
  C1823    1.0000 0.51955  0.55992  0.18974  Biso   1.000  C
  H1848    1.0000 0.99609  0.38927  0.18853  Biso   1.000  H
  H1849    1.0000 0.99607  0.38922  0.18853  Biso   1.000  H
  C1824    1.0000 0.10538  0.86004  0.18111  Biso   1.000  C
  C1825    1.0000 0.99360  0.80179  0.18114  Biso   1.000  C
  C1826    1.0000 0.99358  0.80174  0.18114  Biso   1.000  C
  C1827    1.0000 0.00348  0.59115  0.13665  Biso   1.000  C
  H1850    1.0000 0.92119  0.59125  0.13753  Biso   1.000  H
  H1851    1.0000 0.08437  0.59354  0.13974  Biso   1.000  H
  H1852    1.0000 0.53438  0.38894  0.33853  Biso   1.000  H
  C1828    1.0000 0.67817  0.80796  0.29255  Biso   1.000  C
  C1829    1.0000 0.61957  0.75706  0.27318  Biso   1.000  C
  C1830    1.0000 0.67815  0.80792  0.29255  Biso   1.000  C
  C1831    1.0000 0.61955  0.75701  0.27318  Biso   1.000  C
  C1832    1.0000 0.43967  0.61525  0.33140  Biso   1.000  C
  H1853    1.0000 0.50439  0.69736  0.33884  Biso   1.000  H
  H1854    1.0000 0.50437  0.69731  0.33884  Biso   1.000  H
  H1855    1.0000 0.38275  0.53585  0.32214  Biso   1.000  H
  C1833    1.0000 0.88187  0.19948  0.30526  Biso   1.000  C
  C1834    1.0000 0.88185  0.19943  0.30526  Biso   1.000  C
  H1856    1.0000 0.95630  0.38368  0.34244  Biso   1.000  H
  C1835    1.0000 0.90287  0.42405  0.34230  Biso   1.000  C
  H1857    1.0000 0.95628  0.38363  0.34244  Biso   1.000  H
  H1858    1.0000 0.90688  0.40777  0.30704  Biso   1.000  H
  C1836    1.0000 0.87447  0.43865  0.32139  Biso   1.000  C
  H1859    1.0000 0.90686  0.40772  0.30704  Biso   1.000  H
  C1837    1.0000 0.17555  0.56034  0.33140  Biso   1.000  C
  H1860    1.0000 0.19296  0.49564  0.33884  Biso   1.000  H
  H1861    1.0000 0.15307  0.61724  0.32214  Biso   1.000  H
  C1838    1.0000 0.19781  0.24813  0.18100  Biso   1.000  C
  H1862    1.0000 0.38730  0.31406  0.15994  Biso   1.000  H
  C1839    1.0000 0.40356  0.35874  0.14250  Biso   1.000  C
  H1863    1.0000 0.38230  0.47327  0.16163  Biso   1.000  H
  C1840    1.0000 0.40185  0.45484  0.14375  Biso   1.000  C
  H1864    1.0000 0.38228  0.47323  0.16163  Biso   1.000  H
  H1865    1.0000 0.62127  0.52067  0.18433  Biso   1.000  H
  C1841    1.0000 0.57569  0.56727  0.18805  Biso   1.000  C
  H1866    1.0000 0.62125  0.52062  0.18433  Biso   1.000  H
  C1842    1.0000 0.57567  0.56722  0.18805  Biso   1.000  C
  H1867    1.0000 0.51570  0.59478  0.19153  Biso   1.000  H
  H1868    1.0000 0.51568  0.59473  0.19153  Biso   1.000  H
  H1869    1.0000 0.14377  0.86144  0.18114  Biso   1.000  H
  C1843    1.0000 0.10411  0.91510  0.18121  Biso   1.000  C
  H1870    1.0000 0.95615  0.76384  0.18114  Biso   1.000  H
  C1844    1.0000 0.99246  0.85639  0.18127  Biso   1.000  C
  H1871    1.0000 0.00156  0.58254  0.12773  Biso   1.000  H
  H1872    1.0000 0.69140  0.80637  0.30104  Biso   1.000  H
  C1845    1.0000 0.69749  0.86598  0.28660  Biso   1.000  C
  H1873    1.0000 0.69137  0.80633  0.30104  Biso   1.000  H
  C1846    1.0000 0.69747  0.86593  0.28660  Biso   1.000  C
  H1874    1.0000 0.59268  0.72038  0.26873  Biso   1.000  H
  C1847    1.0000 0.63869  0.81344  0.26724  Biso   1.000  C
  H1875    1.0000 0.59266  0.72033  0.26873  Biso   1.000  H
  H1876    1.0000 0.40738  0.61427  0.33623  Biso   1.000  H
  H1877    1.0000 0.40735  0.61422  0.33623  Biso   1.000  H
  C1848    1.0000 0.86320  0.20046  0.29270  Biso   1.000  C
  C1849    1.0000 0.86317  0.20041  0.29270  Biso   1.000  C
  C1850    1.0000 0.86447  0.14085  0.31062  Biso   1.000  C
  H1878    1.0000 0.90081  0.42658  0.35133  Biso   1.000  H
  C1851    1.0000 0.87438  0.44576  0.33480  Biso   1.000  C
  H1879    1.0000 0.90079  0.42653  0.35133  Biso   1.000  H
  C1852    1.0000 0.87436  0.44572  0.33480  Biso   1.000  C
  H1880    1.0000 0.85277  0.45166  0.31603  Biso   1.000  H
  H1881    1.0000 0.85275  0.45161  0.31603  Biso   1.000  H
  H1882    1.0000 0.20687  0.59267  0.33623  Biso   1.000  H
  H1883    1.0000 0.20685  0.59263  0.33623  Biso   1.000  H
  C1853    1.0000 0.19827  0.19185  0.18114  Biso   1.000  C
  C1854    1.0000 0.13999  0.24537  0.18111  Biso   1.000  C
  H1884    1.0000 0.40878  0.32996  0.13753  Biso   1.000  H
  C1855    1.0000 0.40889  0.41236  0.13665  Biso   1.000  C
  H1885    1.0000 0.40876  0.32992  0.13753  Biso   1.000  H
  H1886    1.0000 0.40649  0.49086  0.13974  Biso   1.000  H
  H1887    1.0000 0.40647  0.49082  0.13974  Biso   1.000  H
  H1888    1.0000 0.61076  0.60685  0.18853  Biso   1.000  H
  H1889    1.0000 0.14148  0.95305  0.18124  Biso   1.000  H
  C1856    1.0000 0.04736  0.91482  0.18128  Biso   1.000  C
  C1857    1.0000 0.04734  0.91478  0.18128  Biso   1.000  C
  C1858    1.0000 0.93505  0.86355  0.18112  Biso   1.000  C
  C1859    1.0000 0.93503  0.86350  0.18112  Biso   1.000  C
  C1860    1.0000 0.67910  0.86986  0.27394  Biso   1.000  C
  C1861    1.0000 0.73817  0.92877  0.29259  Biso   1.000  C
  C1862    1.0000 0.67907  0.86982  0.27394  Biso   1.000  C
  C1863    1.0000 0.73814  0.92872  0.29259  Biso   1.000  C
  H1890    1.0000 0.62517  0.81484  0.25883  Biso   1.000  H
  C1864    1.0000 0.82727  0.14473  0.28590  Biso   1.000  C
  H1891    1.0000 0.87429  0.23845  0.28873  Biso   1.000  H
  C1865    1.0000 0.82977  0.08588  0.30390  Biso   1.000  C
  C1866    1.0000 0.82975  0.08583  0.30390  Biso   1.000  C
  H1892    1.0000 0.87707  0.13907  0.31914  Biso   1.000  H
  H1893    1.0000 0.87705  0.13903  0.31914  Biso   1.000  H
  H1894    1.0000 0.85458  0.46565  0.33853  Biso   1.000  H
  C1867    1.0000 0.14363  0.13613  0.18127  Biso   1.000  C
  C1868    1.0000 0.14361  0.13608  0.18127  Biso   1.000  C
  H1895    1.0000 0.23617  0.19236  0.18114  Biso   1.000  H
  H1896    1.0000 0.23615  0.19232  0.18114  Biso   1.000  H
  C1869    1.0000 0.08492  0.18904  0.18121  Biso   1.000  C
  C1870    1.0000 0.08489  0.18900  0.18121  Biso   1.000  C
  H1897    1.0000 0.13857  0.28234  0.18114  Biso   1.000  H
  H1898    1.0000 0.41746  0.41905  0.12773  Biso   1.000  H
  C1871    1.0000 0.03011  0.96395  0.18150  Biso   1.000  C
  C1872    1.0000 0.03009  0.96390  0.18150  Biso   1.000  C
  C1873    1.0000 0.96384  0.93424  0.18135  Biso   1.000  C
  C1874    1.0000 0.89544  0.83140  0.19351  Biso   1.000  C
  C1875    1.0000 0.89807  0.83430  0.16817  Biso   1.000  C
  C1876    1.0000 0.89542  0.83136  0.19351  Biso   1.000  C
  C1877    1.0000 0.89804  0.83426  0.16817  Biso   1.000  C
  C1878    1.0000 0.70727  0.93747  0.27053  Biso   1.000  C
  C1879    1.0000 0.70724  0.93742  0.27053  Biso   1.000  C
  C1880    1.0000 0.74188  0.97275  0.28152  Biso   1.000  C
  C1881    1.0000 0.70606  0.93635  0.30490  Biso   1.000  C
  C1882    1.0000 0.80178  0.93564  0.29619  Biso   1.000  C
  C1883    1.0000 0.81007  0.08723  0.29102  Biso   1.000  C
  C1884    1.0000 0.80370  0.13917  0.27191  Biso   1.000  C
  C1885    1.0000 0.80368  0.13912  0.27191  Biso   1.000  C
  H1899    1.0000 0.81938  0.04784  0.30783  Biso   1.000  H
  C1886    1.0000 0.13651  0.07156  0.18112  Biso   1.000  C
  C1887    1.0000 0.13649  0.07151  0.18112  Biso   1.000  C
  C1888    1.0000 0.08521  0.13257  0.18128  Biso   1.000  C
  H1900    1.0000 0.04697  0.18843  0.18124  Biso   1.000  H
  C1889    1.0000 0.06577  0.02959  0.18135  Biso   1.000  C
  C1890    1.0000 0.93384  0.96994  0.18150  Biso   1.000  C
  C1891    1.0000 0.93381  0.96989  0.18150  Biso   1.000  C
  H1901    1.0000 0.88328  0.78747  0.19334  Biso   1.000  H
  H1902    1.0000 0.85748  0.83384  0.19313  Biso   1.000  H
  C1892    1.0000 0.92739  0.85835  0.20614  Biso   1.000  C
  H1903    1.0000 0.88326  0.78742  0.19334  Biso   1.000  H
  H1904    1.0000 0.86317  0.84198  0.16773  Biso   1.000  H
  H1905    1.0000 0.88085  0.78934  0.16854  Biso   1.000  H
  C1893    1.0000 0.93637  0.85905  0.15573  Biso   1.000  C
  H1906    1.0000 0.86314  0.84193  0.16773  Biso   1.000  H
  C1894    1.0000 0.70430  0.96816  0.25935  Biso   1.000  C
  C1895    1.0000 0.70428  0.96811  0.25935  Biso   1.000  C
  C1896    1.0000 0.77235  0.03773  0.28129  Biso   1.000  C
  H1907    1.0000 0.73316  0.97775  0.30843  Biso   1.000  H
  H1908    1.0000 0.70338  0.90636  0.31143  Biso   1.000  H
  C1897    1.0000 0.64558  0.92867  0.30341  Biso   1.000  C
  C1898    1.0000 0.64555  0.92863  0.30341  Biso   1.000  C
  H1909    1.0000 0.79489  0.90355  0.30254  Biso   1.000  H
  H1910    1.0000 0.82698  0.97583  0.30044  Biso   1.000  H
  C1899    1.0000 0.83799  0.93125  0.28513  Biso   1.000  C
  C1900    1.0000 0.76835  0.06903  0.26990  Biso   1.000  C
  C1901    1.0000 0.86167  0.17618  0.26301  Biso   1.000  C
  C1902    1.0000 0.75828  0.16607  0.27137  Biso   1.000  C
  C1903    1.0000 0.86165  0.17613  0.26301  Biso   1.000  C
  C1904    1.0000 0.75825  0.16602  0.27137  Biso   1.000  C
  C1905    1.0000 0.16863  0.06407  0.19351  Biso   1.000  C
  C1906    1.0000 0.16573  0.06379  0.16817  Biso   1.000  C
  C1907    1.0000 0.03609  0.06618  0.18150  Biso   1.000  C
  C1908    1.0000 0.86746  0.95267  0.18128  Biso   1.000  C
  C1909    1.0000 0.97040  0.03619  0.18135  Biso   1.000  C
  H1911    1.0000 0.96797  0.86107  0.20583  Biso   1.000  H
  H1912    1.0000 0.93486  0.90083  0.20673  Biso   1.000  H
  C1910    1.0000 0.89369  0.82336  0.21919  Biso   1.000  C
  H1913    1.0000 0.96795  0.86102  0.20583  Biso   1.000  H
  H1914    1.0000 0.95300  0.90397  0.15534  Biso   1.000  H
  H1915    1.0000 0.97155  0.85194  0.15623  Biso   1.000  H
  C1911    1.0000 0.90067  0.82986  0.14306  Biso   1.000  C
  H1916    1.0000 0.95297  0.90392  0.15534  Biso   1.000  H
  C1912    1.0000 0.90064  0.82981  0.14306  Biso   1.000  C
  C1913    1.0000 0.66790  0.93976  0.24647  Biso   1.000  C
  C1914    1.0000 0.66787  0.93971  0.24647  Biso   1.000  C
  C1915    1.0000 0.73658  0.03427  0.25894  Biso   1.000  C
  C1916    1.0000 0.73656  0.03422  0.25894  Biso   1.000  C
  H1917    1.0000 0.64758  0.96138  0.29783  Biso   1.000  H
  H1918    1.0000 0.61787  0.88858  0.29933  Biso   1.000  H
  C1917    1.0000 0.61979  0.93204  0.31715  Biso   1.000  C
  H1919    1.0000 0.64756  0.96133  0.29783  Biso   1.000  H
  H1920    1.0000 0.61785  0.88853  0.29933  Biso   1.000  H
  H1921    1.0000 0.81090  0.89457  0.27993  Biso   1.000  H
  H1922    1.0000 0.85198  0.96765  0.27953  Biso   1.000  H
  C1918    1.0000 0.89579  0.92675  0.28969  Biso   1.000  C
  H1923    1.0000 0.81087  0.89452  0.27993  Biso   1.000  H
  H1924    1.0000 0.88490  0.21908  0.26614  Biso   1.000  H
  H1925    1.0000 0.84740  0.17697  0.25413  Biso   1.000  H
  C1919    1.0000 0.90547  0.15016  0.26246  Biso   1.000  C
  H1926    1.0000 0.88488  0.21903  0.26614  Biso   1.000  H
  H1927    1.0000 0.84738  0.17692  0.25413  Biso   1.000  H
  C1920    1.0000 0.90545  0.15012  0.26246  Biso   1.000  C
  H1928    1.0000 0.74299  0.16167  0.26243  Biso   1.000  H
  H1929    1.0000 0.78238  0.21047  0.27324  Biso   1.000  H
  C1921    1.0000 0.70447  0.13828  0.28013  Biso   1.000  C
  H1930    1.0000 0.74297  0.16162  0.26243  Biso   1.000  H
  H1931    1.0000 0.78236  0.21042  0.27324  Biso   1.000  H
  C1922    1.0000 0.70445  0.13823  0.28013  Biso   1.000  C
  H1932    1.0000 0.21259  0.09584  0.19334  Biso   1.000  H
  H1933    1.0000 0.16616  0.02365  0.19313  Biso   1.000  H
  C1923    1.0000 0.14165  0.06903  0.20614  Biso   1.000  C
  H1934    1.0000 0.15808  0.02126  0.16773  Biso   1.000  H
  H1935    1.0000 0.21068  0.09154  0.16854  Biso   1.000  H
  C1924    1.0000 0.14099  0.07736  0.15573  Biso   1.000  C
  H1936    1.0000 0.15806  0.02122  0.16773  Biso   1.000  H
  C1925    1.0000 0.14097  0.07732  0.15573  Biso   1.000  C
  C1926    1.0000 0.81101  0.89592  0.18121  Biso   1.000  C
  C1927    1.0000 0.81098  0.89588  0.18121  Biso   1.000  C
  C1928    1.0000 0.86391  0.00756  0.18127  Biso   1.000  C
  C1929    1.0000 0.92847  0.06496  0.18112  Biso   1.000  C
  H1937    1.0000 0.85185  0.81765  0.21943  Biso   1.000  H
  H1938    1.0000 0.91668  0.84876  0.22664  Biso   1.000  H
  C1930    1.0000 0.88956  0.75935  0.22013  Biso   1.000  C
  H1939    1.0000 0.91666  0.84871  0.22664  Biso   1.000  H
  H1940    1.0000 0.88968  0.78625  0.14253  Biso   1.000  H
  H1941    1.0000 0.86249  0.83187  0.14283  Biso   1.000  H
  C1931    1.0000 0.94655  0.86944  0.13059  Biso   1.000  C
  H1942    1.0000 0.86247  0.83182  0.14283  Biso   1.000  H
  C1932    1.0000 0.68559  0.99857  0.23890  Biso   1.000  C
  C1933    1.0000 0.68557  0.99853  0.23890  Biso   1.000  C
  C1934    1.0000 0.69056  0.90154  0.23884  Biso   1.000  C
  C1935    1.0000 0.59549  0.90345  0.24856  Biso   1.000  C
  C1936    1.0000 0.72386  0.05275  0.24573  Biso   1.000  C
  H1943    1.0000 0.58148  0.93354  0.31603  Biso   1.000  H
  H1944    1.0000 0.64998  0.97045  0.32143  Biso   1.000  H
  C1937    1.0000 0.60669  0.87716  0.32581  Biso   1.000  C
  C1938    1.0000 0.60667  0.87711  0.32581  Biso   1.000  C
  H1945    1.0000 0.92468  0.96606  0.29394  Biso   1.000  H
  H1946    1.0000 0.91649  0.92325  0.28193  Biso   1.000  H
  C1939    1.0000 0.88559  0.87328  0.29915  Biso   1.000  C
  C1940    1.0000 0.88556  0.87323  0.29915  Biso   1.000  C
  H1947    1.0000 0.91416  0.14314  0.27143  Biso   1.000  H
  H1948    1.0000 0.88375  0.10964  0.25813  Biso   1.000  H
  C1941    1.0000 0.96798  0.19017  0.25544  Biso   1.000  C
  C1942    1.0000 0.96795  0.19012  0.25544  Biso   1.000  C
  H1949    1.0000 0.72157  0.13828  0.28873  Biso   1.000  H
  H1950    1.0000 0.69065  0.16874  0.28063  Biso   1.000  H
  C1943    1.0000 0.64616  0.07685  0.27915  Biso   1.000  C
  H1951    1.0000 0.72155  0.13823  0.28873  Biso   1.000  H
  H1952    1.0000 0.13898  0.10698  0.20583  Biso   1.000  H
  H1953    1.0000 0.09915  0.03404  0.20673  Biso   1.000  H
  C1944    1.0000 0.17666  0.07034  0.21919  Biso   1.000  C
  H1954    1.0000 0.13896  0.10693  0.20583  Biso   1.000  H
  H1955    1.0000 0.09608  0.04906  0.15534  Biso   1.000  H
  H1956    1.0000 0.14808  0.11966  0.15623  Biso   1.000  H
  C1945    1.0000 0.17019  0.07086  0.14306  Biso   1.000  C
  H1957    1.0000 0.14805  0.11961  0.15623  Biso   1.000  H
  C1946    1.0000 0.17017  0.07081  0.14306  Biso   1.000  C
  C1947    1.0000 0.75466  0.89466  0.18111  Biso   1.000  C
  H1958    1.0000 0.81156  0.85854  0.18124  Biso   1.000  H
  C1948    1.0000 0.75464  0.89461  0.18111  Biso   1.000  C
  C1949    1.0000 0.80816  0.00643  0.18114  Biso   1.000  C
  C1950    1.0000 0.93593  0.10459  0.19351  Biso   1.000  C
  C1951    1.0000 0.93624  0.10197  0.16817  Biso   1.000  C
  H1959    1.0000 0.93048  0.76445  0.21893  Biso   1.000  H
  H1960    1.0000 0.87359  0.74134  0.22853  Biso   1.000  H
  H1961    1.0000 0.86217  0.73236  0.21344  Biso   1.000  H
  H1962    1.0000 0.98378  0.86626  0.13083  Biso   1.000  H
  H1963    1.0000 0.92486  0.85255  0.12254  Biso   1.000  H
  H1964    1.0000 0.95779  0.91267  0.13123  Biso   1.000  H
  H1965    1.0000 0.98375  0.86621  0.13083  Biso   1.000  H
  H1966    1.0000 0.95777  0.91263  0.13123  Biso   1.000  H
  C1952    1.0000 0.66655  0.00133  0.22619  Biso   1.000  C
  H1967    1.0000 0.67119  0.89246  0.23024  Biso   1.000  H
  H1968    1.0000 0.67579  0.86195  0.24334  Biso   1.000  H
  C1953    1.0000 0.76028  0.93134  0.23703  Biso   1.000  C
  H1969    1.0000 0.67117  0.89241  0.23024  Biso   1.000  H
  H1970    1.0000 0.58438  0.86495  0.25323  Biso   1.000  H
  H1971    1.0000 0.57568  0.89204  0.24003  Biso   1.000  H
  C1954    1.0000 0.56850  0.93667  0.25585  Biso   1.000  C
  C1955    1.0000 0.56848  0.93663  0.25585  Biso   1.000  C
  C1956    1.0000 0.74290  0.11067  0.23989  Biso   1.000  C
  C1957    1.0000 0.74287  0.11063  0.23989  Biso   1.000  C
  H1972    1.0000 0.64477  0.87665  0.32734  Biso   1.000  H
  H1973    1.0000 0.58987  0.88095  0.33403  Biso   1.000  H
  H1974    1.0000 0.57688  0.83894  0.32153  Biso   1.000  H
  H1975    1.0000 0.85998  0.83365  0.29494  Biso   1.000  H
  H1976    1.0000 0.92527  0.87744  0.30144  Biso   1.000  H
  H1977    1.0000 0.86517  0.87548  0.30693  Biso   1.000  H
  H1978    1.0000 0.86515  0.87543  0.30693  Biso   1.000  H
  H1979    1.0000 0.95878  0.20046  0.24684  Biso   1.000  H
  H1980    1.0000 0.98678  0.16425  0.25404  Biso   1.000  H
  H1981    1.0000 0.95876  0.20041  0.24684  Biso   1.000  H
  C1958    1.0000 0.01256  0.24505  0.26116  Biso   1.000  C
  C1959    1.0000 0.59718  0.07296  0.28951  Biso   1.000  C
  H1982    1.0000 0.62889  0.07156  0.27043  Biso   1.000  H
  H1983    1.0000 0.65548  0.04353  0.28074  Biso   1.000  H
  C1960    1.0000 0.59716  0.07292  0.28951  Biso   1.000  C
  H1984    1.0000 0.62887  0.07151  0.27043  Biso   1.000  H
  H1985    1.0000 0.18237  0.03427  0.21943  Biso   1.000  H
  H1986    1.0000 0.15128  0.06796  0.22664  Biso   1.000  H
  C1961    1.0000 0.24071  0.13028  0.22013  Biso   1.000  C
  H1987    1.0000 0.18235  0.03422  0.21943  Biso   1.000  H
  H1988    1.0000 0.15126  0.06791  0.22664  Biso   1.000  H
  C1962    1.0000 0.24068  0.13023  0.22013  Biso   1.000  C
  H1989    1.0000 0.21377  0.10347  0.14253  Biso   1.000  H
  H1990    1.0000 0.16817  0.03067  0.14283  Biso   1.000  H
  C1963    1.0000 0.13061  0.07717  0.13059  Biso   1.000  C
  H1991    1.0000 0.21375  0.10342  0.14253  Biso   1.000  H
  H1992    1.0000 0.16815  0.03062  0.14283  Biso   1.000  H
  C1964    1.0000 0.13058  0.07713  0.13059  Biso   1.000  C
  C1965    1.0000 0.75187  0.94968  0.18100  Biso   1.000  C
  H1993    1.0000 0.71767  0.85625  0.18114  Biso   1.000  H
  H1994    1.0000 0.80767  0.04386  0.18114  Biso   1.000  H
  H1995    1.0000 0.80765  0.04382  0.18114  Biso   1.000  H
  H1996    1.0000 0.90416  0.11676  0.19334  Biso   1.000  H
  H1997    1.0000 0.97637  0.14254  0.19313  Biso   1.000  H
  C1966    1.0000 0.93097  0.07264  0.20614  Biso   1.000  C
  H1998    1.0000 0.97877  0.13687  0.16773  Biso   1.000  H
  H1999    1.0000 0.90848  0.11914  0.16854  Biso   1.000  H
  C1967    1.0000 0.92267  0.06365  0.15573  Biso   1.000  C
  H2000    1.0000 0.97875  0.13683  0.16773  Biso   1.000  H
  C1968    1.0000 0.68608  0.05855  0.22037  Biso   1.000  C
  H2001    1.0000 0.64079  0.96465  0.22164  Biso   1.000  H
  H2002    1.0000 0.77548  0.97228  0.23313  Biso   1.000  H
  H2003    1.0000 0.77937  0.93775  0.24563  Biso   1.000  H
  C1969    1.0000 0.78236  0.89536  0.22872  Biso   1.000  C
  H2004    1.0000 0.77546  0.97223  0.23313  Biso   1.000  H
  C1970    1.0000 0.78234  0.89531  0.22872  Biso   1.000  C
  H2005    1.0000 0.58478  0.94477  0.26473  Biso   1.000  H
  H2006    1.0000 0.58157  0.97668  0.25163  Biso   1.000  H
  C1971    1.0000 0.49768  0.89934  0.25635  Biso   1.000  C
  H2007    1.0000 0.58476  0.94472  0.26473  Biso   1.000  H
  H2008    1.0000 0.58155  0.97663  0.25163  Biso   1.000  H
  C1972    1.0000 0.72277  0.11086  0.22723  Biso   1.000  C
  C1973    1.0000 0.72275  0.11081  0.22723  Biso   1.000  C
  H2009    1.0000 0.76817  0.14778  0.24434  Biso   1.000  H
  H2010    1.0000 0.76815  0.14773  0.24434  Biso   1.000  H
  H2011    1.0000 0.99520  0.27176  0.26264  Biso   1.000  H
  H2012    1.0000 0.99518  0.27171  0.26264  Biso   1.000  H
  H2013    1.0000 0.02519  0.23588  0.26933  Biso   1.000  H
  H2014    1.0000 0.04807  0.26568  0.25544  Biso   1.000  H
  H2015    1.0000 0.02517  0.23583  0.26933  Biso   1.000  H
  H2016    1.0000 0.04805  0.26563  0.25544  Biso   1.000  H
  H2017    1.0000 0.58609  0.10426  0.28763  Biso   1.000  H
  H2018    1.0000 0.56038  0.03226  0.28913  Biso   1.000  H
  H2019    1.0000 0.61496  0.07984  0.29813  Biso   1.000  H
  H2020    1.0000 0.58606  0.10422  0.28763  Biso   1.000  H
  H2021    1.0000 0.56035  0.03221  0.28913  Biso   1.000  H
  H2022    1.0000 0.23559  0.16607  0.21893  Biso   1.000  H
  H2023    1.0000 0.25867  0.13224  0.22853  Biso   1.000  H
  H2024    1.0000 0.26768  0.12986  0.21344  Biso   1.000  H
  H2025    1.0000 0.23556  0.16602  0.21893  Biso   1.000  H
  H2026    1.0000 0.13378  0.11755  0.13083  Biso   1.000  H
  H2027    1.0000 0.14748  0.07236  0.12254  Biso   1.000  H
  H2028    1.0000 0.08738  0.04517  0.13123  Biso   1.000  H
  H2029    1.0000 0.08735  0.04513  0.13123  Biso   1.000  H
  C1974    1.0000 0.69079  0.94584  0.18023  Biso   1.000  C
  C1975    1.0000 0.69077  0.94580  0.18023  Biso   1.000  C
  H2030    1.0000 0.89310  0.03207  0.20583  Biso   1.000  H
  H2031    1.0000 0.96596  0.06515  0.20673  Biso   1.000  H
  C1976    1.0000 0.92968  0.10637  0.21919  Biso   1.000  C
  H2032    1.0000 0.89308  0.03203  0.20583  Biso   1.000  H
  C1977    1.0000 0.92966  0.10632  0.21919  Biso   1.000  C
  H2033    1.0000 0.95095  0.04704  0.15534  Biso   1.000  H
  H2034    1.0000 0.88040  0.02847  0.15623  Biso   1.000  H
  C1978    1.0000 0.92917  0.09935  0.14306  Biso   1.000  C
  H2035    1.0000 0.88038  0.02842  0.15623  Biso   1.000  H
  C1979    1.0000 0.66728  0.06267  0.20663  Biso   1.000  C
  C1980    1.0000 0.66725  0.06262  0.20663  Biso   1.000  C
  H2036    1.0000 0.76229  0.85246  0.23183  Biso   1.000  H
  H2037    1.0000 0.82707  0.91347  0.22993  Biso   1.000  H
  C1981    1.0000 0.77017  0.89503  0.21568  Biso   1.000  C
  H2038    1.0000 0.76227  0.85241  0.23183  Biso   1.000  H
  H2039    1.0000 0.82705  0.91342  0.22993  Biso   1.000  H
  H2040    1.0000 0.48087  0.89115  0.24753  Biso   1.000  H
  H2041    1.0000 0.48419  0.85948  0.26063  Biso   1.000  H
  C1982    1.0000 0.47106  0.93855  0.26447  Biso   1.000  C
  H2042    1.0000 0.48417  0.85943  0.26063  Biso   1.000  H
  H2043    1.0000 0.73529  0.14927  0.22323  Biso   1.000  H
  H2044    1.0000 0.73527  0.14923  0.22323  Biso   1.000  H
  N81      1.0000 0.68530  0.99338  0.17842  Biso   1.000  N
  N82      1.0000 0.68528  0.99333  0.17842  Biso   1.000  N
  H2045    1.0000 0.96577  0.14815  0.21943  Biso   1.000  H
  H2046    1.0000 0.93207  0.08335  0.22664  Biso   1.000  H
  C1983    1.0000 0.86977  0.11044  0.22013  Biso   1.000  C
  H2047    1.0000 0.89658  0.11035  0.14253  Biso   1.000  H
  H2048    1.0000 0.96940  0.13758  0.14283  Biso   1.000  H
  C1984    1.0000 0.92288  0.05345  0.13059  Biso   1.000  C
  H2049    1.0000 0.96937  0.13753  0.14283  Biso   1.000  H
  N83      1.0000 0.62924  0.01626  0.20004  Biso   1.000  N
  N84      1.0000 0.62922  0.01621  0.20004  Biso   1.000  N
  H2050    1.0000 0.79008  0.93738  0.21254  Biso   1.000  H
  H2051    1.0000 0.78600  0.87215  0.21104  Biso   1.000  H
  H2052    1.0000 0.72580  0.87566  0.21433  Biso   1.000  H
  H2053    1.0000 0.79006  0.93733  0.21254  Biso   1.000  H
  H2054    1.0000 0.72577  0.87562  0.21433  Biso   1.000  H
  H2055    1.0000 0.48137  0.97635  0.25983  Biso   1.000  H
  H2056    1.0000 0.42647  0.91347  0.26533  Biso   1.000  H
  H2057    1.0000 0.48989  0.94898  0.27303  Biso   1.000  H
  H2058    1.0000 0.42644  0.91342  0.26533  Biso   1.000  H
  H2059    1.0000 0.48986  0.94893  0.27303  Biso   1.000  H
  C1985    1.0000 0.62109  0.98295  0.17739  Biso   1.000  C
  H2060    1.0000 0.83396  0.06955  0.21893  Biso   1.000  H
  H2061    1.0000 0.86776  0.12644  0.22853  Biso   1.000  H
  H2062    1.0000 0.87018  0.13786  0.21344  Biso   1.000  H
  H2063    1.0000 0.87016  0.13781  0.21344  Biso   1.000  H
  H2064    1.0000 0.88248  0.01626  0.13083  Biso   1.000  H
  H2065    1.0000 0.92769  0.07516  0.12254  Biso   1.000  H
  H2066    1.0000 0.95489  0.04227  0.13123  Biso   1.000  H
  H2067    1.0000 0.88246  0.01621  0.13083  Biso   1.000  H
  H2068    1.0000 0.92767  0.07512  0.12254  Biso   1.000  H
  H2069    1.0000 0.95486  0.04222  0.13123  Biso   1.000  H
  C1986    1.0000 0.61496  0.02781  0.18669  Biso   1.000  C
  C1987    1.0000 0.61494  0.02777  0.18669  Biso   1.000  C
  H2070    1.0000 0.59166  0.94004  0.18014  Biso   1.000  H
  C1988    1.0000 0.60835  0.98996  0.16318  Biso   1.000  C
  H2071    1.0000 0.64588  0.07076  0.18424  Biso   1.000  H
  C1989    1.0000 0.55131  0.02183  0.18671  Biso   1.000  C
  H2072    1.0000 0.64585  0.07072  0.18424  Biso   1.000  H
  C1990    1.0000 0.55569  0.94355  0.15688  Biso   1.000  C
  C1991    1.0000 0.65088  0.04115  0.15591  Biso   1.000  C
  C1992    1.0000 0.65086  0.04110  0.15591  Biso   1.000  C
  C1993    1.0000 0.49808  0.96447  0.18895  Biso   1.000  C
  C1994    1.0000 0.49805  0.96442  0.18895  Biso   1.000  C
  C1995    1.0000 0.54347  0.07147  0.18489  Biso   1.000  C
  C1996    1.0000 0.54345  0.07142  0.18489  Biso   1.000  C
  H2073    1.0000 0.52678  0.90907  0.16163  Biso   1.000  H
  C1997    1.0000 0.54517  0.94706  0.14375  Biso   1.000  C
  H2074    1.0000 0.52676  0.90902  0.16163  Biso   1.000  H
  C1998    1.0000 0.54514  0.94701  0.14375  Biso   1.000  C
  H2075    1.0000 0.68597  0.07324  0.15994  Biso   1.000  H
  C1999    1.0000 0.64126  0.04484  0.14250  Biso   1.000  C
  H2076    1.0000 0.50146  0.92886  0.18993  Biso   1.000  H
  C2000    1.0000 0.44007  0.95965  0.18974  Biso   1.000  C
  H2077    1.0000 0.50144  0.92881  0.18993  Biso   1.000  H
  H2078    1.0000 0.57819  0.11035  0.18314  Biso   1.000  H
  C2001    1.0000 0.48386  0.06585  0.18556  Biso   1.000  C
  C2002    1.0000 0.58766  0.99656  0.13665  Biso   1.000  C
  H2079    1.0000 0.50917  0.91567  0.13974  Biso   1.000  H
  C2003    1.0000 0.58764  0.99651  0.13665  Biso   1.000  C
  H2080    1.0000 0.50915  0.91562  0.13974  Biso   1.000  H
  H2081    1.0000 0.67006  0.07886  0.13753  Biso   1.000  H
  H2082    1.0000 0.67004  0.07881  0.13753  Biso   1.000  H
  H2083    1.0000 0.40529  0.92095  0.19153  Biso   1.000  H
  C2004    1.0000 0.43279  0.00844  0.18805  Biso   1.000  C
  H2084    1.0000 0.47938  0.10066  0.18433  Biso   1.000  H
  H2085    1.0000 0.47936  0.10061  0.18433  Biso   1.000  H
  H2086    1.0000 0.58101  0.99848  0.12773  Biso   1.000  H
  H2087    1.0000 0.58098  0.99843  0.12773  Biso   1.000  H
  H2088    1.0000 0.39318  0.00395  0.18853  Biso   1.000  H
  C2005    1.0000 0.33567  0.83253  0.33334  Biso   1.000  C
  C2006    1.0000 0.33778  0.88067  0.32659  Biso   1.000  C
  C2007    1.0000 0.33776  0.88062  0.32659  Biso   1.000  C
  C2008    1.0000 0.38481  0.82448  0.33140  Biso   1.000  C
  H2089    1.0000 0.30269  0.80707  0.33884  Biso   1.000  H
  C2009    1.0000 0.38478  0.82443  0.33140  Biso   1.000  C
  H2090    1.0000 0.30266  0.80703  0.33884  Biso   1.000  H
  C2010    1.0000 0.38458  0.91875  0.31786  Biso   1.000  C
  H2091    1.0000 0.30529  0.88895  0.32793  Biso   1.000  H
  C2011    1.0000 0.33569  0.83257  0.33334  Biso   1.000  C
  C2012    1.0000 0.43259  0.85667  0.32325  Biso   1.000  C
  C2013    1.0000 0.43257  0.85662  0.32325  Biso   1.000  C
  H2092    1.0000 0.38577  0.79318  0.33623  Biso   1.000  H
  H2093    1.0000 0.38575  0.79313  0.33623  Biso   1.000  H
  C2014    1.0000 0.37807  0.96886  0.30950  Biso   1.000  C
  C2015    1.0000 0.37805  0.96882  0.30950  Biso   1.000  C
  C2016    1.0000 0.43249  0.90898  0.31598  Biso   1.000  C
  C2017    1.0000 0.43246  0.90893  0.31598  Biso   1.000  C
  H2094    1.0000 0.46415  0.84694  0.32214  Biso   1.000  H
  N85      1.0000 0.31501  0.93878  0.30407  Biso   1.000  N
  N86      1.0000 0.31499  0.93873  0.30407  Biso   1.000  N
  H2095    1.0000 0.40868  0.98365  0.30233  Biso   1.000  H
  C2018    1.0000 0.38770  0.02548  0.31781  Biso   1.000  C
  C2019    1.0000 0.38767  0.02543  0.31781  Biso   1.000  C
  H2096    1.0000 0.46488  0.93405  0.31033  Biso   1.000  H
  C2020    1.0000 0.30919  0.92348  0.29187  Biso   1.000  C
  C2021    1.0000 0.30916  0.92343  0.29187  Biso   1.000  C
  N87      1.0000 0.37686  0.06726  0.30917  Biso   1.000  N
  H2097    1.0000 0.35689  0.01046  0.32493  Biso   1.000  H
  C2022    1.0000 0.45320  0.06127  0.32368  Biso   1.000  C
  N88      1.0000 0.37684  0.06721  0.30917  Biso   1.000  N
  C2023    1.0000 0.45318  0.06122  0.32368  Biso   1.000  C
  C2024    1.0000 0.24689  0.88656  0.28592  Biso   1.000  C
  C2025    1.0000 0.24687  0.88652  0.28592  Biso   1.000  C
  C2026    1.0000 0.33638  0.07956  0.31294  Biso   1.000  C
  C2027    1.0000 0.33635  0.07951  0.31294  Biso   1.000  C
  C2028    1.0000 0.46178  0.06417  0.33696  Biso   1.000  C
  C2029    1.0000 0.50539  0.09327  0.31609  Biso   1.000  C
  C2030    1.0000 0.46176  0.06412  0.33696  Biso   1.000  C
  C2031    1.0000 0.50536  0.09322  0.31609  Biso   1.000  C
  C2032    1.0000 0.19209  0.87024  0.29255  Biso   1.000  C
  C2033    1.0000 0.24299  0.86256  0.27318  Biso   1.000  C
  C2034    1.0000 0.24297  0.86252  0.27318  Biso   1.000  C
  C2035    1.0000 0.31759  0.11816  0.30526  Biso   1.000  C
  C2036    1.0000 0.31757  0.11811  0.30526  Biso   1.000  C
  H2098    1.0000 0.42739  0.04377  0.34244  Biso   1.000  H
  C2037    1.0000 0.52119  0.09715  0.34230  Biso   1.000  C
  H2099    1.0000 0.42737  0.04372  0.34244  Biso   1.000  H
  H2100    1.0000 0.50088  0.09318  0.30704  Biso   1.000  H
  C2038    1.0000 0.56419  0.12555  0.32139  Biso   1.000  C
  H2101    1.0000 0.50086  0.09313  0.30704  Biso   1.000  H
  C2039    1.0000 0.13409  0.83154  0.28660  Biso   1.000  C
  H2102    1.0000 0.19367  0.88507  0.30104  Biso   1.000  H
  H2103    1.0000 0.19364  0.88502  0.30104  Biso   1.000  H
  C2040    1.0000 0.18658  0.82527  0.26724  Biso   1.000  C
  C2041    1.0000 0.18656  0.82523  0.26724  Biso   1.000  C
  H2104    1.0000 0.27969  0.87234  0.26873  Biso   1.000  H
  C2042    1.0000 0.33728  0.13687  0.29270  Biso   1.000  C
  C2043    1.0000 0.27637  0.13556  0.31062  Biso   1.000  C
  C2044    1.0000 0.33726  0.13683  0.29270  Biso   1.000  C
  C2045    1.0000 0.27635  0.13552  0.31062  Biso   1.000  C
  H2105    1.0000 0.52576  0.09926  0.35133  Biso   1.000  H
  C2046    1.0000 0.57137  0.12565  0.33480  Biso   1.000  C
  H2106    1.0000 0.52574  0.09921  0.35133  Biso   1.000  H
  H2107    1.0000 0.59887  0.14726  0.31603  Biso   1.000  H
  H2108    1.0000 0.59885  0.14721  0.31603  Biso   1.000  H
  C2047    1.0000 0.13020  0.80927  0.27394  Biso   1.000  C
  C2048    1.0000 0.13018  0.80923  0.27394  Biso   1.000  C
  C2049    1.0000 0.07126  0.80946  0.29259  Biso   1.000  C
  C2050    1.0000 0.07124  0.80941  0.29259  Biso   1.000  C
  H2109    1.0000 0.18516  0.81035  0.25883  Biso   1.000  H
  H2110    1.0000 0.36417  0.12574  0.28873  Biso   1.000  H
  C2051    1.0000 0.31750  0.17276  0.28590  Biso   1.000  C
  C2052    1.0000 0.31748  0.17271  0.28590  Biso   1.000  C
  H2111    1.0000 0.26198  0.12298  0.31914  Biso   1.000  H
  C2053    1.0000 0.25607  0.17023  0.30390  Biso   1.000  C
  H2112    1.0000 0.26195  0.12293  0.31914  Biso   1.000  H
  H2113    1.0000 0.61105  0.14544  0.33853  Biso   1.000  H
  C2054    1.0000 0.06257  0.76988  0.27053  Biso   1.000  C
  C2055    1.0000 0.06255  0.76983  0.27053  Biso   1.000  C
  C2056    1.0000 0.02729  0.76918  0.28152  Biso   1.000  C
  C2057    1.0000 0.02727  0.76913  0.28152  Biso   1.000  C
  C2058    1.0000 0.06368  0.76974  0.30490  Biso   1.000  C
  C2059    1.0000 0.06436  0.86617  0.29619  Biso   1.000  C
  C2060    1.0000 0.06434  0.86612  0.29619  Biso   1.000  C
  C2061    1.0000 0.27720  0.18998  0.29102  Biso   1.000  C
  C2062    1.0000 0.33549  0.19634  0.27191  Biso   1.000  C
  C2063    1.0000 0.27718  0.18993  0.29102  Biso   1.000  C
  H2114    1.0000 0.22850  0.18067  0.30783  Biso   1.000  H
  H2115    1.0000 0.22848  0.18062  0.30783  Biso   1.000  H
  C2064    1.0000 0.03189  0.73614  0.25935  Biso   1.000  C
  C2065    1.0000 0.96226  0.73465  0.28129  Biso   1.000  C
  H2116    1.0000 0.02226  0.75547  0.30843  Biso   1.000  H
  H2117    1.0000 0.09367  0.79706  0.31143  Biso   1.000  H
  C2066    1.0000 0.07137  0.71696  0.30341  Biso   1.000  C
  H2118    1.0000 0.02224  0.75542  0.30843  Biso   1.000  H
  H2119    1.0000 0.09365  0.79701  0.31143  Biso   1.000  H
  C2067    1.0000 0.07134  0.71692  0.30341  Biso   1.000  C
  H2120    1.0000 0.09648  0.89134  0.30254  Biso   1.000  H
  H2121    1.0000 0.02416  0.85115  0.30044  Biso   1.000  H
  C2068    1.0000 0.06879  0.90678  0.28513  Biso   1.000  C
  C2069    1.0000 0.06876  0.90673  0.28513  Biso   1.000  C
  C2070    1.0000 0.26536  0.22764  0.28129  Biso   1.000  C
  C2071    1.0000 0.31449  0.13837  0.26301  Biso   1.000  C
  C2072    1.0000 0.40780  0.24177  0.27137  Biso   1.000  C
  C2073    1.0000 0.30068  0.23166  0.26990  Biso   1.000  C
  C2074    1.0000 0.31446  0.13833  0.26301  Biso   1.000  C
  C2075    1.0000 0.40777  0.24172  0.27137  Biso   1.000  C
  C2076    1.0000 0.30066  0.23162  0.26990  Biso   1.000  C
  C2077    1.0000 0.06026  0.72814  0.24647  Biso   1.000  C
  C2078    1.0000 0.96577  0.70236  0.25894  Biso   1.000  C
  C2079    1.0000 0.96575  0.70232  0.25894  Biso   1.000  C
  C2080    1.0000 0.93097  0.69937  0.26990  Biso   1.000  C
  C2081    1.0000 0.93094  0.69932  0.26990  Biso   1.000  C
  C2082    1.0000 0.91277  0.72286  0.29102  Biso   1.000  C
  C2083    1.0000 0.91274  0.72281  0.29102  Biso   1.000  C
  H2122    1.0000 0.03868  0.68627  0.29783  Biso   1.000  H
  H2123    1.0000 0.11148  0.72936  0.29933  Biso   1.000  H
  C2084    1.0000 0.06799  0.68777  0.31715  Biso   1.000  C
  H2124    1.0000 0.03865  0.68622  0.29783  Biso   1.000  H
  H2125    1.0000 0.11146  0.72931  0.29933  Biso   1.000  H
  C2085    1.0000 0.06797  0.68772  0.31715  Biso   1.000  C
  C2086    1.0000 0.07326  0.96905  0.28969  Biso   1.000  C
  H2126    1.0000 0.10547  0.91637  0.27993  Biso   1.000  H
  H2127    1.0000 0.03238  0.88437  0.27953  Biso   1.000  H
  H2128    1.0000 0.10545  0.91632  0.27993  Biso   1.000  H
  H2129    1.0000 0.03235  0.88432  0.27953  Biso   1.000  H
  C2087    1.0000 0.23086  0.25815  0.28152  Biso   1.000  C
  H2130    1.0000 0.33416  0.11517  0.26614  Biso   1.000  H
  H2131    1.0000 0.32956  0.15264  0.25413  Biso   1.000  H
  C2088    1.0000 0.24470  0.09458  0.26246  Biso   1.000  C
  H2132    1.0000 0.33414  0.11512  0.26614  Biso   1.000  H
  C2089    1.0000 0.24467  0.09453  0.26246  Biso   1.000  C
  H2133    1.0000 0.41869  0.25707  0.26243  Biso   1.000  H
  H2134    1.0000 0.42808  0.21768  0.27324  Biso   1.000  H
  C2090    1.0000 0.43377  0.29558  0.28013  Biso   1.000  C
  H2135    1.0000 0.41867  0.25702  0.26243  Biso   1.000  H
  H2136    1.0000 0.42806  0.21763  0.27324  Biso   1.000  H
  C2091    1.0000 0.43375  0.29553  0.28013  Biso   1.000  C
  C2092    1.0000 0.29768  0.26343  0.25894  Biso   1.000  C
  C2093    1.0000 0.00147  0.68707  0.23890  Biso   1.000  C
  C2094    1.0000 0.00145  0.68702  0.23890  Biso   1.000  C
  C2095    1.0000 0.09846  0.78906  0.23884  Biso   1.000  C
  C2096    1.0000 0.09660  0.69207  0.24856  Biso   1.000  C
  C2097    1.0000 0.09844  0.78901  0.23884  Biso   1.000  C
  C2098    1.0000 0.09658  0.69202  0.24856  Biso   1.000  C
  C2099    1.0000 0.94729  0.67116  0.24573  Biso   1.000  C
  C2100    1.0000 0.94727  0.67111  0.24573  Biso   1.000  C
  C2101    1.0000 0.86089  0.66456  0.27191  Biso   1.000  C
  C2102    1.0000 0.86086  0.66451  0.27191  Biso   1.000  C
  C2103    1.0000 0.85531  0.68257  0.28590  Biso   1.000  C
  C2104    1.0000 0.85528  0.68253  0.28590  Biso   1.000  C
  C2105    1.0000 0.91416  0.74396  0.30390  Biso   1.000  C
  C2106    1.0000 0.91414  0.74391  0.30390  Biso   1.000  C
  H2137    1.0000 0.06648  0.64795  0.31603  Biso   1.000  H
  C2107    1.0000 0.12288  0.72955  0.32581  Biso   1.000  C
  H2138    1.0000 0.02958  0.67958  0.32143  Biso   1.000  H
  H2139    1.0000 0.02956  0.67953  0.32143  Biso   1.000  H
  H2140    1.0000 0.07677  0.99324  0.28193  Biso   1.000  H
  H2141    1.0000 0.03399  0.95866  0.29394  Biso   1.000  H
  H2142    1.0000 0.03397  0.95862  0.29394  Biso   1.000  H
  C2108    1.0000 0.12677  0.01237  0.29915  Biso   1.000  C
  C2109    1.0000 0.12675  0.01233  0.29915  Biso   1.000  C
  C2110    1.0000 0.23018  0.29277  0.27053  Biso   1.000  C
  C2111    1.0000 0.23015  0.29272  0.27053  Biso   1.000  C
  C2112    1.0000 0.19056  0.26184  0.29259  Biso   1.000  C
  H2143    1.0000 0.22900  0.08588  0.27143  Biso   1.000  H
  H2144    1.0000 0.22587  0.11624  0.25813  Biso   1.000  H
  C2113    1.0000 0.22219  0.03207  0.25544  Biso   1.000  C
  H2145    1.0000 0.22898  0.08583  0.27143  Biso   1.000  H
  C2114    1.0000 0.22217  0.03203  0.25544  Biso   1.000  C
  H2146    1.0000 0.41666  0.27845  0.28873  Biso   1.000  H
  H2147    1.0000 0.47811  0.30938  0.28063  Biso   1.000  H
  C2115    1.0000 0.43070  0.35387  0.27915  Biso   1.000  C
  H2148    1.0000 0.47809  0.30933  0.28063  Biso   1.000  H
  C2116    1.0000 0.43068  0.35383  0.27915  Biso   1.000  C
  C2117    1.0000 0.32888  0.27616  0.24573  Biso   1.000  C
  C2118    1.0000 0.32886  0.27611  0.24573  Biso   1.000  C
  C2119    1.0000 0.26389  0.29576  0.25935  Biso   1.000  C
  C2120    1.0000 0.26386  0.29572  0.25935  Biso   1.000  C
  C2121    1.0000 0.99868  0.66526  0.22619  Biso   1.000  C
  C2122    1.0000 0.99865  0.66522  0.22619  Biso   1.000  C
  H2149    1.0000 0.10758  0.77877  0.23024  Biso   1.000  H
  H2150    1.0000 0.13809  0.81386  0.24334  Biso   1.000  H
  C2123    1.0000 0.06870  0.82897  0.23703  Biso   1.000  C
  H2151    1.0000 0.10755  0.77872  0.23024  Biso   1.000  H
  H2152    1.0000 0.13806  0.81381  0.24334  Biso   1.000  H
  C2124    1.0000 0.06868  0.82892  0.23703  Biso   1.000  C
  H2153    1.0000 0.13509  0.71944  0.25323  Biso   1.000  H
  H2154    1.0000 0.10799  0.68365  0.24003  Biso   1.000  H
  C2125    1.0000 0.06338  0.63186  0.25585  Biso   1.000  C
  C2126    1.0000 0.06335  0.63181  0.25585  Biso   1.000  C
  C2127    1.0000 0.88940  0.63228  0.23989  Biso   1.000  C
  C2128    1.0000 0.88937  0.63223  0.23989  Biso   1.000  C
  C2129    1.0000 0.82390  0.68557  0.26301  Biso   1.000  C
  C2130    1.0000 0.83398  0.59228  0.27137  Biso   1.000  C
  C2131    1.0000 0.82388  0.68552  0.26301  Biso   1.000  C
  C2132    1.0000 0.83396  0.59223  0.27137  Biso   1.000  C
  C2133    1.0000 0.79956  0.66274  0.29270  Biso   1.000  C
  C2134    1.0000 0.85919  0.72365  0.31062  Biso   1.000  C
  H2155    1.0000 0.95219  0.77156  0.30783  Biso   1.000  H
  H2156    1.0000 0.95217  0.77152  0.30783  Biso   1.000  H
  H2157    1.0000 0.12338  0.76815  0.32734  Biso   1.000  H
  H2158    1.0000 0.11907  0.70896  0.33403  Biso   1.000  H
  H2159    1.0000 0.16108  0.73797  0.32153  Biso   1.000  H
  H2160    1.0000 0.11904  0.70892  0.33403  Biso   1.000  H
  H2161    1.0000 0.16106  0.73792  0.32153  Biso   1.000  H
  H2162    1.0000 0.12459  0.98978  0.30693  Biso   1.000  H
  H2163    1.0000 0.12457  0.98973  0.30693  Biso   1.000  H
  H2164    1.0000 0.16638  0.02636  0.29494  Biso   1.000  H
  H2165    1.0000 0.12258  0.04784  0.30144  Biso   1.000  H
  H2166    1.0000 0.16636  0.02632  0.29494  Biso   1.000  H
  C2135    1.0000 0.19078  0.32093  0.27394  Biso   1.000  C
  C2136    1.0000 0.16845  0.30255  0.28660  Biso   1.000  C
  C2137    1.0000 0.23028  0.29394  0.30490  Biso   1.000  C
  C2138    1.0000 0.13389  0.19826  0.29619  Biso   1.000  C
  C2139    1.0000 0.13387  0.19821  0.29619  Biso   1.000  C
  C2140    1.0000 0.23245  0.98744  0.26116  Biso   1.000  C
  H2167    1.0000 0.24169  0.04124  0.24684  Biso   1.000  H
  H2168    1.0000 0.17750  0.01326  0.25404  Biso   1.000  H
  H2169    1.0000 0.17748  0.01322  0.25404  Biso   1.000  H
  C2141    1.0000 0.47578  0.40286  0.28951  Biso   1.000  C
  H2170    1.0000 0.44266  0.37114  0.27043  Biso   1.000  H
  H2171    1.0000 0.38808  0.34456  0.28074  Biso   1.000  H
  C2142    1.0000 0.47576  0.40281  0.28951  Biso   1.000  C
  H2172    1.0000 0.38806  0.34451  0.28074  Biso   1.000  H
  C2143    1.0000 0.31299  0.31448  0.23890  Biso   1.000  C
  C2144    1.0000 0.31297  0.31443  0.23890  Biso   1.000  C
  C2145    1.0000 0.36776  0.25716  0.23989  Biso   1.000  C
  C2146    1.0000 0.36774  0.25712  0.23989  Biso   1.000  C
  C2147    1.0000 0.27188  0.33216  0.24647  Biso   1.000  C
  C2148    1.0000 0.27185  0.33212  0.24647  Biso   1.000  C
  C2149    1.0000 0.94149  0.62755  0.22037  Biso   1.000  C
  H2173    1.0000 0.03537  0.67616  0.22164  Biso   1.000  H
  H2174    1.0000 0.03534  0.67612  0.22164  Biso   1.000  H
  H2175    1.0000 0.02775  0.80324  0.23313  Biso   1.000  H
  H2176    1.0000 0.06228  0.84165  0.24563  Biso   1.000  H
  C2150    1.0000 0.10468  0.88708  0.22872  Biso   1.000  C
  C2151    1.0000 0.10466  0.88703  0.22872  Biso   1.000  C
  H2177    1.0000 0.05527  0.64004  0.26473  Biso   1.000  H
  H2178    1.0000 0.02338  0.60495  0.25163  Biso   1.000  H
  C2152    1.0000 0.10068  0.59836  0.25635  Biso   1.000  C
  C2153    1.0000 0.10065  0.59831  0.25635  Biso   1.000  C
  C2154    1.0000 0.88917  0.61197  0.22723  Biso   1.000  C
  C2155    1.0000 0.88915  0.61193  0.22723  Biso   1.000  C
  H2179    1.0000 0.85228  0.62044  0.24434  Biso   1.000  H
  H2180    1.0000 0.78099  0.66587  0.26614  Biso   1.000  H
  H2181    1.0000 0.82307  0.67046  0.25413  Biso   1.000  H
  C2156    1.0000 0.84989  0.75537  0.26246  Biso   1.000  C
  H2182    1.0000 0.78097  0.66582  0.26614  Biso   1.000  H
  C2157    1.0000 0.84987  0.75533  0.26246  Biso   1.000  C
  H2183    1.0000 0.83838  0.58137  0.26243  Biso   1.000  H
  H2184    1.0000 0.78959  0.57197  0.27324  Biso   1.000  H
  C2158    1.0000 0.86178  0.56626  0.28013  Biso   1.000  C
  H2185    1.0000 0.83835  0.58133  0.26243  Biso   1.000  H
  H2186    1.0000 0.78957  0.57192  0.27324  Biso   1.000  H
  C2159    1.0000 0.86175  0.56621  0.28013  Biso   1.000  C
  H2187    1.0000 0.76156  0.63583  0.28873  Biso   1.000  H
  C2160    1.0000 0.80058  0.68243  0.30526  Biso   1.000  C
  H2188    1.0000 0.86097  0.73806  0.31914  Biso   1.000  H
  H2189    1.0000 0.86095  0.73802  0.31914  Biso   1.000  H
  C2161    1.0000 0.17476  0.36136  0.26724  Biso   1.000  C
  C2162    1.0000 0.17474  0.36131  0.26724  Biso   1.000  C
  C2163    1.0000 0.12978  0.32187  0.29255  Biso   1.000  C
  C2164    1.0000 0.12975  0.32182  0.29255  Biso   1.000  C
  H2190    1.0000 0.24457  0.26685  0.30843  Biso   1.000  H
  H2191    1.0000 0.20299  0.29665  0.31143  Biso   1.000  H
  C2165    1.0000 0.28305  0.35443  0.30341  Biso   1.000  C
  H2192    1.0000 0.10869  0.20514  0.30254  Biso   1.000  H
  H2193    1.0000 0.14888  0.17304  0.30044  Biso   1.000  H
  C2166    1.0000 0.09326  0.16205  0.28513  Biso   1.000  C
  H2194    1.0000 0.21068  0.97485  0.26933  Biso   1.000  H
  H2195    1.0000 0.21760  0.95197  0.25544  Biso   1.000  H
  H2196    1.0000 0.21758  0.95193  0.25544  Biso   1.000  H
  H2197    1.0000 0.27657  0.00484  0.26264  Biso   1.000  H
  H2198    1.0000 0.51816  0.41395  0.28763  Biso   1.000  H
  H2199    1.0000 0.47191  0.43968  0.28913  Biso   1.000  H
  H2200    1.0000 0.46491  0.38508  0.29813  Biso   1.000  H
  H2201    1.0000 0.47188  0.43963  0.28913  Biso   1.000  H
  H2202    1.0000 0.46488  0.38503  0.29813  Biso   1.000  H
  C2167    1.0000 0.33477  0.33347  0.22619  Biso   1.000  C
  C2168    1.0000 0.33474  0.33343  0.22619  Biso   1.000  C
  C2169    1.0000 0.38805  0.27724  0.22723  Biso   1.000  C
  H2203    1.0000 0.37958  0.23185  0.24434  Biso   1.000  H
  C2170    1.0000 0.21098  0.30947  0.23884  Biso   1.000  C
  C2171    1.0000 0.30798  0.40454  0.24856  Biso   1.000  C
  C2172    1.0000 0.21095  0.30942  0.23884  Biso   1.000  C
  C2173    1.0000 0.93739  0.60467  0.20663  Biso   1.000  C
  C2174    1.0000 0.93736  0.60463  0.20663  Biso   1.000  C
  H2204    1.0000 0.08657  0.91365  0.22993  Biso   1.000  H
  C2175    1.0000 0.10496  0.87515  0.21568  Biso   1.000  C
  H2205    1.0000 0.14760  0.90986  0.23183  Biso   1.000  H
  H2206    1.0000 0.14758  0.90982  0.23183  Biso   1.000  H
  H2207    1.0000 0.10889  0.58975  0.24753  Biso   1.000  H
  H2208    1.0000 0.14057  0.62475  0.26063  Biso   1.000  H
  C2176    1.0000 0.06151  0.53258  0.26447  Biso   1.000  C
  C2177    1.0000 0.06148  0.53253  0.26447  Biso   1.000  C
  H2209    1.0000 0.85077  0.58605  0.22323  Biso   1.000  H
  H2210    1.0000 0.85688  0.77105  0.27143  Biso   1.000  H
  H2211    1.0000 0.89035  0.77414  0.25813  Biso   1.000  H
  C2178    1.0000 0.80989  0.77788  0.25544  Biso   1.000  C
  C2179    1.0000 0.80986  0.77783  0.25544  Biso   1.000  C
  H2212    1.0000 0.86177  0.58334  0.28873  Biso   1.000  H
  H2213    1.0000 0.83128  0.52195  0.28063  Biso   1.000  H
  C2180    1.0000 0.92317  0.56935  0.27915  Biso   1.000  C
  C2181    1.0000 0.74318  0.66367  0.31294  Biso   1.000  C
  C2182    1.0000 0.74316  0.66363  0.31294  Biso   1.000  C
  C2183    1.0000 0.13747  0.38045  0.27318  Biso   1.000  C
  H2214    1.0000 0.18971  0.37488  0.25883  Biso   1.000  H
  H2215    1.0000 0.18969  0.37483  0.25883  Biso   1.000  H
  C2184    1.0000 0.11349  0.36038  0.28592  Biso   1.000  C
  H2216    1.0000 0.11499  0.30868  0.30104  Biso   1.000  H
  C2185    1.0000 0.11347  0.36033  0.28592  Biso   1.000  C
  H2217    1.0000 0.11497  0.30863  0.30104  Biso   1.000  H
  H2218    1.0000 0.31380  0.35247  0.29783  Biso   1.000  H
  H2219    1.0000 0.27071  0.38218  0.29933  Biso   1.000  H
  C2186    1.0000 0.31229  0.38026  0.31715  Biso   1.000  C
  H2220    1.0000 0.31377  0.35242  0.29783  Biso   1.000  H
  H2221    1.0000 0.27068  0.38213  0.29933  Biso   1.000  H
  C2187    1.0000 0.31227  0.38021  0.31715  Biso   1.000  C
  H2222    1.0000 0.08367  0.18914  0.27993  Biso   1.000  H
  H2223    1.0000 0.11568  0.14806  0.27953  Biso   1.000  H
  C2188    1.0000 0.03098  0.10426  0.28969  Biso   1.000  C
  H2224    1.0000 0.11566  0.14801  0.27953  Biso   1.000  H
  C2189    1.0000 0.03096  0.10422  0.28969  Biso   1.000  C
  C2190    1.0000 0.37250  0.31396  0.22037  Biso   1.000  C
  C2191    1.0000 0.37248  0.31392  0.22037  Biso   1.000  C
  H2225    1.0000 0.32387  0.35925  0.22164  Biso   1.000  H
  H2226    1.0000 0.41398  0.26474  0.22323  Biso   1.000  H
  H2227    1.0000 0.22127  0.32884  0.23024  Biso   1.000  H
  H2228    1.0000 0.18620  0.32426  0.24334  Biso   1.000  H
  C2192    1.0000 0.17110  0.23976  0.23703  Biso   1.000  C
  C2193    1.0000 0.17107  0.23971  0.23703  Biso   1.000  C
  H2229    1.0000 0.28057  0.41568  0.25323  Biso   1.000  H
  H2230    1.0000 0.31638  0.42433  0.24003  Biso   1.000  H
  C2194    1.0000 0.36816  0.43154  0.25585  Biso   1.000  C
  H2231    1.0000 0.28055  0.41563  0.25323  Biso   1.000  H
  N89      1.0000 0.98377  0.61300  0.20004  Biso   1.000  N
  H2232    1.0000 0.06267  0.85274  0.21254  Biso   1.000  H
  H2233    1.0000 0.12787  0.91384  0.21104  Biso   1.000  H
  H2234    1.0000 0.12439  0.85016  0.21433  Biso   1.000  H
  H2235    1.0000 0.12437  0.85012  0.21433  Biso   1.000  H
  H2236    1.0000 0.05107  0.54095  0.27303  Biso   1.000  H
  H2237    1.0000 0.02368  0.50506  0.25983  Biso   1.000  H
  H2238    1.0000 0.08660  0.51307  0.26533  Biso   1.000  H
  H2239    1.0000 0.02366  0.50502  0.25983  Biso   1.000  H
  H2240    1.0000 0.08657  0.51302  0.26533  Biso   1.000  H
  H2241    1.0000 0.79957  0.75837  0.24684  Biso   1.000  H
  H2242    1.0000 0.83579  0.82256  0.25404  Biso   1.000  H
  C2195    1.0000 0.75496  0.76754  0.26116  Biso   1.000  C
  H2243    1.0000 0.79954  0.75832  0.24684  Biso   1.000  H
  H2244    1.0000 0.83577  0.82251  0.25404  Biso   1.000  H
  C2196    1.0000 0.92707  0.52425  0.28951  Biso   1.000  C
  H2245    1.0000 0.92848  0.55737  0.27043  Biso   1.000  H
  H2246    1.0000 0.95647  0.61197  0.28074  Biso   1.000  H
  H2247    1.0000 0.92846  0.55733  0.27043  Biso   1.000  H
  H2248    1.0000 0.95645  0.61193  0.28074  Biso   1.000  H
  N90      1.0000 0.69039  0.62315  0.30917  Biso   1.000  N
  H2249    1.0000 0.12766  0.40735  0.26873  Biso   1.000  H
  C2197    1.0000 0.07658  0.38573  0.29187  Biso   1.000  C
  H2250    1.0000 0.35208  0.41858  0.31603  Biso   1.000  H
  H2251    1.0000 0.32048  0.35004  0.32143  Biso   1.000  H
  C2198    1.0000 0.27046  0.39336  0.32581  Biso   1.000  C
  H2252    1.0000 0.35205  0.41853  0.31603  Biso   1.000  H
  C2199    1.0000 0.27044  0.39331  0.32581  Biso   1.000  C
  C2200    1.0000 0.98770  0.11446  0.29915  Biso   1.000  C
  C2201    1.0000 0.98768  0.11442  0.29915  Biso   1.000  C
  H2253    1.0000 0.04136  0.07535  0.29394  Biso   1.000  H
  H2254    1.0000 0.00676  0.08354  0.28193  Biso   1.000  H
  C2202    1.0000 0.39540  0.33277  0.20663  Biso   1.000  C
  C2203    1.0000 0.39537  0.33272  0.20663  Biso   1.000  C
  H2255    1.0000 0.19676  0.22455  0.23313  Biso   1.000  H
  H2256    1.0000 0.15839  0.22067  0.24563  Biso   1.000  H
  C2204    1.0000 0.11297  0.21768  0.22872  Biso   1.000  C
  H2257    1.0000 0.15837  0.22062  0.24563  Biso   1.000  H
  C2205    1.0000 0.11295  0.21763  0.22872  Biso   1.000  C
  H2258    1.0000 0.35998  0.41526  0.26473  Biso   1.000  H
  H2259    1.0000 0.39508  0.41844  0.25163  Biso   1.000  H
  C2206    1.0000 0.40167  0.50237  0.25635  Biso   1.000  C
  H2260    1.0000 0.35996  0.41521  0.26473  Biso   1.000  H
  C2207    1.0000 0.40165  0.50233  0.25635  Biso   1.000  C
  C2208    1.0000 0.97223  0.58718  0.18669  Biso   1.000  C
  H2261    1.0000 0.76416  0.78934  0.26933  Biso   1.000  H
  H2262    1.0000 0.73438  0.78246  0.25544  Biso   1.000  H
  H2263    1.0000 0.72826  0.72347  0.26264  Biso   1.000  H
  H2264    1.0000 0.73436  0.78242  0.25544  Biso   1.000  H
  H2265    1.0000 0.72824  0.72342  0.26264  Biso   1.000  H
  H2266    1.0000 0.89579  0.48186  0.28763  Biso   1.000  H
  H2267    1.0000 0.96778  0.52818  0.28913  Biso   1.000  H
  H2268    1.0000 0.92017  0.53515  0.29813  Biso   1.000  H
  H2269    1.0000 0.89577  0.48181  0.28763  Biso   1.000  H
  H2270    1.0000 0.96775  0.52813  0.28913  Biso   1.000  H
  C2209    1.0000 0.63778  0.61235  0.31781  Biso   1.000  C
  N91      1.0000 0.06125  0.37624  0.30407  Biso   1.000  N
  H2271    1.0000 0.23189  0.35528  0.32734  Biso   1.000  H
  H2272    1.0000 0.29106  0.41016  0.33403  Biso   1.000  H
  H2273    1.0000 0.26207  0.42316  0.32153  Biso   1.000  H
  H2274    1.0000 0.23187  0.35523  0.32734  Biso   1.000  H
  H2275    1.0000 0.29104  0.41011  0.33403  Biso   1.000  H
  H2276    1.0000 0.26204  0.42312  0.32153  Biso   1.000  H
  H2277    1.0000 0.97367  0.14006  0.29494  Biso   1.000  H
  H2278    1.0000 0.95216  0.07474  0.30144  Biso   1.000  H
  H2279    1.0000 0.01030  0.13486  0.30693  Biso   1.000  H
  H2280    1.0000 0.01028  0.13482  0.30693  Biso   1.000  H
  N92      1.0000 0.38703  0.37081  0.20004  Biso   1.000  N
  N93      1.0000 0.38700  0.37076  0.20004  Biso   1.000  N
  H2281    1.0000 0.09019  0.23775  0.23183  Biso   1.000  H
  H2282    1.0000 0.08639  0.17295  0.22993  Biso   1.000  H
  C2210    1.0000 0.12489  0.22984  0.21568  Biso   1.000  C
  H2283    1.0000 0.41027  0.51917  0.24753  Biso   1.000  H
  H2284    1.0000 0.37527  0.51585  0.26063  Biso   1.000  H
  C2211    1.0000 0.46747  0.52895  0.26447  Biso   1.000  C
  H2285    1.0000 0.41025  0.51912  0.24753  Biso   1.000  H
  C2212    1.0000 0.97820  0.52949  0.18671  Biso   1.000  C
  C2213    1.0000 0.01706  0.63817  0.17739  Biso   1.000  C
  H2286    1.0000 0.92927  0.57515  0.18424  Biso   1.000  H
  H2287    1.0000 0.65360  0.64318  0.32493  Biso   1.000  H
  C2214    1.0000 0.60807  0.54685  0.32368  Biso   1.000  C
  C2215    1.0000 0.59075  0.62194  0.30950  Biso   1.000  C
  H2288    1.0000 0.65358  0.64313  0.32493  Biso   1.000  H
  C2216    1.0000 0.03117  0.40927  0.30950  Biso   1.000  C
  C2217    1.0000 0.03115  0.40922  0.30950  Biso   1.000  C
  C2218    1.0000 0.41284  0.38508  0.18669  Biso   1.000  C
  C2219    1.0000 0.41282  0.38503  0.18669  Biso   1.000  C
  H2289    1.0000 0.14728  0.20996  0.21254  Biso   1.000  H
  H2290    1.0000 0.08617  0.21407  0.21104  Biso   1.000  H
  H2291    1.0000 0.14988  0.27424  0.21433  Biso   1.000  H
  H2292    1.0000 0.08615  0.21403  0.21104  Biso   1.000  H
  H2293    1.0000 0.49498  0.51866  0.25983  Biso   1.000  H
  H2294    1.0000 0.48697  0.57354  0.26533  Biso   1.000  H
  H2295    1.0000 0.45908  0.51014  0.27303  Biso   1.000  H
  C2220    1.0000 0.03559  0.53365  0.18895  Biso   1.000  C
  C2221    1.0000 0.92858  0.47208  0.18489  Biso   1.000  C
  C2222    1.0000 0.92856  0.47203  0.18489  Biso   1.000  C
  H2296    1.0000 0.05998  0.65165  0.18014  Biso   1.000  H
  N94      1.0000 0.00665  0.69198  0.17842  Biso   1.000  N
  C2223    1.0000 0.01007  0.61843  0.16318  Biso   1.000  C
  N95      1.0000 0.00662  0.69193  0.17842  Biso   1.000  N
  C2224    1.0000 0.01004  0.61838  0.16318  Biso   1.000  C
  C2225    1.0000 0.60238  0.53824  0.33696  Biso   1.000  C
  C2226    1.0000 0.58790  0.49468  0.31609  Biso   1.000  C
  C2227    1.0000 0.58787  0.49463  0.31609  Biso   1.000  C
  N96      1.0000 0.62377  0.68505  0.30407  Biso   1.000  N
  H2297    1.0000 0.57496  0.59134  0.30233  Biso   1.000  H
  C2228    1.0000 0.53418  0.61543  0.31786  Biso   1.000  C
  N97      1.0000 0.62374  0.68501  0.30407  Biso   1.000  N
  C2229    1.0000 0.97456  0.36225  0.31781  Biso   1.000  C
  H2298    1.0000 0.01637  0.42504  0.30233  Biso   1.000  H
  C2230    1.0000 0.08126  0.46583  0.31786  Biso   1.000  C
  C2231    1.0000 0.36188  0.37895  0.17739  Biso   1.000  C
  C2232    1.0000 0.36186  0.37890  0.17739  Biso   1.000  C
  H2299    1.0000 0.42489  0.35415  0.18424  Biso   1.000  H
  C2233    1.0000 0.47051  0.44871  0.18671  Biso   1.000  C
  C2234    1.0000 0.04039  0.48045  0.18974  Biso   1.000  C
  H2300    1.0000 0.07118  0.57267  0.18993  Biso   1.000  H
  H2301    1.0000 0.07116  0.57262  0.18993  Biso   1.000  H
  C2235    1.0000 0.93418  0.41804  0.18556  Biso   1.000  C
  H2302    1.0000 0.88969  0.46787  0.18314  Biso   1.000  H
  H2303    1.0000 0.88966  0.46782  0.18314  Biso   1.000  H
  C2236    1.0000 0.05418  0.74499  0.18023  Biso   1.000  C
  C2237    1.0000 0.95890  0.60977  0.15591  Biso   1.000  C
  C2238    1.0000 0.05649  0.61216  0.15688  Biso   1.000  C
  C2239    1.0000 0.05646  0.61211  0.15688  Biso   1.000  C
  H2304    1.0000 0.61640  0.57267  0.34244  Biso   1.000  H
  C2240    1.0000 0.57598  0.47886  0.34230  Biso   1.000  C
  H2305    1.0000 0.61638  0.57262  0.34244  Biso   1.000  H
  C2241    1.0000 0.57596  0.47882  0.34230  Biso   1.000  C
  H2306    1.0000 0.59229  0.49917  0.30704  Biso   1.000  H
  C2242    1.0000 0.56137  0.43587  0.32139  Biso   1.000  C
  H2307    1.0000 0.59227  0.49912  0.30704  Biso   1.000  H
  C2243    1.0000 0.56135  0.43582  0.32139  Biso   1.000  C
  C2244    1.0000 0.61427  0.69086  0.29187  Biso   1.000  C
  C2245    1.0000 0.54288  0.66227  0.32659  Biso   1.000  C
  C2246    1.0000 0.47649  0.56757  0.31598  Biso   1.000  C
  C2247    1.0000 0.54286  0.66222  0.32659  Biso   1.000  C
  C2248    1.0000 0.47647  0.56753  0.31598  Biso   1.000  C
  N98      1.0000 0.93279  0.30966  0.30917  Biso   1.000  N
  N99      1.0000 0.93276  0.30961  0.30917  Biso   1.000  N
  H2308    1.0000 0.98959  0.34643  0.32493  Biso   1.000  H
  C2249    1.0000 0.93877  0.39196  0.32368  Biso   1.000  C
  C2250    1.0000 0.93874  0.39191  0.32368  Biso   1.000  C
  C2251    1.0000 0.11939  0.45718  0.32659  Biso   1.000  C
  C2252    1.0000 0.09108  0.52357  0.31598  Biso   1.000  C
  C2253    1.0000 0.11937  0.45713  0.32659  Biso   1.000  C
  C2254    1.0000 0.09106  0.52352  0.31598  Biso   1.000  C
  N100     1.0000 0.30804  0.31471  0.17842  Biso   1.000  N
  H2309    1.0000 0.34840  0.40838  0.18014  Biso   1.000  H
  C2255    1.0000 0.38162  0.39168  0.16318  Biso   1.000  C
  H2310    1.0000 0.34837  0.40833  0.18014  Biso   1.000  H
  C2256    1.0000 0.52800  0.45657  0.18489  Biso   1.000  C
  C2257    1.0000 0.46637  0.50195  0.18895  Biso   1.000  C
  C2258    1.0000 0.52798  0.45652  0.18489  Biso   1.000  C
  H2311    1.0000 0.07908  0.48434  0.19153  Biso   1.000  H
  C2259    1.0000 0.99160  0.42436  0.18805  Biso   1.000  C
  C2260    1.0000 0.99157  0.42431  0.18805  Biso   1.000  C
  H2312    1.0000 0.89938  0.37874  0.18433  Biso   1.000  H
  C2261    1.0000 0.05036  0.80225  0.18100  Biso   1.000  C
  C2262    1.0000 0.05033  0.80221  0.18100  Biso   1.000  C
  H2313    1.0000 0.92676  0.61277  0.15994  Biso   1.000  H
  C2263    1.0000 0.95519  0.59644  0.14250  Biso   1.000  C
  H2314    1.0000 0.92674  0.61272  0.15994  Biso   1.000  H
  H2315    1.0000 0.09098  0.61777  0.16163  Biso   1.000  H
  C2264    1.0000 0.05298  0.59817  0.14375  Biso   1.000  C
  H2316    1.0000 0.09095  0.61773  0.16163  Biso   1.000  H
  C2265    1.0000 0.05295  0.59812  0.14375  Biso   1.000  C
  H2317    1.0000 0.57348  0.47428  0.35133  Biso   1.000  H
  C2266    1.0000 0.55428  0.42866  0.33480  Biso   1.000  C
  H2318    1.0000 0.57346  0.47423  0.35133  Biso   1.000  H
  C2267    1.0000 0.55426  0.42861  0.33480  Biso   1.000  C
  H2319    1.0000 0.54839  0.40115  0.31603  Biso   1.000  H
  C2268    1.0000 0.63968  0.75318  0.28592  Biso   1.000  C
  C2269    1.0000 0.63965  0.75313  0.28592  Biso   1.000  C
  H2320    1.0000 0.58367  0.69474  0.32793  Biso   1.000  H
  C2270    1.0000 0.49690  0.66437  0.33334  Biso   1.000  C
  C2271    1.0000 0.49687  0.66433  0.33334  Biso   1.000  C
  H2321    1.0000 0.46915  0.53515  0.31033  Biso   1.000  H
  C2272    1.0000 0.42410  0.56748  0.32325  Biso   1.000  C
  C2273    1.0000 0.42407  0.56743  0.32325  Biso   1.000  C
  C2274    1.0000 0.92048  0.25684  0.31294  Biso   1.000  C
  C2275    1.0000 0.93587  0.39766  0.33696  Biso   1.000  C
  C2276    1.0000 0.90677  0.41217  0.31609  Biso   1.000  C
  C2277    1.0000 0.93584  0.39762  0.33696  Biso   1.000  C
  C2278    1.0000 0.90675  0.41212  0.31609  Biso   1.000  C
  H2322    1.0000 0.11111  0.41638  0.32793  Biso   1.000  H
  C2279    1.0000 0.16747  0.50317  0.33334  Biso   1.000  C
  H2323    1.0000 0.11108  0.41633  0.32793  Biso   1.000  H
  C2280    1.0000 0.16744  0.50312  0.33334  Biso   1.000  C
  H2324    1.0000 0.06600  0.53087  0.31033  Biso   1.000  H
  C2281    1.0000 0.14337  0.57597  0.32325  Biso   1.000  C
  H2325    1.0000 0.06598  0.53082  0.31033  Biso   1.000  H
  C2282    1.0000 0.14335  0.57592  0.32325  Biso   1.000  C
  C2283    1.0000 0.25502  0.30924  0.18023  Biso   1.000  C
  C2284    1.0000 0.25500  0.30919  0.18023  Biso   1.000  C
  C2285    1.0000 0.39025  0.34915  0.15591  Biso   1.000  C
  C2286    1.0000 0.38786  0.44436  0.15688  Biso   1.000  C
  C2287    1.0000 0.38784  0.44431  0.15688  Biso   1.000  C
  H2326    1.0000 0.53216  0.42185  0.18314  Biso   1.000  H
  C2288    1.0000 0.58199  0.51618  0.18556  Biso   1.000  C
  C2289    1.0000 0.58197  0.51613  0.18556  Biso   1.000  C
  H2327    1.0000 0.42739  0.49854  0.18993  Biso   1.000  H
  C2290    1.0000 0.51957  0.55997  0.18974  Biso   1.000  C
  C2291    1.0000 0.51955  0.55992  0.18974  Biso   1.000  C
  H2328    1.0000 0.99609  0.38927  0.18853  Biso   1.000  H
  H2329    1.0000 0.99607  0.38922  0.18853  Biso   1.000  H
  C2292    1.0000 0.10538  0.86004  0.18111  Biso   1.000  C
  C2293    1.0000 0.99360  0.80179  0.18114  Biso   1.000  C
  C2294    1.0000 0.99358  0.80174  0.18114  Biso   1.000  C
  C2295    1.0000 0.00348  0.59115  0.13665  Biso   1.000  C
  H2330    1.0000 0.92119  0.59125  0.13753  Biso   1.000  H
  H2331    1.0000 0.08437  0.59354  0.13974  Biso   1.000  H
  H2332    1.0000 0.53438  0.38894  0.33853  Biso   1.000  H
  C2296    1.0000 0.67817  0.80796  0.29255  Biso   1.000  C
  C2297    1.0000 0.61957  0.75706  0.27318  Biso   1.000  C
  C2298    1.0000 0.67815  0.80792  0.29255  Biso   1.000  C
  C2299    1.0000 0.61955  0.75701  0.27318  Biso   1.000  C
  C2300    1.0000 0.43967  0.61525  0.33140  Biso   1.000  C
  H2333    1.0000 0.50439  0.69736  0.33884  Biso   1.000  H
  H2334    1.0000 0.50437  0.69731  0.33884  Biso   1.000  H
  H2335    1.0000 0.38275  0.53585  0.32214  Biso   1.000  H
  C2301    1.0000 0.88187  0.19948  0.30526  Biso   1.000  C
  C2302    1.0000 0.88185  0.19943  0.30526  Biso   1.000  C
  H2336    1.0000 0.95630  0.38368  0.34244  Biso   1.000  H
  C2303    1.0000 0.90287  0.42405  0.34230  Biso   1.000  C
  H2337    1.0000 0.95628  0.38363  0.34244  Biso   1.000  H
  H2338    1.0000 0.90688  0.40777  0.30704  Biso   1.000  H
  C2304    1.0000 0.87447  0.43865  0.32139  Biso   1.000  C
  H2339    1.0000 0.90686  0.40772  0.30704  Biso   1.000  H
  C2305    1.0000 0.17555  0.56034  0.33140  Biso   1.000  C
  H2340    1.0000 0.19296  0.49564  0.33884  Biso   1.000  H
  H2341    1.0000 0.15307  0.61724  0.32214  Biso   1.000  H
  C2306    1.0000 0.19781  0.24813  0.18100  Biso   1.000  C
  H2342    1.0000 0.38730  0.31406  0.15994  Biso   1.000  H
  C2307    1.0000 0.40356  0.35874  0.14250  Biso   1.000  C
  H2343    1.0000 0.38230  0.47327  0.16163  Biso   1.000  H
  C2308    1.0000 0.40185  0.45484  0.14375  Biso   1.000  C
  H2344    1.0000 0.38228  0.47323  0.16163  Biso   1.000  H
  H2345    1.0000 0.62127  0.52067  0.18433  Biso   1.000  H
  C2309    1.0000 0.57569  0.56727  0.18805  Biso   1.000  C
  H2346    1.0000 0.62125  0.52062  0.18433  Biso   1.000  H
  C2310    1.0000 0.57567  0.56722  0.18805  Biso   1.000  C
  H2347    1.0000 0.51570  0.59478  0.19153  Biso   1.000  H
  H2348    1.0000 0.51568  0.59473  0.19153  Biso   1.000  H
  H2349    1.0000 0.14377  0.86144  0.18114  Biso   1.000  H
  C2311    1.0000 0.10411  0.91510  0.18121  Biso   1.000  C
  H2350    1.0000 0.95615  0.76384  0.18114  Biso   1.000  H
  C2312    1.0000 0.99246  0.85639  0.18127  Biso   1.000  C
  H2351    1.0000 0.00156  0.58254  0.12773  Biso   1.000  H
  H2352    1.0000 0.69140  0.80637  0.30104  Biso   1.000  H
  C2313    1.0000 0.69749  0.86598  0.28660  Biso   1.000  C
  H2353    1.0000 0.69137  0.80633  0.30104  Biso   1.000  H
  C2314    1.0000 0.69747  0.86593  0.28660  Biso   1.000  C
  H2354    1.0000 0.59268  0.72038  0.26873  Biso   1.000  H
  C2315    1.0000 0.63869  0.81344  0.26724  Biso   1.000  C
  H2355    1.0000 0.59266  0.72033  0.26873  Biso   1.000  H
  H2356    1.0000 0.40738  0.61427  0.33623  Biso   1.000  H
  H2357    1.0000 0.40735  0.61422  0.33623  Biso   1.000  H
  C2316    1.0000 0.86320  0.20046  0.29270  Biso   1.000  C
  C2317    1.0000 0.86317  0.20041  0.29270  Biso   1.000  C
  C2318    1.0000 0.86447  0.14085  0.31062  Biso   1.000  C
  H2358    1.0000 0.90081  0.42658  0.35133  Biso   1.000  H
  C2319    1.0000 0.87438  0.44576  0.33480  Biso   1.000  C
  H2359    1.0000 0.90079  0.42653  0.35133  Biso   1.000  H
  C2320    1.0000 0.87436  0.44572  0.33480  Biso   1.000  C
  H2360    1.0000 0.85277  0.45166  0.31603  Biso   1.000  H
  H2361    1.0000 0.85275  0.45161  0.31603  Biso   1.000  H
  H2362    1.0000 0.20687  0.59267  0.33623  Biso   1.000  H
  H2363    1.0000 0.20685  0.59263  0.33623  Biso   1.000  H
  C2321    1.0000 0.19827  0.19185  0.18114  Biso   1.000  C
  C2322    1.0000 0.13999  0.24537  0.18111  Biso   1.000  C
  H2364    1.0000 0.40878  0.32996  0.13753  Biso   1.000  H
  C2323    1.0000 0.40889  0.41236  0.13665  Biso   1.000  C
  H2365    1.0000 0.40876  0.32992  0.13753  Biso   1.000  H
  H2366    1.0000 0.40649  0.49086  0.13974  Biso   1.000  H
  H2367    1.0000 0.40647  0.49082  0.13974  Biso   1.000  H
  H2368    1.0000 0.61076  0.60685  0.18853  Biso   1.000  H
  H2369    1.0000 0.14148  0.95305  0.18124  Biso   1.000  H
  C2324    1.0000 0.04736  0.91482  0.18128  Biso   1.000  C
  C2325    1.0000 0.04734  0.91478  0.18128  Biso   1.000  C
  C2326    1.0000 0.93505  0.86355  0.18112  Biso   1.000  C
  C2327    1.0000 0.93503  0.86350  0.18112  Biso   1.000  C
  C2328    1.0000 0.67910  0.86986  0.27394  Biso   1.000  C
  C2329    1.0000 0.73817  0.92877  0.29259  Biso   1.000  C
  C2330    1.0000 0.67907  0.86982  0.27394  Biso   1.000  C
  C2331    1.0000 0.73814  0.92872  0.29259  Biso   1.000  C
  H2370    1.0000 0.62517  0.81484  0.25883  Biso   1.000  H
  C2332    1.0000 0.82727  0.14473  0.28590  Biso   1.000  C
  H2371    1.0000 0.87429  0.23845  0.28873  Biso   1.000  H
  C2333    1.0000 0.82977  0.08588  0.30390  Biso   1.000  C
  C2334    1.0000 0.82975  0.08583  0.30390  Biso   1.000  C
  H2372    1.0000 0.87707  0.13907  0.31914  Biso   1.000  H
  H2373    1.0000 0.87705  0.13903  0.31914  Biso   1.000  H
  H2374    1.0000 0.85458  0.46565  0.33853  Biso   1.000  H
  C2335    1.0000 0.14363  0.13613  0.18127  Biso   1.000  C
  C2336    1.0000 0.14361  0.13608  0.18127  Biso   1.000  C
  H2375    1.0000 0.23617  0.19236  0.18114  Biso   1.000  H
  H2376    1.0000 0.23615  0.19232  0.18114  Biso   1.000  H
  C2337    1.0000 0.08492  0.18904  0.18121  Biso   1.000  C
  C2338    1.0000 0.08489  0.18900  0.18121  Biso   1.000  C
  H2377    1.0000 0.13857  0.28234  0.18114  Biso   1.000  H
  H2378    1.0000 0.41746  0.41905  0.12773  Biso   1.000  H
  C2339    1.0000 0.03011  0.96395  0.18150  Biso   1.000  C
  C2340    1.0000 0.03009  0.96390  0.18150  Biso   1.000  C
  C2341    1.0000 0.96384  0.93424  0.18135  Biso   1.000  C
  C2342    1.0000 0.89544  0.83140  0.19351  Biso   1.000  C
  C2343    1.0000 0.89807  0.83430  0.16817  Biso   1.000  C
  C2344    1.0000 0.89542  0.83136  0.19351  Biso   1.000  C
  C2345    1.0000 0.89804  0.83426  0.16817  Biso   1.000  C
  C2346    1.0000 0.70727  0.93747  0.27053  Biso   1.000  C
  C2347    1.0000 0.70724  0.93742  0.27053  Biso   1.000  C
  C2348    1.0000 0.74188  0.97275  0.28152  Biso   1.000  C
  C2349    1.0000 0.70606  0.93635  0.30490  Biso   1.000  C
  C2350    1.0000 0.80178  0.93564  0.29619  Biso   1.000  C
  C2351    1.0000 0.81007  0.08723  0.29102  Biso   1.000  C
  C2352    1.0000 0.80370  0.13917  0.27191  Biso   1.000  C
  C2353    1.0000 0.80368  0.13912  0.27191  Biso   1.000  C
  H2379    1.0000 0.81938  0.04784  0.30783  Biso   1.000  H
  C2354    1.0000 0.13651  0.07156  0.18112  Biso   1.000  C
  C2355    1.0000 0.13649  0.07151  0.18112  Biso   1.000  C
  C2356    1.0000 0.08521  0.13257  0.18128  Biso   1.000  C
  H2380    1.0000 0.04697  0.18843  0.18124  Biso   1.000  H
  C2357    1.0000 0.06577  0.02959  0.18135  Biso   1.000  C
  C2358    1.0000 0.93384  0.96994  0.18150  Biso   1.000  C
  C2359    1.0000 0.93381  0.96989  0.18150  Biso   1.000  C
  H2381    1.0000 0.88328  0.78747  0.19334  Biso   1.000  H
  H2382    1.0000 0.85748  0.83384  0.19313  Biso   1.000  H
  C2360    1.0000 0.92739  0.85835  0.20614  Biso   1.000  C
  H2383    1.0000 0.88326  0.78742  0.19334  Biso   1.000  H
  H2384    1.0000 0.86317  0.84198  0.16773  Biso   1.000  H
  H2385    1.0000 0.88085  0.78934  0.16854  Biso   1.000  H
  C2361    1.0000 0.93637  0.85905  0.15573  Biso   1.000  C
  H2386    1.0000 0.86314  0.84193  0.16773  Biso   1.000  H
  C2362    1.0000 0.70430  0.96816  0.25935  Biso   1.000  C
  C2363    1.0000 0.70428  0.96811  0.25935  Biso   1.000  C
  C2364    1.0000 0.77235  0.03773  0.28129  Biso   1.000  C
  H2387    1.0000 0.73316  0.97775  0.30843  Biso   1.000  H
  H2388    1.0000 0.70338  0.90636  0.31143  Biso   1.000  H
  C2365    1.0000 0.64558  0.92867  0.30341  Biso   1.000  C
  C2366    1.0000 0.64555  0.92863  0.30341  Biso   1.000  C
  H2389    1.0000 0.79489  0.90355  0.30254  Biso   1.000  H
  H2390    1.0000 0.82698  0.97583  0.30044  Biso   1.000  H
  C2367    1.0000 0.83799  0.93125  0.28513  Biso   1.000  C
  C2368    1.0000 0.76835  0.06903  0.26990  Biso   1.000  C
  C2369    1.0000 0.86167  0.17618  0.26301  Biso   1.000  C
  C2370    1.0000 0.75828  0.16607  0.27137  Biso   1.000  C
  C2371    1.0000 0.86165  0.17613  0.26301  Biso   1.000  C
  C2372    1.0000 0.75825  0.16602  0.27137  Biso   1.000  C
  C2373    1.0000 0.16863  0.06407  0.19351  Biso   1.000  C
  C2374    1.0000 0.16573  0.06379  0.16817  Biso   1.000  C
  C2375    1.0000 0.03609  0.06618  0.18150  Biso   1.000  C
  C2376    1.0000 0.86746  0.95267  0.18128  Biso   1.000  C
  C2377    1.0000 0.97040  0.03619  0.18135  Biso   1.000  C
  H2391    1.0000 0.96797  0.86107  0.20583  Biso   1.000  H
  H2392    1.0000 0.93486  0.90083  0.20673  Biso   1.000  H
  C2378    1.0000 0.89369  0.82336  0.21919  Biso   1.000  C
  H2393    1.0000 0.96795  0.86102  0.20583  Biso   1.000  H
  H2394    1.0000 0.95300  0.90397  0.15534  Biso   1.000  H
  H2395    1.0000 0.97155  0.85194  0.15623  Biso   1.000  H
  C2379    1.0000 0.90067  0.82986  0.14306  Biso   1.000  C
  H2396    1.0000 0.95297  0.90392  0.15534  Biso   1.000  H
  C2380    1.0000 0.90064  0.82981  0.14306  Biso   1.000  C
  C2381    1.0000 0.66790  0.93976  0.24647  Biso   1.000  C
  C2382    1.0000 0.66787  0.93971  0.24647  Biso   1.000  C
  C2383    1.0000 0.73658  0.03427  0.25894  Biso   1.000  C
  C2384    1.0000 0.73656  0.03422  0.25894  Biso   1.000  C
  H2397    1.0000 0.64758  0.96138  0.29783  Biso   1.000  H
  H2398    1.0000 0.61787  0.88858  0.29933  Biso   1.000  H
  C2385    1.0000 0.61979  0.93204  0.31715  Biso   1.000  C
  H2399    1.0000 0.64756  0.96133  0.29783  Biso   1.000  H
  H2400    1.0000 0.61785  0.88853  0.29933  Biso   1.000  H
  H2401    1.0000 0.81090  0.89457  0.27993  Biso   1.000  H
  H2402    1.0000 0.85198  0.96765  0.27953  Biso   1.000  H
  C2386    1.0000 0.89579  0.92675  0.28969  Biso   1.000  C
  H2403    1.0000 0.81087  0.89452  0.27993  Biso   1.000  H
  H2404    1.0000 0.88490  0.21908  0.26614  Biso   1.000  H
  H2405    1.0000 0.84740  0.17697  0.25413  Biso   1.000  H
  C2387    1.0000 0.90547  0.15016  0.26246  Biso   1.000  C
  H2406    1.0000 0.88488  0.21903  0.26614  Biso   1.000  H
  H2407    1.0000 0.84738  0.17692  0.25413  Biso   1.000  H
  C2388    1.0000 0.90545  0.15012  0.26246  Biso   1.000  C
  H2408    1.0000 0.74299  0.16167  0.26243  Biso   1.000  H
  H2409    1.0000 0.78238  0.21047  0.27324  Biso   1.000  H
  C2389    1.0000 0.70447  0.13828  0.28013  Biso   1.000  C
  H2410    1.0000 0.74297  0.16162  0.26243  Biso   1.000  H
  H2411    1.0000 0.78236  0.21042  0.27324  Biso   1.000  H
  C2390    1.0000 0.70445  0.13823  0.28013  Biso   1.000  C
  H2412    1.0000 0.21259  0.09584  0.19334  Biso   1.000  H
  H2413    1.0000 0.16616  0.02365  0.19313  Biso   1.000  H
  C2391    1.0000 0.14165  0.06903  0.20614  Biso   1.000  C
  H2414    1.0000 0.15808  0.02126  0.16773  Biso   1.000  H
  H2415    1.0000 0.21068  0.09154  0.16854  Biso   1.000  H
  C2392    1.0000 0.14099  0.07736  0.15573  Biso   1.000  C
  H2416    1.0000 0.15806  0.02122  0.16773  Biso   1.000  H
  C2393    1.0000 0.14097  0.07732  0.15573  Biso   1.000  C
  C2394    1.0000 0.81101  0.89592  0.18121  Biso   1.000  C
  C2395    1.0000 0.81098  0.89588  0.18121  Biso   1.000  C
  C2396    1.0000 0.86391  0.00756  0.18127  Biso   1.000  C
  C2397    1.0000 0.92847  0.06496  0.18112  Biso   1.000  C
  H2417    1.0000 0.85185  0.81765  0.21943  Biso   1.000  H
  H2418    1.0000 0.91668  0.84876  0.22664  Biso   1.000  H
  C2398    1.0000 0.88956  0.75935  0.22013  Biso   1.000  C
  H2419    1.0000 0.91666  0.84871  0.22664  Biso   1.000  H
  H2420    1.0000 0.88968  0.78625  0.14253  Biso   1.000  H
  H2421    1.0000 0.86249  0.83187  0.14283  Biso   1.000  H
  C2399    1.0000 0.94655  0.86944  0.13059  Biso   1.000  C
  H2422    1.0000 0.86247  0.83182  0.14283  Biso   1.000  H
  C2400    1.0000 0.68559  0.99857  0.23890  Biso   1.000  C
  C2401    1.0000 0.68557  0.99853  0.23890  Biso   1.000  C
  C2402    1.0000 0.69056  0.90154  0.23884  Biso   1.000  C
  C2403    1.0000 0.59549  0.90345  0.24856  Biso   1.000  C
  C2404    1.0000 0.72386  0.05275  0.24573  Biso   1.000  C
  H2423    1.0000 0.58148  0.93354  0.31603  Biso   1.000  H
  H2424    1.0000 0.64998  0.97045  0.32143  Biso   1.000  H
  C2405    1.0000 0.60669  0.87716  0.32581  Biso   1.000  C
  C2406    1.0000 0.60667  0.87711  0.32581  Biso   1.000  C
  H2425    1.0000 0.92468  0.96606  0.29394  Biso   1.000  H
  H2426    1.0000 0.91649  0.92325  0.28193  Biso   1.000  H
  C2407    1.0000 0.88559  0.87328  0.29915  Biso   1.000  C
  C2408    1.0000 0.88556  0.87323  0.29915  Biso   1.000  C
  H2427    1.0000 0.91416  0.14314  0.27143  Biso   1.000  H
  H2428    1.0000 0.88375  0.10964  0.25813  Biso   1.000  H
  C2409    1.0000 0.96798  0.19017  0.25544  Biso   1.000  C
  C2410    1.0000 0.96795  0.19012  0.25544  Biso   1.000  C
  H2429    1.0000 0.72157  0.13828  0.28873  Biso   1.000  H
  H2430    1.0000 0.69065  0.16874  0.28063  Biso   1.000  H
  C2411    1.0000 0.64616  0.07685  0.27915  Biso   1.000  C
  H2431    1.0000 0.72155  0.13823  0.28873  Biso   1.000  H
  H2432    1.0000 0.13898  0.10698  0.20583  Biso   1.000  H
  H2433    1.0000 0.09915  0.03404  0.20673  Biso   1.000  H
  C2412    1.0000 0.17666  0.07034  0.21919  Biso   1.000  C
  H2434    1.0000 0.13896  0.10693  0.20583  Biso   1.000  H
  H2435    1.0000 0.09608  0.04906  0.15534  Biso   1.000  H
  H2436    1.0000 0.14808  0.11966  0.15623  Biso   1.000  H
  C2413    1.0000 0.17019  0.07086  0.14306  Biso   1.000  C
  H2437    1.0000 0.14805  0.11961  0.15623  Biso   1.000  H
  C2414    1.0000 0.17017  0.07081  0.14306  Biso   1.000  C
  C2415    1.0000 0.75466  0.89466  0.18111  Biso   1.000  C
  H2438    1.0000 0.81156  0.85854  0.18124  Biso   1.000  H
  C2416    1.0000 0.75464  0.89461  0.18111  Biso   1.000  C
  C2417    1.0000 0.80816  0.00643  0.18114  Biso   1.000  C
  C2418    1.0000 0.93593  0.10459  0.19351  Biso   1.000  C
  C2419    1.0000 0.93624  0.10197  0.16817  Biso   1.000  C
  H2439    1.0000 0.93048  0.76445  0.21893  Biso   1.000  H
  H2440    1.0000 0.87359  0.74134  0.22853  Biso   1.000  H
  H2441    1.0000 0.86217  0.73236  0.21344  Biso   1.000  H
  H2442    1.0000 0.98378  0.86626  0.13083  Biso   1.000  H
  H2443    1.0000 0.92486  0.85255  0.12254  Biso   1.000  H
  H2444    1.0000 0.95779  0.91267  0.13123  Biso   1.000  H
  H2445    1.0000 0.98375  0.86621  0.13083  Biso   1.000  H
  H2446    1.0000 0.95777  0.91263  0.13123  Biso   1.000  H
  C2420    1.0000 0.66655  0.00133  0.22619  Biso   1.000  C
  H2447    1.0000 0.67119  0.89246  0.23024  Biso   1.000  H
  H2448    1.0000 0.67579  0.86195  0.24334  Biso   1.000  H
  C2421    1.0000 0.76028  0.93134  0.23703  Biso   1.000  C
  H2449    1.0000 0.67117  0.89241  0.23024  Biso   1.000  H
  H2450    1.0000 0.58438  0.86495  0.25323  Biso   1.000  H
  H2451    1.0000 0.57568  0.89204  0.24003  Biso   1.000  H
  C2422    1.0000 0.56850  0.93667  0.25585  Biso   1.000  C
  C2423    1.0000 0.56848  0.93663  0.25585  Biso   1.000  C
  C2424    1.0000 0.74290  0.11067  0.23989  Biso   1.000  C
  C2425    1.0000 0.74287  0.11063  0.23989  Biso   1.000  C
  H2452    1.0000 0.64477  0.87665  0.32734  Biso   1.000  H
  H2453    1.0000 0.58987  0.88095  0.33403  Biso   1.000  H
  H2454    1.0000 0.57688  0.83894  0.32153  Biso   1.000  H
  H2455    1.0000 0.85998  0.83365  0.29494  Biso   1.000  H
  H2456    1.0000 0.92527  0.87744  0.30144  Biso   1.000  H
  H2457    1.0000 0.86517  0.87548  0.30693  Biso   1.000  H
  H2458    1.0000 0.86515  0.87543  0.30693  Biso   1.000  H
  H2459    1.0000 0.95878  0.20046  0.24684  Biso   1.000  H
  H2460    1.0000 0.98678  0.16425  0.25404  Biso   1.000  H
  H2461    1.0000 0.95876  0.20041  0.24684  Biso   1.000  H
  C2426    1.0000 0.01256  0.24505  0.26116  Biso   1.000  C
  C2427    1.0000 0.59718  0.07296  0.28951  Biso   1.000  C
  H2462    1.0000 0.62889  0.07156  0.27043  Biso   1.000  H
  H2463    1.0000 0.65548  0.04353  0.28074  Biso   1.000  H
  C2428    1.0000 0.59716  0.07292  0.28951  Biso   1.000  C
  H2464    1.0000 0.62887  0.07151  0.27043  Biso   1.000  H
  H2465    1.0000 0.18237  0.03427  0.21943  Biso   1.000  H
  H2466    1.0000 0.15128  0.06796  0.22664  Biso   1.000  H
  C2429    1.0000 0.24071  0.13028  0.22013  Biso   1.000  C
  H2467    1.0000 0.18235  0.03422  0.21943  Biso   1.000  H
  H2468    1.0000 0.15126  0.06791  0.22664  Biso   1.000  H
  C2430    1.0000 0.24068  0.13023  0.22013  Biso   1.000  C
  H2469    1.0000 0.21377  0.10347  0.14253  Biso   1.000  H
  H2470    1.0000 0.16817  0.03067  0.14283  Biso   1.000  H
  C2431    1.0000 0.13061  0.07717  0.13059  Biso   1.000  C
  H2471    1.0000 0.21375  0.10342  0.14253  Biso   1.000  H
  H2472    1.0000 0.16815  0.03062  0.14283  Biso   1.000  H
  C2432    1.0000 0.13058  0.07713  0.13059  Biso   1.000  C
  C2433    1.0000 0.75187  0.94968  0.18100  Biso   1.000  C
  H2473    1.0000 0.71767  0.85625  0.18114  Biso   1.000  H
  H2474    1.0000 0.80767  0.04386  0.18114  Biso   1.000  H
  H2475    1.0000 0.80765  0.04382  0.18114  Biso   1.000  H
  H2476    1.0000 0.90416  0.11676  0.19334  Biso   1.000  H
  H2477    1.0000 0.97637  0.14254  0.19313  Biso   1.000  H
  C2434    1.0000 0.93097  0.07264  0.20614  Biso   1.000  C
  H2478    1.0000 0.97877  0.13687  0.16773  Biso   1.000  H
  H2479    1.0000 0.90848  0.11914  0.16854  Biso   1.000  H
  C2435    1.0000 0.92267  0.06365  0.15573  Biso   1.000  C
  H2480    1.0000 0.97875  0.13683  0.16773  Biso   1.000  H
  C2436    1.0000 0.68608  0.05855  0.22037  Biso   1.000  C
  H2481    1.0000 0.64079  0.96465  0.22164  Biso   1.000  H
  H2482    1.0000 0.77548  0.97228  0.23313  Biso   1.000  H
  H2483    1.0000 0.77937  0.93775  0.24563  Biso   1.000  H
  C2437    1.0000 0.78236  0.89536  0.22872  Biso   1.000  C
  H2484    1.0000 0.77546  0.97223  0.23313  Biso   1.000  H
  C2438    1.0000 0.78234  0.89531  0.22872  Biso   1.000  C
  H2485    1.0000 0.58478  0.94477  0.26473  Biso   1.000  H
  H2486    1.0000 0.58157  0.97668  0.25163  Biso   1.000  H
  C2439    1.0000 0.49768  0.89934  0.25635  Biso   1.000  C
  H2487    1.0000 0.58476  0.94472  0.26473  Biso   1.000  H
  H2488    1.0000 0.58155  0.97663  0.25163  Biso   1.000  H
  C2440    1.0000 0.72277  0.11086  0.22723  Biso   1.000  C
  C2441    1.0000 0.72275  0.11081  0.22723  Biso   1.000  C
  H2489    1.0000 0.76817  0.14778  0.24434  Biso   1.000  H
  H2490    1.0000 0.76815  0.14773  0.24434  Biso   1.000  H
  H2491    1.0000 0.99520  0.27176  0.26264  Biso   1.000  H
  H2492    1.0000 0.99518  0.27171  0.26264  Biso   1.000  H
  H2493    1.0000 0.02519  0.23588  0.26933  Biso   1.000  H
  H2494    1.0000 0.04807  0.26568  0.25544  Biso   1.000  H
  H2495    1.0000 0.02517  0.23583  0.26933  Biso   1.000  H
  H2496    1.0000 0.04805  0.26563  0.25544  Biso   1.000  H
  H2497    1.0000 0.58609  0.10426  0.28763  Biso   1.000  H
  H2498    1.0000 0.56038  0.03226  0.28913  Biso   1.000  H
  H2499    1.0000 0.61496  0.07984  0.29813  Biso   1.000  H
  H2500    1.0000 0.58606  0.10422  0.28763  Biso   1.000  H
  H2501    1.0000 0.56035  0.03221  0.28913  Biso   1.000  H
  H2502    1.0000 0.23559  0.16607  0.21893  Biso   1.000  H
  H2503    1.0000 0.25867  0.13224  0.22853  Biso   1.000  H
  H2504    1.0000 0.26768  0.12986  0.21344  Biso   1.000  H
  H2505    1.0000 0.23556  0.16602  0.21893  Biso   1.000  H
  H2506    1.0000 0.13378  0.11755  0.13083  Biso   1.000  H
  H2507    1.0000 0.14748  0.07236  0.12254  Biso   1.000  H
  H2508    1.0000 0.08738  0.04517  0.13123  Biso   1.000  H
  H2509    1.0000 0.08735  0.04513  0.13123  Biso   1.000  H
  C2442    1.0000 0.69079  0.94584  0.18023  Biso   1.000  C
  C2443    1.0000 0.69077  0.94580  0.18023  Biso   1.000  C
  H2510    1.0000 0.89310  0.03207  0.20583  Biso   1.000  H
  H2511    1.0000 0.96596  0.06515  0.20673  Biso   1.000  H
  C2444    1.0000 0.92968  0.10637  0.21919  Biso   1.000  C
  H2512    1.0000 0.89308  0.03203  0.20583  Biso   1.000  H
  C2445    1.0000 0.92966  0.10632  0.21919  Biso   1.000  C
  H2513    1.0000 0.95095  0.04704  0.15534  Biso   1.000  H
  H2514    1.0000 0.88040  0.02847  0.15623  Biso   1.000  H
  C2446    1.0000 0.92917  0.09935  0.14306  Biso   1.000  C
  H2515    1.0000 0.88038  0.02842  0.15623  Biso   1.000  H
  C2447    1.0000 0.66728  0.06267  0.20663  Biso   1.000  C
  C2448    1.0000 0.66725  0.06262  0.20663  Biso   1.000  C
  H2516    1.0000 0.76229  0.85246  0.23183  Biso   1.000  H
  H2517    1.0000 0.82707  0.91347  0.22993  Biso   1.000  H
  C2449    1.0000 0.77017  0.89503  0.21568  Biso   1.000  C
  H2518    1.0000 0.76227  0.85241  0.23183  Biso   1.000  H
  H2519    1.0000 0.82705  0.91342  0.22993  Biso   1.000  H
  H2520    1.0000 0.48087  0.89115  0.24753  Biso   1.000  H
  H2521    1.0000 0.48419  0.85948  0.26063  Biso   1.000  H
  C2450    1.0000 0.47106  0.93855  0.26447  Biso   1.000  C
  H2522    1.0000 0.48417  0.85943  0.26063  Biso   1.000  H
  H2523    1.0000 0.73529  0.14927  0.22323  Biso   1.000  H
  H2524    1.0000 0.73527  0.14923  0.22323  Biso   1.000  H
  N101     1.0000 0.68530  0.99338  0.17842  Biso   1.000  N
  N102     1.0000 0.68528  0.99333  0.17842  Biso   1.000  N
  H2525    1.0000 0.96577  0.14815  0.21943  Biso   1.000  H
  H2526    1.0000 0.93207  0.08335  0.22664  Biso   1.000  H
  C2451    1.0000 0.86977  0.11044  0.22013  Biso   1.000  C
  H2527    1.0000 0.89658  0.11035  0.14253  Biso   1.000  H
  H2528    1.0000 0.96940  0.13758  0.14283  Biso   1.000  H
  C2452    1.0000 0.92288  0.05345  0.13059  Biso   1.000  C
  H2529    1.0000 0.96937  0.13753  0.14283  Biso   1.000  H
  N103     1.0000 0.62924  0.01626  0.20004  Biso   1.000  N
  N104     1.0000 0.62922  0.01621  0.20004  Biso   1.000  N
  H2530    1.0000 0.79008  0.93738  0.21254  Biso   1.000  H
  H2531    1.0000 0.78600  0.87215  0.21104  Biso   1.000  H
  H2532    1.0000 0.72580  0.87566  0.21433  Biso   1.000  H
  H2533    1.0000 0.79006  0.93733  0.21254  Biso   1.000  H
  H2534    1.0000 0.72577  0.87562  0.21433  Biso   1.000  H
  H2535    1.0000 0.48137  0.97635  0.25983  Biso   1.000  H
  H2536    1.0000 0.42647  0.91347  0.26533  Biso   1.000  H
  H2537    1.0000 0.48989  0.94898  0.27303  Biso   1.000  H
  H2538    1.0000 0.42644  0.91342  0.26533  Biso   1.000  H
  H2539    1.0000 0.48986  0.94893  0.27303  Biso   1.000  H
  C2453    1.0000 0.62109  0.98295  0.17739  Biso   1.000  C
  H2540    1.0000 0.83396  0.06955  0.21893  Biso   1.000  H
  H2541    1.0000 0.86776  0.12644  0.22853  Biso   1.000  H
  H2542    1.0000 0.87018  0.13786  0.21344  Biso   1.000  H
  H2543    1.0000 0.87016  0.13781  0.21344  Biso   1.000  H
  H2544    1.0000 0.88248  0.01626  0.13083  Biso   1.000  H
  H2545    1.0000 0.92769  0.07516  0.12254  Biso   1.000  H
  H2546    1.0000 0.95489  0.04227  0.13123  Biso   1.000  H
  H2547    1.0000 0.88246  0.01621  0.13083  Biso   1.000  H
  H2548    1.0000 0.92767  0.07512  0.12254  Biso   1.000  H
  H2549    1.0000 0.95486  0.04222  0.13123  Biso   1.000  H
  C2454    1.0000 0.61496  0.02781  0.18669  Biso   1.000  C
  C2455    1.0000 0.61494  0.02777  0.18669  Biso   1.000  C
  H2550    1.0000 0.59166  0.94004  0.18014  Biso   1.000  H
  C2456    1.0000 0.60835  0.98996  0.16318  Biso   1.000  C
  H2551    1.0000 0.64588  0.07076  0.18424  Biso   1.000  H
  C2457    1.0000 0.55131  0.02183  0.18671  Biso   1.000  C
  H2552    1.0000 0.64585  0.07072  0.18424  Biso   1.000  H
  C2458    1.0000 0.55569  0.94355  0.15688  Biso   1.000  C
  C2459    1.0000 0.65088  0.04115  0.15591  Biso   1.000  C
  C2460    1.0000 0.65086  0.04110  0.15591  Biso   1.000  C
  C2461    1.0000 0.49808  0.96447  0.18895  Biso   1.000  C
  C2462    1.0000 0.49805  0.96442  0.18895  Biso   1.000  C
  C2463    1.0000 0.54347  0.07147  0.18489  Biso   1.000  C
  C2464    1.0000 0.54345  0.07142  0.18489  Biso   1.000  C
  H2553    1.0000 0.52678  0.90907  0.16163  Biso   1.000  H
  C2465    1.0000 0.54517  0.94706  0.14375  Biso   1.000  C
  H2554    1.0000 0.52676  0.90902  0.16163  Biso   1.000  H
  C2466    1.0000 0.54514  0.94701  0.14375  Biso   1.000  C
  H2555    1.0000 0.68597  0.07324  0.15994  Biso   1.000  H
  C2467    1.0000 0.64126  0.04484  0.14250  Biso   1.000  C
  H2556    1.0000 0.50146  0.92886  0.18993  Biso   1.000  H
  C2468    1.0000 0.44007  0.95965  0.18974  Biso   1.000  C
  H2557    1.0000 0.50144  0.92881  0.18993  Biso   1.000  H
  H2558    1.0000 0.57819  0.11035  0.18314  Biso   1.000  H
  C2469    1.0000 0.48386  0.06585  0.18556  Biso   1.000  C
  C2470    1.0000 0.58766  0.99656  0.13665  Biso   1.000  C
  H2559    1.0000 0.50917  0.91567  0.13974  Biso   1.000  H
  C2471    1.0000 0.58764  0.99651  0.13665  Biso   1.000  C
  H2560    1.0000 0.50915  0.91562  0.13974  Biso   1.000  H
  H2561    1.0000 0.67006  0.07886  0.13753  Biso   1.000  H
  H2562    1.0000 0.67004  0.07881  0.13753  Biso   1.000  H
  H2563    1.0000 0.40529  0.92095  0.19153  Biso   1.000  H
  C2472    1.0000 0.43279  0.00844  0.18805  Biso   1.000  C
  H2564    1.0000 0.47938  0.10066  0.18433  Biso   1.000  H
  H2565    1.0000 0.47936  0.10061  0.18433  Biso   1.000  H
  H2566    1.0000 0.58101  0.99848  0.12773  Biso   1.000  H
  H2567    1.0000 0.58098  0.99843  0.12773  Biso   1.000  H
  H2568    1.0000 0.39318  0.00395  0.18853  Biso   1.000  H
  C2473    1.0000 0.42403  0.52116  0.65770  Biso   1.000  C
  C2474    1.0000 0.39763  0.46179  0.66304  Biso   1.000  C
  H2569    1.0000 0.42653  0.52574  0.64867  Biso   1.000  H
  C2475    1.0000 0.44573  0.57136  0.66520  Biso   1.000  C
  C2476    1.0000 0.39760  0.46174  0.66304  Biso   1.000  C
  C2477    1.0000 0.39195  0.45318  0.67632  Biso   1.000  C
  H2570    1.0000 0.38361  0.42735  0.65756  Biso   1.000  H
  C2478    1.0000 0.39192  0.45313  0.67632  Biso   1.000  C
  H2571    1.0000 0.46563  0.61108  0.66147  Biso   1.000  H
  C2479    1.0000 0.43864  0.56416  0.67861  Biso   1.000  C
  H2572    1.0000 0.46561  0.61104  0.66147  Biso   1.000  H
  C2480    1.0000 0.36223  0.38768  0.68219  Biso   1.000  C
  C2481    1.0000 0.41211  0.50535  0.68391  Biso   1.000  C
  C2482    1.0000 0.36221  0.38763  0.68219  Biso   1.000  C
  H2573    1.0000 0.45162  0.59887  0.68397  Biso   1.000  H
  H2574    1.0000 0.45160  0.59883  0.68397  Biso   1.000  H
  N105     1.0000 0.30963  0.37687  0.69083  Biso   1.000  N
  H2575    1.0000 0.34641  0.35684  0.67507  Biso   1.000  H
  C2483    1.0000 0.40926  0.37808  0.69050  Biso   1.000  C
  N106     1.0000 0.30960  0.37682  0.69083  Biso   1.000  N
  C2484    1.0000 0.40924  0.37804  0.69050  Biso   1.000  C
  H2576    1.0000 0.40772  0.50085  0.69296  Biso   1.000  H
  C2485    1.0000 0.25683  0.33635  0.68706  Biso   1.000  C
  N107     1.0000 0.37624  0.31497  0.69593  Biso   1.000  N
  H2577    1.0000 0.42505  0.40868  0.69767  Biso   1.000  H
  C2486    1.0000 0.46584  0.38459  0.68214  Biso   1.000  C
  H2578    1.0000 0.42502  0.40864  0.69767  Biso   1.000  H
  C2487    1.0000 0.46581  0.38454  0.68214  Biso   1.000  C
  C2488    1.0000 0.19943  0.31759  0.69474  Biso   1.000  C
  C2489    1.0000 0.19941  0.31754  0.69474  Biso   1.000  C
  C2490    1.0000 0.38574  0.30917  0.70813  Biso   1.000  C
  C2491    1.0000 0.38572  0.30912  0.70813  Biso   1.000  C
  C2492    1.0000 0.45713  0.33775  0.67341  Biso   1.000  C
  C2493    1.0000 0.52352  0.43245  0.68402  Biso   1.000  C
  C2494    1.0000 0.20045  0.33729  0.70730  Biso   1.000  C
  C2495    1.0000 0.14082  0.27637  0.68938  Biso   1.000  C
  C2496    1.0000 0.20043  0.33724  0.70730  Biso   1.000  C
  C2497    1.0000 0.14080  0.27632  0.68938  Biso   1.000  C
  C2498    1.0000 0.36034  0.24685  0.71408  Biso   1.000  C
  H2579    1.0000 0.41634  0.30528  0.67207  Biso   1.000  H
  C2499    1.0000 0.50312  0.33565  0.66666  Biso   1.000  C
  H2580    1.0000 0.41631  0.30524  0.67207  Biso   1.000  H
  H2581    1.0000 0.53086  0.46487  0.68967  Biso   1.000  H
  C2500    1.0000 0.57592  0.43254  0.67675  Biso   1.000  C
  H2582    1.0000 0.53083  0.46483  0.68967  Biso   1.000  H
  H2583    1.0000 0.23846  0.36419  0.71127  Biso   1.000  H
  C2501    1.0000 0.14471  0.31745  0.71410  Biso   1.000  C
  H2584    1.0000 0.23843  0.36414  0.71127  Biso   1.000  H
  H2585    1.0000 0.13904  0.26196  0.68086  Biso   1.000  H
  C2502    1.0000 0.08585  0.25606  0.69610  Biso   1.000  C
  C2503    1.0000 0.32184  0.19206  0.70745  Biso   1.000  C
  C2504    1.0000 0.38044  0.24296  0.72682  Biso   1.000  C
  C2505    1.0000 0.56034  0.38478  0.66860  Biso   1.000  C
  H2586    1.0000 0.49562  0.30266  0.66116  Biso   1.000  H
  C2506    1.0000 0.56031  0.38473  0.66860  Biso   1.000  C
  H2587    1.0000 0.61726  0.46417  0.67786  Biso   1.000  H
  H2588    1.0000 0.61723  0.46413  0.67786  Biso   1.000  H
  C2507    1.0000 0.08725  0.27717  0.70898  Biso   1.000  C
  C2508    1.0000 0.13912  0.33546  0.72809  Biso   1.000  C
  H2589    1.0000 0.04782  0.22846  0.69217  Biso   1.000  H
  H2590    1.0000 0.30862  0.19365  0.69896  Biso   1.000  H
  C2509    1.0000 0.30252  0.13404  0.71340  Biso   1.000  C
  H2591    1.0000 0.40733  0.27965  0.73127  Biso   1.000  H
  C2510    1.0000 0.36132  0.18659  0.73276  Biso   1.000  C
  C2511    1.0000 0.36130  0.18654  0.73276  Biso   1.000  C
  H2592    1.0000 0.59264  0.38576  0.66377  Biso   1.000  H
  C2512    1.0000 0.03775  0.26538  0.71871  Biso   1.000  C
  C2513    1.0000 0.03773  0.26533  0.71871  Biso   1.000  C
  C2514    1.0000 0.17611  0.31445  0.73699  Biso   1.000  C
  C2515    1.0000 0.16603  0.40775  0.72863  Biso   1.000  C
  C2516    1.0000 0.06905  0.30065  0.73010  Biso   1.000  C
  C2517    1.0000 0.32092  0.13016  0.72606  Biso   1.000  C
  C2518    1.0000 0.26184  0.07126  0.70741  Biso   1.000  C
  H2593    1.0000 0.37484  0.18518  0.74117  Biso   1.000  H
  H2594    1.0000 0.37482  0.18514  0.74117  Biso   1.000  H
  C2519    1.0000 0.97272  0.23085  0.71848  Biso   1.000  C
  H2595    1.0000 0.21902  0.33415  0.73386  Biso   1.000  H
  H2596    1.0000 0.17694  0.32957  0.74587  Biso   1.000  H
  C2520    1.0000 0.15012  0.24465  0.73754  Biso   1.000  C
  H2597    1.0000 0.16163  0.41865  0.73757  Biso   1.000  H
  H2598    1.0000 0.21042  0.42805  0.72676  Biso   1.000  H
  C2521    1.0000 0.13823  0.43376  0.71987  Biso   1.000  C
  C2522    1.0000 0.03424  0.29766  0.74106  Biso   1.000  C
  C2523    1.0000 0.29274  0.06255  0.72947  Biso   1.000  C
  C2524    1.0000 0.25813  0.02728  0.71848  Biso   1.000  C
  C2525    1.0000 0.29395  0.06368  0.69510  Biso   1.000  C
  C2526    1.0000 0.19823  0.06438  0.70381  Biso   1.000  C
  C2527    1.0000 0.25810  0.02723  0.71848  Biso   1.000  C
  C2528    1.0000 0.29393  0.06363  0.69510  Biso   1.000  C
  C2529    1.0000 0.19821  0.06433  0.70381  Biso   1.000  C
  C2530    1.0000 0.92875  0.19056  0.70741  Biso   1.000  C
  C2531    1.0000 0.93744  0.23014  0.72947  Biso   1.000  C
  H2599    1.0000 0.14313  0.22898  0.72857  Biso   1.000  H
  H2600    1.0000 0.10966  0.22589  0.74187  Biso   1.000  H
  C2532    1.0000 0.19012  0.22214  0.74456  Biso   1.000  C
  H2601    1.0000 0.14311  0.22893  0.72857  Biso   1.000  H
  H2602    1.0000 0.10964  0.22584  0.74187  Biso   1.000  H
  H2603    1.0000 0.13824  0.41668  0.71127  Biso   1.000  H
  H2604    1.0000 0.16873  0.47807  0.71937  Biso   1.000  H
  C2533    1.0000 0.07684  0.43067  0.72085  Biso   1.000  C
  H2605    1.0000 0.13822  0.41664  0.71127  Biso   1.000  H
  H2606    1.0000 0.16871  0.47802  0.71937  Biso   1.000  H
  C2534    1.0000 0.07682  0.43063  0.72085  Biso   1.000  C
  C2535    1.0000 0.05272  0.32887  0.75427  Biso   1.000  C
  C2536    1.0000 0.96812  0.26388  0.74065  Biso   1.000  C
  C2537    1.0000 0.96810  0.26383  0.74065  Biso   1.000  C
  C2538    1.0000 0.29571  0.03186  0.74065  Biso   1.000  C
  C2539    1.0000 0.22766  0.96229  0.71871  Biso   1.000  C
  C2540    1.0000 0.22764  0.96224  0.71871  Biso   1.000  C
  H2607    1.0000 0.26685  0.02227  0.69157  Biso   1.000  H
  H2608    1.0000 0.29663  0.09367  0.68857  Biso   1.000  H
  C2541    1.0000 0.35444  0.07135  0.69659  Biso   1.000  C
  H2609    1.0000 0.26683  0.02222  0.69157  Biso   1.000  H
  H2610    1.0000 0.29661  0.09362  0.68857  Biso   1.000  H
  H2611    1.0000 0.20513  0.09647  0.69746  Biso   1.000  H
  H2612    1.0000 0.17303  0.02419  0.69956  Biso   1.000  H
  C2542    1.0000 0.16202  0.06878  0.71487  Biso   1.000  C
  H2613    1.0000 0.20510  0.09643  0.69746  Biso   1.000  H
  H2614    1.0000 0.17301  0.02414  0.69956  Biso   1.000  H
  C2543    1.0000 0.16200  0.06873  0.71487  Biso   1.000  C
  C2544    1.0000 0.86593  0.16848  0.71340  Biso   1.000  C
  C2545    1.0000 0.93633  0.23029  0.69510  Biso   1.000  C
  C2546    1.0000 0.93565  0.13386  0.70381  Biso   1.000  C
  C2547    1.0000 0.86590  0.16843  0.71340  Biso   1.000  C
  C2548    1.0000 0.93631  0.23024  0.69510  Biso   1.000  C
  C2549    1.0000 0.86981  0.19075  0.72606  Biso   1.000  C
  H2615    1.0000 0.20045  0.24165  0.75316  Biso   1.000  H
  H2616    1.0000 0.16422  0.17746  0.74596  Biso   1.000  H
  C2550    1.0000 0.24505  0.23248  0.73884  Biso   1.000  C
  C2551    1.0000 0.24503  0.23244  0.73884  Biso   1.000  C
  C2552    1.0000 0.07294  0.47578  0.71049  Biso   1.000  C
  H2617    1.0000 0.07153  0.44265  0.72957  Biso   1.000  H
  H2618    1.0000 0.04354  0.38805  0.71926  Biso   1.000  H
  C2553    1.0000 0.07291  0.47573  0.71049  Biso   1.000  C
  C2554    1.0000 0.11061  0.36774  0.76011  Biso   1.000  C
  C2555    1.0000 0.99854  0.31296  0.76110  Biso   1.000  C
  C2556    1.0000 0.93975  0.27188  0.75353  Biso   1.000  C
  C2557    1.0000 0.93972  0.27183  0.75353  Biso   1.000  C
  C2558    1.0000 0.33212  0.06026  0.75353  Biso   1.000  C
  C2559    1.0000 0.26343  0.96575  0.74106  Biso   1.000  C
  C2560    1.0000 0.23166  0.93099  0.73010  Biso   1.000  C
  C2561    1.0000 0.18994  0.91279  0.70898  Biso   1.000  C
  C2562    1.0000 0.23164  0.93094  0.73010  Biso   1.000  C
  C2563    1.0000 0.18992  0.91274  0.70898  Biso   1.000  C
  H2619    1.0000 0.35243  0.03865  0.70217  Biso   1.000  H
  H2620    1.0000 0.38214  0.11145  0.70067  Biso   1.000  H
  C2564    1.0000 0.38022  0.06798  0.68285  Biso   1.000  C
  C2565    1.0000 0.38020  0.06793  0.68285  Biso   1.000  C
  H2621    1.0000 0.18911  0.10546  0.72007  Biso   1.000  H
  H2622    1.0000 0.14804  0.03238  0.72047  Biso   1.000  H
  C2566    1.0000 0.10422  0.07327  0.71031  Biso   1.000  C
  H2623    1.0000 0.14801  0.03233  0.72047  Biso   1.000  H
  C2567    1.0000 0.10420  0.07322  0.71031  Biso   1.000  C
  C2568    1.0000 0.80792  0.12979  0.70745  Biso   1.000  C
  C2569    1.0000 0.80790  0.12974  0.70745  Biso   1.000  C
  H2624    1.0000 0.97775  0.24456  0.69157  Biso   1.000  H
  H2625    1.0000 0.90634  0.20296  0.68857  Biso   1.000  H
  C2570    1.0000 0.92865  0.28306  0.69659  Biso   1.000  C
  H2626    1.0000 0.90353  0.10869  0.69746  Biso   1.000  H
  H2627    1.0000 0.97586  0.14888  0.69956  Biso   1.000  H
  C2571    1.0000 0.93123  0.09325  0.71487  Biso   1.000  C
  H2628    1.0000 0.90351  0.10864  0.69746  Biso   1.000  H
  H2629    1.0000 0.97583  0.14883  0.69956  Biso   1.000  H
  C2572    1.0000 0.81343  0.17475  0.73276  Biso   1.000  C
  H2630    1.0000 0.23585  0.21068  0.73067  Biso   1.000  H
  H2631    1.0000 0.26563  0.21756  0.74456  Biso   1.000  H
  H2632    1.0000 0.27175  0.27656  0.73736  Biso   1.000  H
  H2633    1.0000 0.23583  0.21063  0.73067  Biso   1.000  H
  H2634    1.0000 0.10422  0.51816  0.71237  Biso   1.000  H
  H2635    1.0000 0.03224  0.47185  0.71087  Biso   1.000  H
  H2636    1.0000 0.07984  0.46487  0.70187  Biso   1.000  H
  H2637    1.0000 0.07982  0.46483  0.70187  Biso   1.000  H
  C2573    1.0000 0.11084  0.38805  0.77277  Biso   1.000  C
  H2638    1.0000 0.14773  0.37958  0.75566  Biso   1.000  H
  H2639    1.0000 0.14771  0.37954  0.75566  Biso   1.000  H
  C2574    1.0000 0.00133  0.33476  0.77381  Biso   1.000  C
  C2575    1.0000 0.90155  0.21096  0.76116  Biso   1.000  C
  C2576    1.0000 0.90341  0.30795  0.75144  Biso   1.000  C
  C2577    1.0000 0.31442  0.00145  0.76110  Biso   1.000  C
  C2578    1.0000 0.30945  0.09849  0.76116  Biso   1.000  C
  C2579    1.0000 0.40452  0.09657  0.75144  Biso   1.000  C
  C2580    1.0000 0.30943  0.09844  0.76116  Biso   1.000  C
  C2581    1.0000 0.40450  0.09652  0.75144  Biso   1.000  C
  C2582    1.0000 0.27615  0.94727  0.75427  Biso   1.000  C
  C2583    1.0000 0.27612  0.94722  0.75427  Biso   1.000  C
  C2584    1.0000 0.19631  0.86086  0.72809  Biso   1.000  C
  C2585    1.0000 0.17274  0.85529  0.71410  Biso   1.000  C
  C2586    1.0000 0.17024  0.91415  0.69610  Biso   1.000  C
  C2587    1.0000 0.17272  0.85524  0.71410  Biso   1.000  C
  H2640    1.0000 0.41853  0.06648  0.68397  Biso   1.000  H
  H2641    1.0000 0.35004  0.02957  0.67857  Biso   1.000  H
  C2588    1.0000 0.39332  0.12286  0.67419  Biso   1.000  C
  H2642    1.0000 0.41851  0.06644  0.68397  Biso   1.000  H
  H2643    1.0000 0.35001  0.02952  0.67857  Biso   1.000  H
  H2644    1.0000 0.07533  0.03397  0.70606  Biso   1.000  H
  H2645    1.0000 0.08353  0.07678  0.71807  Biso   1.000  H
  C2589    1.0000 0.11443  0.12675  0.70085  Biso   1.000  C
  H2646    1.0000 0.07531  0.03392  0.70606  Biso   1.000  H
  H2647    1.0000 0.08350  0.07673  0.71807  Biso   1.000  H
  C2590    1.0000 0.75312  0.11346  0.71408  Biso   1.000  C
  H2648    1.0000 0.80634  0.11496  0.69896  Biso   1.000  H
  H2649    1.0000 0.96133  0.31375  0.70217  Biso   1.000  H
  H2650    1.0000 0.88853  0.27066  0.70067  Biso   1.000  H
  C2591    1.0000 0.93202  0.31226  0.68285  Biso   1.000  C
  H2651    1.0000 0.89454  0.08365  0.72007  Biso   1.000  H
  H2652    1.0000 0.96763  0.11566  0.72047  Biso   1.000  H
  C2592    1.0000 0.92675  0.03097  0.71031  Biso   1.000  C
  C2593    1.0000 0.92673  0.03093  0.71031  Biso   1.000  C
  C2594    1.0000 0.75702  0.13746  0.72682  Biso   1.000  C
  H2653    1.0000 0.81485  0.18967  0.74117  Biso   1.000  H
  H2654    1.0000 0.81483  0.18963  0.74117  Biso   1.000  H
  C2595    1.0000 0.05852  0.37247  0.77963  Biso   1.000  C
  H2655    1.0000 0.14925  0.41397  0.77677  Biso   1.000  H
  C2596    1.0000 0.05850  0.37242  0.77963  Biso   1.000  C
  H2656    1.0000 0.14922  0.41392  0.77677  Biso   1.000  H
  H2657    1.0000 0.96464  0.32386  0.77836  Biso   1.000  H
  H2658    1.0000 0.89243  0.22126  0.76976  Biso   1.000  H
  H2659    1.0000 0.86192  0.18617  0.75666  Biso   1.000  H
  C2597    1.0000 0.93131  0.17105  0.76297  Biso   1.000  C
  H2660    1.0000 0.86493  0.28058  0.74677  Biso   1.000  H
  H2661    1.0000 0.89202  0.31637  0.75997  Biso   1.000  H
  C2598    1.0000 0.93664  0.36817  0.74415  Biso   1.000  C
  H2662    1.0000 0.86490  0.28053  0.74677  Biso   1.000  H
  H2663    1.0000 0.89200  0.31633  0.75997  Biso   1.000  H
  C2599    1.0000 0.33346  0.99869  0.77381  Biso   1.000  C
  C2600    1.0000 0.33344  0.99864  0.77381  Biso   1.000  C
  H2664    1.0000 0.32882  0.10756  0.76976  Biso   1.000  H
  H2665    1.0000 0.32422  0.13807  0.75666  Biso   1.000  H
  C2601    1.0000 0.23973  0.06868  0.76297  Biso   1.000  C
  H2666    1.0000 0.32420  0.13802  0.75666  Biso   1.000  H
  C2602    1.0000 0.23971  0.06864  0.76297  Biso   1.000  C
  H2667    1.0000 0.41563  0.13507  0.74677  Biso   1.000  H
  H2668    1.0000 0.42433  0.10798  0.75997  Biso   1.000  H
  C2603    1.0000 0.43151  0.06335  0.74415  Biso   1.000  C
  H2669    1.0000 0.41561  0.13503  0.74677  Biso   1.000  H
  H2670    1.0000 0.42431  0.10794  0.75997  Biso   1.000  H
  C2604    1.0000 0.25711  0.88935  0.76011  Biso   1.000  C
  C2605    1.0000 0.13834  0.82385  0.73699  Biso   1.000  C
  C2606    1.0000 0.24173  0.83395  0.72863  Biso   1.000  C
  C2607    1.0000 0.13682  0.79956  0.70730  Biso   1.000  C
  C2608    1.0000 0.13554  0.85917  0.68938  Biso   1.000  C
  H2671    1.0000 0.18063  0.95218  0.69217  Biso   1.000  H
  C2609    1.0000 0.13552  0.85912  0.68938  Biso   1.000  C
  H2672    1.0000 0.18061  0.95214  0.69217  Biso   1.000  H
  H2673    1.0000 0.35525  0.12338  0.67266  Biso   1.000  H
  H2674    1.0000 0.41014  0.11907  0.66597  Biso   1.000  H
  H2675    1.0000 0.42313  0.16109  0.67847  Biso   1.000  H
  H2676    1.0000 0.35522  0.12333  0.67266  Biso   1.000  H
  H2677    1.0000 0.41012  0.11903  0.66597  Biso   1.000  H
  H2678    1.0000 0.42311  0.16104  0.67847  Biso   1.000  H
  H2679    1.0000 0.14003  0.16637  0.70506  Biso   1.000  H
  H2680    1.0000 0.07474  0.12258  0.69856  Biso   1.000  H
  H2681    1.0000 0.13484  0.12455  0.69307  Biso   1.000  H
  H2682    1.0000 0.14001  0.16633  0.70506  Biso   1.000  H
  H2683    1.0000 0.07472  0.12253  0.69856  Biso   1.000  H
  C2610    1.0000 0.69082  0.07654  0.70813  Biso   1.000  C
  H2684    1.0000 0.93353  0.35207  0.68397  Biso   1.000  H
  H2685    1.0000 0.97043  0.32044  0.67857  Biso   1.000  H
  C2611    1.0000 0.87713  0.27048  0.67419  Biso   1.000  C
  H2686    1.0000 0.93351  0.35202  0.68397  Biso   1.000  H
  C2612    1.0000 0.87711  0.27043  0.67419  Biso   1.000  C
  C2613    1.0000 0.87324  0.98765  0.70085  Biso   1.000  C
  H2687    1.0000 0.96602  0.04136  0.70606  Biso   1.000  H
  H2688    1.0000 0.92325  0.00678  0.71807  Biso   1.000  H
  H2689    1.0000 0.92322  0.00674  0.71807  Biso   1.000  H
  H2690    1.0000 0.72032  0.12768  0.73127  Biso   1.000  H
  H2691    1.0000 0.72030  0.12763  0.73127  Biso   1.000  H
  C2614    1.0000 0.06263  0.39535  0.79337  Biso   1.000  C
  H2692    1.0000 0.97226  0.19679  0.76687  Biso   1.000  H
  H2693    1.0000 0.93774  0.15837  0.75437  Biso   1.000  H
  C2615    1.0000 0.89533  0.11294  0.77128  Biso   1.000  C
  H2694    1.0000 0.97223  0.19674  0.76687  Biso   1.000  H
  H2695    1.0000 0.93771  0.15833  0.75437  Biso   1.000  H
  H2696    1.0000 0.94474  0.35998  0.73527  Biso   1.000  H
  H2697    1.0000 0.97663  0.39507  0.74837  Biso   1.000  H
  C2616    1.0000 0.89933  0.40167  0.74365  Biso   1.000  C
  H2698    1.0000 0.94471  0.35993  0.73527  Biso   1.000  H
  H2699    1.0000 0.97660  0.39502  0.74837  Biso   1.000  H
  H2700    1.0000 0.35922  0.03537  0.77836  Biso   1.000  H
  H2701    1.0000 0.35919  0.03532  0.77836  Biso   1.000  H
  C2617    1.0000 0.31393  0.94147  0.77963  Biso   1.000  C
  C2618    1.0000 0.31390  0.94142  0.77963  Biso   1.000  C
  H2702    1.0000 0.22453  0.02774  0.76687  Biso   1.000  H
  H2703    1.0000 0.22064  0.06227  0.75437  Biso   1.000  H
  C2619    1.0000 0.21765  0.10466  0.77128  Biso   1.000  C
  H2704    1.0000 0.22062  0.06223  0.75437  Biso   1.000  H
  H2705    1.0000 0.41523  0.05526  0.73527  Biso   1.000  H
  H2706    1.0000 0.41844  0.02335  0.74837  Biso   1.000  H
  C2620    1.0000 0.50233  0.10069  0.74365  Biso   1.000  C
  C2621    1.0000 0.50230  0.10064  0.74365  Biso   1.000  C
  C2622    1.0000 0.27724  0.88916  0.77277  Biso   1.000  C
  H2707    1.0000 0.23184  0.85225  0.75566  Biso   1.000  H
  H2708    1.0000 0.11511  0.78094  0.73386  Biso   1.000  H
  H2709    1.0000 0.15261  0.82305  0.74587  Biso   1.000  H
  C2623    1.0000 0.09454  0.84986  0.73754  Biso   1.000  C
  H2710    1.0000 0.25702  0.83835  0.73757  Biso   1.000  H
  H2711    1.0000 0.21763  0.78955  0.72676  Biso   1.000  H
  C2624    1.0000 0.29554  0.86174  0.71987  Biso   1.000  C
  H2712    1.0000 0.12572  0.76157  0.71127  Biso   1.000  H
  C2625    1.0000 0.11814  0.80055  0.69474  Biso   1.000  C
  H2713    1.0000 0.12570  0.76153  0.71127  Biso   1.000  H
  H2714    1.0000 0.12294  0.86095  0.68086  Biso   1.000  H
  N108     1.0000 0.68500  0.06124  0.69593  Biso   1.000  N
  H2715    1.0000 0.87663  0.23188  0.67266  Biso   1.000  H
  H2716    1.0000 0.88094  0.29106  0.66597  Biso   1.000  H
  H2717    1.0000 0.83893  0.26205  0.67847  Biso   1.000  H
  H2718    1.0000 0.87661  0.23183  0.67266  Biso   1.000  H
  H2719    1.0000 0.83363  0.97366  0.70506  Biso   1.000  H
  H2720    1.0000 0.87743  0.95218  0.69856  Biso   1.000  H
  H2721    1.0000 0.87741  0.95214  0.69856  Biso   1.000  H
  H2722    1.0000 0.87542  0.01025  0.69307  Biso   1.000  H
  N109     1.0000 0.01624  0.38702  0.79996  Biso   1.000  N
  N110     1.0000 0.01622  0.38697  0.79996  Biso   1.000  N
  H2723    1.0000 0.85241  0.09016  0.76817  Biso   1.000  H
  H2724    1.0000 0.91344  0.08637  0.77007  Biso   1.000  H
  C2626    1.0000 0.89505  0.12487  0.78432  Biso   1.000  C
  H2725    1.0000 0.91342  0.08632  0.77007  Biso   1.000  H
  C2627    1.0000 0.89503  0.12483  0.78432  Biso   1.000  C
  H2726    1.0000 0.89112  0.41027  0.75247  Biso   1.000  H
  H2727    1.0000 0.85944  0.37528  0.73937  Biso   1.000  H
  C2628    1.0000 0.93851  0.46745  0.73553  Biso   1.000  C
  H2728    1.0000 0.89109  0.41023  0.75247  Biso   1.000  H
  H2729    1.0000 0.85941  0.37523  0.73937  Biso   1.000  H
  C2629    1.0000 0.33274  0.93735  0.79337  Biso   1.000  C
  H2730    1.0000 0.23772  0.14757  0.76817  Biso   1.000  H
  H2731    1.0000 0.17294  0.08656  0.77007  Biso   1.000  H
  C2630    1.0000 0.22984  0.10499  0.78432  Biso   1.000  C
  C2631    1.0000 0.22982  0.10494  0.78432  Biso   1.000  C
  H2732    1.0000 0.51914  0.10887  0.75247  Biso   1.000  H
  H2733    1.0000 0.51582  0.14055  0.73937  Biso   1.000  H
  C2632    1.0000 0.52896  0.06148  0.73553  Biso   1.000  C
  H2734    1.0000 0.51912  0.10883  0.75247  Biso   1.000  H
  C2633    1.0000 0.52893  0.06143  0.73553  Biso   1.000  C
  H2735    1.0000 0.26472  0.85075  0.77677  Biso   1.000  H
  H2736    1.0000 0.08585  0.85688  0.72857  Biso   1.000  H
  H2737    1.0000 0.11626  0.89038  0.74187  Biso   1.000  H
  C2634    1.0000 0.03204  0.80986  0.74456  Biso   1.000  C
  H2738    1.0000 0.08583  0.85683  0.72857  Biso   1.000  H
  H2739    1.0000 0.11624  0.89033  0.74187  Biso   1.000  H
  H2740    1.0000 0.27844  0.86174  0.71127  Biso   1.000  H
  H2741    1.0000 0.30936  0.83129  0.71937  Biso   1.000  H
  C2635    1.0000 0.35385  0.92318  0.72085  Biso   1.000  C
  H2742    1.0000 0.30934  0.83124  0.71937  Biso   1.000  H
  C2636    1.0000 0.35383  0.92313  0.72085  Biso   1.000  C
  C2637    1.0000 0.07954  0.74319  0.68706  Biso   1.000  C
  C2638    1.0000 0.07951  0.74314  0.68706  Biso   1.000  C
  C2639    1.0000 0.62194  0.03116  0.69050  Biso   1.000  C
  C2640    1.0000 0.02778  0.41285  0.81331  Biso   1.000  C
  C2641    1.0000 0.02775  0.41280  0.81331  Biso   1.000  C
  H2743    1.0000 0.93734  0.14729  0.78746  Biso   1.000  H
  H2744    1.0000 0.87214  0.08618  0.78896  Biso   1.000  H
  H2745    1.0000 0.87562  0.14986  0.78567  Biso   1.000  H
  H2746    1.0000 0.93731  0.14724  0.78746  Biso   1.000  H
  H2747    1.0000 0.87212  0.08613  0.78896  Biso   1.000  H
  H2748    1.0000 0.97633  0.49496  0.74017  Biso   1.000  H
  H2749    1.0000 0.91341  0.48696  0.73467  Biso   1.000  H
  H2750    1.0000 0.94894  0.45907  0.72697  Biso   1.000  H
  H2751    1.0000 0.94892  0.45903  0.72697  Biso   1.000  H
  N111     1.0000 0.37077  0.98376  0.79996  Biso   1.000  N
  H2752    1.0000 0.20993  0.06265  0.78746  Biso   1.000  H
  H2753    1.0000 0.21402  0.12787  0.78896  Biso   1.000  H
  H2754    1.0000 0.27421  0.12436  0.78567  Biso   1.000  H
  H2755    1.0000 0.21399  0.12782  0.78896  Biso   1.000  H
  H2756    1.0000 0.51864  0.02367  0.74017  Biso   1.000  H
  H2757    1.0000 0.57355  0.08656  0.73467  Biso   1.000  H
  H2758    1.0000 0.51013  0.05104  0.72697  Biso   1.000  H
  H2759    1.0000 0.51862  0.02363  0.74017  Biso   1.000  H
  C2642    1.0000 0.98746  0.75498  0.73884  Biso   1.000  C
  C2643    1.0000 0.98743  0.75493  0.73884  Biso   1.000  C
  H2760    1.0000 0.04123  0.79956  0.75316  Biso   1.000  H
  H2761    1.0000 0.01323  0.83578  0.74596  Biso   1.000  H
  H2762    1.0000 0.01321  0.83573  0.74596  Biso   1.000  H
  C2644    1.0000 0.40283  0.92706  0.71049  Biso   1.000  C
  H2763    1.0000 0.37112  0.92846  0.72957  Biso   1.000  H
  H2764    1.0000 0.34453  0.95649  0.71926  Biso   1.000  H
  H2765    1.0000 0.34451  0.95644  0.71926  Biso   1.000  H
  N112     1.0000 0.06722  0.69036  0.69083  Biso   1.000  N
  C2645    1.0000 0.61231  0.97455  0.68219  Biso   1.000  C
  H2766    1.0000 0.59133  0.01638  0.69767  Biso   1.000  H
  C2646    1.0000 0.61543  0.08127  0.68214  Biso   1.000  C
  H2767    1.0000 0.59131  0.01633  0.69767  Biso   1.000  H
  C2647    1.0000 0.61541  0.08122  0.68214  Biso   1.000  C
  H2768    1.0000 0.07074  0.42487  0.81576  Biso   1.000  H
  C2648    1.0000 0.02182  0.47054  0.81329  Biso   1.000  C
  H2769    1.0000 0.07072  0.42482  0.81576  Biso   1.000  H
  C2649    1.0000 0.02179  0.47049  0.81329  Biso   1.000  C
  C2650    1.0000 0.98295  0.36185  0.82261  Biso   1.000  C
  C2651    1.0000 0.98293  0.36180  0.82261  Biso   1.000  C
  C2652    1.0000 0.38505  0.97221  0.81331  Biso   1.000  C
  H2770    1.0000 0.97482  0.76415  0.73067  Biso   1.000  H
  H2771    1.0000 0.95194  0.73434  0.74456  Biso   1.000  H
  H2772    1.0000 0.00481  0.72826  0.73736  Biso   1.000  H
  H2773    1.0000 0.41392  0.89576  0.71237  Biso   1.000  H
  H2774    1.0000 0.43964  0.96776  0.71087  Biso   1.000  H
  H2775    1.0000 0.38505  0.92018  0.70187  Biso   1.000  H
  H2776    1.0000 0.38503  0.92013  0.70187  Biso   1.000  H
  C2653    1.0000 0.02545  0.63778  0.68219  Biso   1.000  C
  C2654    1.0000 0.02543  0.63773  0.68219  Biso   1.000  C
  N113     1.0000 0.62315  0.93277  0.69083  Biso   1.000  N
  H2777    1.0000 0.64312  0.98957  0.67507  Biso   1.000  H
  C2655    1.0000 0.54681  0.93876  0.67632  Biso   1.000  C
  C2656    1.0000 0.66223  0.11935  0.67341  Biso   1.000  C
  C2657    1.0000 0.56753  0.09105  0.68402  Biso   1.000  C
  C2658    1.0000 0.07143  0.52794  0.81511  Biso   1.000  C
  C2659    1.0000 0.96443  0.46637  0.81105  Biso   1.000  C
  C2660    1.0000 0.96440  0.46632  0.81105  Biso   1.000  C
  N114     1.0000 0.99337  0.30804  0.82158  Biso   1.000  N
  H2778    1.0000 0.94003  0.34838  0.81986  Biso   1.000  H
  C2661    1.0000 0.98995  0.38159  0.83682  Biso   1.000  C
  H2779    1.0000 0.94001  0.34833  0.81986  Biso   1.000  H
  C2662    1.0000 0.37892  0.01708  0.82261  Biso   1.000  C
  C2663    1.0000 0.37890  0.01703  0.82261  Biso   1.000  C
  H2780    1.0000 0.35413  0.92926  0.81576  Biso   1.000  H
  C2664    1.0000 0.44870  0.97820  0.81329  Biso   1.000  C
  C2665    1.0000 0.44868  0.97815  0.81329  Biso   1.000  C
  C2666    1.0000 0.96884  0.59076  0.69050  Biso   1.000  C
  H2781    1.0000 0.01043  0.65359  0.67507  Biso   1.000  H
  C2667    1.0000 0.06125  0.60807  0.67632  Biso   1.000  C
  H2782    1.0000 0.01040  0.65354  0.67507  Biso   1.000  H
  C2668    1.0000 0.66363  0.92046  0.68706  Biso   1.000  C
  C2669    1.0000 0.53823  0.93586  0.66304  Biso   1.000  C
  C2670    1.0000 0.49462  0.90675  0.68391  Biso   1.000  C
  H2783    1.0000 0.69472  0.11107  0.67207  Biso   1.000  H
  C2671    1.0000 0.66432  0.16745  0.66666  Biso   1.000  C
  H2784    1.0000 0.69469  0.11103  0.67207  Biso   1.000  H
  H2785    1.0000 0.53513  0.06597  0.68967  Biso   1.000  H
  C2672    1.0000 0.56742  0.14336  0.67675  Biso   1.000  C
  H2786    1.0000 0.53511  0.06592  0.68967  Biso   1.000  H
  H2787    1.0000 0.11032  0.53215  0.81686  Biso   1.000  H
  C2673    1.0000 0.06583  0.58198  0.81444  Biso   1.000  C
  C2674    1.0000 0.06581  0.58194  0.81444  Biso   1.000  C
  H2788    1.0000 0.92883  0.42735  0.81007  Biso   1.000  H
  C2675    1.0000 0.95962  0.51957  0.81026  Biso   1.000  C
  C2676    1.0000 0.95960  0.51952  0.81026  Biso   1.000  C
  C2677    1.0000 0.94583  0.25504  0.81977  Biso   1.000  C
  C2678    1.0000 0.94581  0.25499  0.81977  Biso   1.000  C
  C2679    1.0000 0.04111  0.39025  0.84409  Biso   1.000  C
  C2680    1.0000 0.04109  0.39020  0.84409  Biso   1.000  C
  C2681    1.0000 0.94353  0.38786  0.84312  Biso   1.000  C
  N115     1.0000 0.31471  0.00664  0.82158  Biso   1.000  N
  H2789    1.0000 0.40835  0.05998  0.81986  Biso   1.000  H
  C2682    1.0000 0.39166  0.01006  0.83682  Biso   1.000  C
  H2790    1.0000 0.40833  0.05993  0.81986  Biso   1.000  H
  C2683    1.0000 0.39164  0.01001  0.83682  Biso   1.000  C
  C2684    1.0000 0.50194  0.03556  0.81105  Biso   1.000  C
  C2685    1.0000 0.45654  0.92856  0.81511  Biso   1.000  C
  N116     1.0000 0.93876  0.62379  0.69593  Biso   1.000  N
  H2791    1.0000 0.98364  0.57499  0.69767  Biso   1.000  H
  C2686    1.0000 0.91876  0.53419  0.68214  Biso   1.000  C
  N117     1.0000 0.93873  0.62374  0.69593  Biso   1.000  N
  H2792    1.0000 0.98362  0.57494  0.69767  Biso   1.000  H
  C2687    1.0000 0.91873  0.53414  0.68214  Biso   1.000  C
  C2688    1.0000 0.06415  0.60236  0.66304  Biso   1.000  C
  C2689    1.0000 0.09324  0.58785  0.68391  Biso   1.000  C
  C2690    1.0000 0.68242  0.88186  0.69474  Biso   1.000  C
  H2793    1.0000 0.57262  0.95625  0.65756  Biso   1.000  H
  C2691    1.0000 0.47883  0.90287  0.65770  Biso   1.000  C
  C2692    1.0000 0.47880  0.90282  0.65770  Biso   1.000  C
  H2794    1.0000 0.49913  0.90685  0.69296  Biso   1.000  H
  C2693    1.0000 0.43582  0.87447  0.67861  Biso   1.000  C
  C2694    1.0000 0.43579  0.87442  0.67861  Biso   1.000  C
  C2695    1.0000 0.61520  0.17554  0.66860  Biso   1.000  C
  H2795    1.0000 0.69733  0.19295  0.66116  Biso   1.000  H
  H2796    1.0000 0.53586  0.15309  0.67786  Biso   1.000  H
  H2797    1.0000 0.53584  0.15304  0.67786  Biso   1.000  H
  H2798    1.0000 0.10063  0.62128  0.81567  Biso   1.000  H
  C2696    1.0000 0.00842  0.57567  0.81195  Biso   1.000  C
  H2799    1.0000 0.10061  0.62124  0.81567  Biso   1.000  H
  H2800    1.0000 0.92093  0.51569  0.80847  Biso   1.000  H
  H2801    1.0000 0.92091  0.51564  0.80847  Biso   1.000  H
  C2697    1.0000 0.94965  0.19777  0.81900  Biso   1.000  C
  H2802    1.0000 0.07325  0.38726  0.84006  Biso   1.000  H
  C2698    1.0000 0.04482  0.40358  0.85750  Biso   1.000  C
  C2699    1.0000 0.04480  0.40354  0.85750  Biso   1.000  C
  H2803    1.0000 0.90903  0.38225  0.83837  Biso   1.000  H
  C2700    1.0000 0.94704  0.40185  0.85625  Biso   1.000  C
  C2701    1.0000 0.30922  0.05418  0.81977  Biso   1.000  C
  C2702    1.0000 0.44432  0.05647  0.84312  Biso   1.000  C
  C2703    1.0000 0.44430  0.05642  0.84312  Biso   1.000  C
  C2704    1.0000 0.34913  0.95887  0.84409  Biso   1.000  C
  H2804    1.0000 0.49855  0.07116  0.81007  Biso   1.000  H
  C2705    1.0000 0.55994  0.04038  0.81026  Biso   1.000  C
  C2706    1.0000 0.55991  0.04033  0.81026  Biso   1.000  C
  H2805    1.0000 0.42182  0.88968  0.81686  Biso   1.000  H
  C2707    1.0000 0.51615  0.93417  0.81444  Biso   1.000  C
  H2806    1.0000 0.42180  0.88963  0.81686  Biso   1.000  H
  C2708    1.0000 0.51613  0.93412  0.81444  Biso   1.000  C
  C2709    1.0000 0.92343  0.61429  0.70813  Biso   1.000  C
  C2710    1.0000 0.92341  0.61424  0.70813  Biso   1.000  C
  C2711    1.0000 0.88062  0.54285  0.67341  Biso   1.000  C
  C2712    1.0000 0.90893  0.47645  0.68402  Biso   1.000  C
  H2807    1.0000 0.04371  0.61635  0.65756  Biso   1.000  H
  C2713    1.0000 0.09714  0.57597  0.65770  Biso   1.000  C
  C2714    1.0000 0.09712  0.57592  0.65770  Biso   1.000  C
  H2808    1.0000 0.09313  0.59225  0.69296  Biso   1.000  H
  C2715    1.0000 0.12554  0.56137  0.67861  Biso   1.000  C
  C2716    1.0000 0.12552  0.56133  0.67861  Biso   1.000  C
  C2717    1.0000 0.66273  0.86315  0.70730  Biso   1.000  C
  C2718    1.0000 0.72364  0.86446  0.68938  Biso   1.000  C
  H2809    1.0000 0.47425  0.90076  0.64867  Biso   1.000  H
  C2719    1.0000 0.42864  0.87438  0.66520  Biso   1.000  C
  C2720    1.0000 0.42862  0.87433  0.66520  Biso   1.000  C
  H2810    1.0000 0.40114  0.85276  0.68397  Biso   1.000  H
  H2811    1.0000 0.61424  0.20684  0.66377  Biso   1.000  H
  H2812    1.0000 0.00392  0.61076  0.81147  Biso   1.000  H
  C2721    1.0000 0.00641  0.19824  0.81886  Biso   1.000  C
  C2722    1.0000 0.89463  0.13999  0.81889  Biso   1.000  C
  H2813    1.0000 0.07882  0.40878  0.86247  Biso   1.000  H
  H2814    1.0000 0.07880  0.40873  0.86247  Biso   1.000  H
  C2723    1.0000 0.99653  0.40887  0.86335  Biso   1.000  C
  C2724    1.0000 0.99651  0.40882  0.86335  Biso   1.000  C
  H2815    1.0000 0.91564  0.40648  0.86026  Biso   1.000  H
  H2816    1.0000 0.91562  0.40644  0.86026  Biso   1.000  H
  C2725    1.0000 0.24815  0.05034  0.81900  Biso   1.000  C
  C2726    1.0000 0.24812  0.05030  0.81900  Biso   1.000  C
  H2817    1.0000 0.47323  0.09095  0.83837  Biso   1.000  H
  C2727    1.0000 0.45484  0.05296  0.85625  Biso   1.000  C
  H2818    1.0000 0.31404  0.92678  0.84006  Biso   1.000  H
  C2728    1.0000 0.35875  0.95518  0.85750  Biso   1.000  C
  H2819    1.0000 0.31401  0.92673  0.84006  Biso   1.000  H
  C2729    1.0000 0.35872  0.95513  0.85750  Biso   1.000  C
  H2820    1.0000 0.59472  0.07907  0.80847  Biso   1.000  H
  H2821    1.0000 0.59470  0.07902  0.80847  Biso   1.000  H
  C2730    1.0000 0.56722  0.99158  0.81195  Biso   1.000  C
  C2731    1.0000 0.56720  0.99153  0.81195  Biso   1.000  C
  H2822    1.0000 0.52063  0.89936  0.81567  Biso   1.000  H
  C2732    1.0000 0.88652  0.63965  0.71408  Biso   1.000  C
  H2823    1.0000 0.88890  0.58364  0.67207  Biso   1.000  H
  C2733    1.0000 0.83254  0.49685  0.66666  Biso   1.000  C
  H2824    1.0000 0.93401  0.46916  0.68967  Biso   1.000  H
  C2734    1.0000 0.85664  0.42405  0.67675  Biso   1.000  C
  H2825    1.0000 0.09924  0.57344  0.64867  Biso   1.000  H
  C2735    1.0000 0.12563  0.55426  0.66520  Biso   1.000  C
  H2826    1.0000 0.14724  0.54837  0.68397  Biso   1.000  H
  H2827    1.0000 0.63585  0.87428  0.71127  Biso   1.000  H
  C2736    1.0000 0.68251  0.82726  0.71410  Biso   1.000  C
  H2828    1.0000 0.63582  0.87424  0.71127  Biso   1.000  H
  H2829    1.0000 0.73804  0.87704  0.68086  Biso   1.000  H
  C2737    1.0000 0.74395  0.82979  0.69610  Biso   1.000  C
  C2738    1.0000 0.74392  0.82974  0.69610  Biso   1.000  C
  H2830    1.0000 0.38896  0.85459  0.66147  Biso   1.000  H
  H2831    1.0000 0.38894  0.85454  0.66147  Biso   1.000  H
  H2832    1.0000 0.04386  0.23618  0.81886  Biso   1.000  H
  C2739    1.0000 0.00756  0.14364  0.81873  Biso   1.000  C
  H2833    1.0000 0.04384  0.23613  0.81886  Biso   1.000  H
  C2740    1.0000 0.00753  0.14359  0.81873  Biso   1.000  C
  H2834    1.0000 0.85624  0.13858  0.81886  Biso   1.000  H
  C2741    1.0000 0.89590  0.08492  0.81879  Biso   1.000  C
  H2835    1.0000 0.85622  0.13854  0.81886  Biso   1.000  H
  C2742    1.0000 0.89588  0.08487  0.81879  Biso   1.000  C
  H2836    1.0000 0.99845  0.41748  0.87227  Biso   1.000  H
  H2837    1.0000 0.99842  0.41743  0.87227  Biso   1.000  H
  C2743    1.0000 0.24535  0.10536  0.81889  Biso   1.000  C
  C2744    1.0000 0.19185  0.99359  0.81886  Biso   1.000  C
  C2745    1.0000 0.19183  0.99354  0.81886  Biso   1.000  C
  C2746    1.0000 0.41235  0.00346  0.86335  Biso   1.000  C
  H2838    1.0000 0.49084  0.08436  0.86026  Biso   1.000  H
  H2839    1.0000 0.32995  0.92116  0.86247  Biso   1.000  H
  H2840    1.0000 0.60683  0.99607  0.81147  Biso   1.000  H
  H2841    1.0000 0.60680  0.99602  0.81147  Biso   1.000  H
  C2747    1.0000 0.87024  0.67815  0.70745  Biso   1.000  C
  C2748    1.0000 0.86254  0.61958  0.72682  Biso   1.000  C
  C2749    1.0000 0.86252  0.61953  0.72682  Biso   1.000  C
  C2750    1.0000 0.82446  0.43968  0.66860  Biso   1.000  C
  H2842    1.0000 0.80706  0.50439  0.66116  Biso   1.000  H
  C2751    1.0000 0.82444  0.43963  0.66860  Biso   1.000  C
  H2843    1.0000 0.80703  0.50434  0.66116  Biso   1.000  H
  H2844    1.0000 0.84694  0.38279  0.67786  Biso   1.000  H
  H2845    1.0000 0.84692  0.38274  0.67786  Biso   1.000  H
  H2846    1.0000 0.14543  0.53438  0.66147  Biso   1.000  H
  H2847    1.0000 0.14541  0.53433  0.66147  Biso   1.000  H
  C2752    1.0000 0.72281  0.81005  0.70898  Biso   1.000  C
  C2753    1.0000 0.66452  0.80368  0.72809  Biso   1.000  C
  C2754    1.0000 0.66450  0.80364  0.72809  Biso   1.000  C
  H2848    1.0000 0.77151  0.81936  0.69217  Biso   1.000  H
  C2755    1.0000 0.06496  0.13648  0.81888  Biso   1.000  C
  C2756    1.0000 0.95265  0.08520  0.81872  Biso   1.000  C
  H2849    1.0000 0.85854  0.04697  0.81876  Biso   1.000  H
  H2850    1.0000 0.85851  0.04693  0.81876  Biso   1.000  H
  H2851    1.0000 0.28234  0.14378  0.81886  Biso   1.000  H
  C2757    1.0000 0.18900  0.10410  0.81879  Biso   1.000  C
  H2852    1.0000 0.28232  0.14373  0.81886  Biso   1.000  H
  H2853    1.0000 0.19234  0.95616  0.81886  Biso   1.000  H
  C2758    1.0000 0.13610  0.99247  0.81873  Biso   1.000  C
  C2759    1.0000 0.13608  0.99242  0.81873  Biso   1.000  C
  H2854    1.0000 0.41901  0.00154  0.87227  Biso   1.000  H
  H2855    1.0000 0.88502  0.69135  0.69896  Biso   1.000  H
  C2760    1.0000 0.83156  0.69748  0.71340  Biso   1.000  C
  C2761    1.0000 0.83153  0.69743  0.71340  Biso   1.000  C
  H2856    1.0000 0.87235  0.59267  0.73127  Biso   1.000  H
  C2762    1.0000 0.82525  0.63866  0.73276  Biso   1.000  C
  H2857    1.0000 0.87233  0.59263  0.73127  Biso   1.000  H
  H2858    1.0000 0.79314  0.40735  0.66377  Biso   1.000  H
  C2763    1.0000 0.73465  0.77238  0.71871  Biso   1.000  C
  C2764    1.0000 0.73463  0.77233  0.71871  Biso   1.000  C
  C2765    1.0000 0.68553  0.86165  0.73699  Biso   1.000  C
  C2766    1.0000 0.59221  0.75825  0.72863  Biso   1.000  C
  C2767    1.0000 0.69933  0.76836  0.73010  Biso   1.000  C
  C2768    1.0000 0.03617  0.06578  0.81865  Biso   1.000  C
  C2769    1.0000 0.10457  0.16862  0.80649  Biso   1.000  C
  C2770    1.0000 0.10194  0.16572  0.83183  Biso   1.000  C
  C2771    1.0000 0.03615  0.06574  0.81865  Biso   1.000  C
  C2772    1.0000 0.96990  0.03607  0.81850  Biso   1.000  C
  C2773    1.0000 0.13255  0.04735  0.81872  Biso   1.000  C
  H2859    1.0000 0.18845  0.14148  0.81876  Biso   1.000  H
  C2774    1.0000 0.13252  0.04730  0.81872  Biso   1.000  C
  H2860    1.0000 0.18843  0.14144  0.81876  Biso   1.000  H
  C2775    1.0000 0.07154  0.93506  0.81888  Biso   1.000  C
  C2776    1.0000 0.07152  0.93501  0.81888  Biso   1.000  C
  C2777    1.0000 0.80924  0.67909  0.72606  Biso   1.000  C
  C2778    1.0000 0.80945  0.73818  0.70741  Biso   1.000  C
  C2779    1.0000 0.80921  0.67904  0.72606  Biso   1.000  C
  C2780    1.0000 0.80942  0.73813  0.70741  Biso   1.000  C
  H2861    1.0000 0.81030  0.62514  0.74117  Biso   1.000  H
  C2781    1.0000 0.76916  0.74188  0.71848  Biso   1.000  C
  C2782    1.0000 0.76913  0.74183  0.71848  Biso   1.000  C
  H2862    1.0000 0.66585  0.88486  0.73386  Biso   1.000  H
  H2863    1.0000 0.67045  0.84738  0.74587  Biso   1.000  H
  C2783    1.0000 0.75532  0.90544  0.73754  Biso   1.000  C
  H2864    1.0000 0.67043  0.84733  0.74587  Biso   1.000  H
  H2865    1.0000 0.58132  0.74295  0.73757  Biso   1.000  H
  H2866    1.0000 0.57193  0.78235  0.72676  Biso   1.000  H
  C2784    1.0000 0.56624  0.70445  0.71987  Biso   1.000  C
  C2785    1.0000 0.70233  0.73659  0.74106  Biso   1.000  C
  C2786    1.0000 0.70231  0.73654  0.74106  Biso   1.000  C
  C2787    1.0000 0.06618  0.03008  0.81850  Biso   1.000  C
  H2867    1.0000 0.11673  0.21255  0.80666  Biso   1.000  H
  H2868    1.0000 0.14253  0.16619  0.80687  Biso   1.000  H
  C2788    1.0000 0.07262  0.14167  0.79386  Biso   1.000  C
  H2869    1.0000 0.14251  0.16614  0.80687  Biso   1.000  H
  C2789    1.0000 0.07259  0.14162  0.79386  Biso   1.000  C
  H2870    1.0000 0.13684  0.15805  0.83227  Biso   1.000  H
  H2871    1.0000 0.11916  0.21068  0.83146  Biso   1.000  H
  C2790    1.0000 0.06364  0.14097  0.84427  Biso   1.000  C
  H2872    1.0000 0.11913  0.21063  0.83146  Biso   1.000  H
  C2791    1.0000 0.06361  0.14092  0.84427  Biso   1.000  C
  C2792    1.0000 0.93424  0.97043  0.81865  Biso   1.000  C
  C2793    1.0000 0.93422  0.97038  0.81865  Biso   1.000  C
  C2794    1.0000 0.06409  0.89543  0.80649  Biso   1.000  C
  C2795    1.0000 0.06377  0.89805  0.83183  Biso   1.000  C
  C2796    1.0000 0.02961  0.96383  0.81865  Biso   1.000  C
  C2797    1.0000 0.06406  0.89538  0.80649  Biso   1.000  C
  C2798    1.0000 0.06375  0.89800  0.83183  Biso   1.000  C
  C2799    1.0000 0.02958  0.96379  0.81865  Biso   1.000  C
  C2800    1.0000 0.76983  0.70725  0.72947  Biso   1.000  C
  C2801    1.0000 0.76974  0.70608  0.69510  Biso   1.000  C
  C2802    1.0000 0.86612  0.80176  0.70381  Biso   1.000  C
  C2803    1.0000 0.76971  0.70604  0.69510  Biso   1.000  C
  H2873    1.0000 0.77101  0.91415  0.72857  Biso   1.000  H
  H2874    1.0000 0.77414  0.88378  0.74187  Biso   1.000  H
  C2804    1.0000 0.77782  0.96795  0.74456  Biso   1.000  C
  H2875    1.0000 0.77412  0.88373  0.74187  Biso   1.000  H
  H2876    1.0000 0.58335  0.72157  0.71127  Biso   1.000  H
  H2877    1.0000 0.52190  0.69065  0.71937  Biso   1.000  H
  C2805    1.0000 0.56931  0.64615  0.72085  Biso   1.000  C
  H2878    1.0000 0.58333  0.72152  0.71127  Biso   1.000  H
  C2806    1.0000 0.67113  0.72386  0.75427  Biso   1.000  C
  C2807    1.0000 0.73613  0.70426  0.74065  Biso   1.000  C
  H2879    1.0000 0.03204  0.13896  0.79417  Biso   1.000  H
  H2880    1.0000 0.06515  0.09919  0.79327  Biso   1.000  H
  C2808    1.0000 0.10632  0.17667  0.78081  Biso   1.000  C
  H2881    1.0000 0.06513  0.09914  0.79327  Biso   1.000  H
  C2809    1.0000 0.10630  0.17662  0.78081  Biso   1.000  C
  H2882    1.0000 0.04701  0.09605  0.84466  Biso   1.000  H
  H2883    1.0000 0.02846  0.14808  0.84377  Biso   1.000  H
  C2810    1.0000 0.09934  0.17016  0.85694  Biso   1.000  C
  H2884    1.0000 0.02843  0.14803  0.84377  Biso   1.000  H
  C2811    1.0000 0.96392  0.93384  0.81850  Biso   1.000  C
  C2812    1.0000 0.86350  0.92846  0.81888  Biso   1.000  C
  C2813    1.0000 0.96390  0.93380  0.81850  Biso   1.000  C
  H2885    1.0000 0.09585  0.88327  0.80666  Biso   1.000  H
  H2886    1.0000 0.02364  0.85749  0.80687  Biso   1.000  H
  C2814    1.0000 0.06904  0.92739  0.79386  Biso   1.000  C
  H2887    1.0000 0.02361  0.85744  0.80687  Biso   1.000  H
  C2815    1.0000 0.06902  0.92734  0.79386  Biso   1.000  C
  H2888    1.0000 0.02124  0.86315  0.83227  Biso   1.000  H
  H2889    1.0000 0.09153  0.88088  0.83146  Biso   1.000  H
  C2816    1.0000 0.07734  0.93637  0.84427  Biso   1.000  C
  H2890    1.0000 0.09151  0.88083  0.83146  Biso   1.000  H
  C2817    1.0000 0.07732  0.93632  0.84427  Biso   1.000  C
  H2891    1.0000 0.75544  0.73317  0.69157  Biso   1.000  H
  H2892    1.0000 0.79703  0.70337  0.68857  Biso   1.000  H
  C2818    1.0000 0.71696  0.64559  0.69659  Biso   1.000  C
  H2893    1.0000 0.75542  0.73313  0.69157  Biso   1.000  H
  H2894    1.0000 0.79700  0.70332  0.68857  Biso   1.000  H
  C2819    1.0000 0.71694  0.64554  0.69659  Biso   1.000  C
  H2895    1.0000 0.89132  0.79489  0.69746  Biso   1.000  H
  H2896    1.0000 0.85113  0.82698  0.69956  Biso   1.000  H
  C2820    1.0000 0.90675  0.83798  0.71487  Biso   1.000  C
  H2897    1.0000 0.89130  0.79484  0.69746  Biso   1.000  H
  H2898    1.0000 0.85111  0.82694  0.69956  Biso   1.000  H
  C2821    1.0000 0.90673  0.83793  0.71487  Biso   1.000  C
  H2899    1.0000 0.75832  0.95878  0.75316  Biso   1.000  H
  H2900    1.0000 0.82251  0.98676  0.74596  Biso   1.000  H
  H2901    1.0000 0.75830  0.95873  0.75316  Biso   1.000  H
  C2822    1.0000 0.76756  0.01259  0.73884  Biso   1.000  C
  C2823    1.0000 0.76753  0.01254  0.73884  Biso   1.000  C
  C2824    1.0000 0.52423  0.59716  0.71049  Biso   1.000  C
  H2902    1.0000 0.55735  0.62889  0.72957  Biso   1.000  H
  H2903    1.0000 0.61193  0.65546  0.71926  Biso   1.000  H
  H2904    1.0000 0.55733  0.62884  0.72957  Biso   1.000  H
  C2825    1.0000 0.68702  0.68555  0.76110  Biso   1.000  C
  C2826    1.0000 0.63225  0.74286  0.76011  Biso   1.000  C
  C2827    1.0000 0.72814  0.66786  0.75353  Biso   1.000  C
  H2905    1.0000 0.14816  0.18238  0.78057  Biso   1.000  H
  H2906    1.0000 0.08333  0.15126  0.77336  Biso   1.000  H
  C2828    1.0000 0.11045  0.24067  0.77987  Biso   1.000  C
  H2907    1.0000 0.14813  0.18233  0.78057  Biso   1.000  H
  C2829    1.0000 0.11043  0.24062  0.77987  Biso   1.000  C
  H2908    1.0000 0.11033  0.21377  0.85747  Biso   1.000  H
  H2909    1.0000 0.13752  0.16815  0.85717  Biso   1.000  H
  C2830    1.0000 0.05346  0.13058  0.86941  Biso   1.000  C
  H2910    1.0000 0.11031  0.21372  0.85747  Biso   1.000  H
  C2831    1.0000 0.05344  0.13054  0.86941  Biso   1.000  C
  C2832    1.0000 0.91480  0.86745  0.81872  Biso   1.000  C
  C2833    1.0000 0.91478  0.86741  0.81872  Biso   1.000  C
  C2834    1.0000 0.85638  0.86390  0.81873  Biso   1.000  C
  C2835    1.0000 0.83139  0.93595  0.80649  Biso   1.000  C
  C2836    1.0000 0.83428  0.93623  0.83183  Biso   1.000  C
  C2837    1.0000 0.83136  0.93590  0.80649  Biso   1.000  C
  C2838    1.0000 0.83426  0.93618  0.83183  Biso   1.000  C
  H2911    1.0000 0.10691  0.96795  0.79417  Biso   1.000  H
  H2912    1.0000 0.03405  0.93487  0.79327  Biso   1.000  H
  C2839    1.0000 0.07033  0.89365  0.78081  Biso   1.000  C
  H2913    1.0000 0.03403  0.93483  0.79327  Biso   1.000  H
  H2914    1.0000 0.04906  0.95298  0.84466  Biso   1.000  H
  H2915    1.0000 0.11961  0.97155  0.84377  Biso   1.000  H
  C2840    1.0000 0.07084  0.90067  0.85694  Biso   1.000  C
  H2916    1.0000 0.04904  0.95293  0.84466  Biso   1.000  H
  C2841    1.0000 0.07081  0.90062  0.85694  Biso   1.000  C
  H2917    1.0000 0.68622  0.64755  0.70217  Biso   1.000  H
  H2918    1.0000 0.72930  0.61784  0.70067  Biso   1.000  H
  C2842    1.0000 0.68772  0.61976  0.68285  Biso   1.000  C
  H2919    1.0000 0.91634  0.81089  0.72007  Biso   1.000  H
  H2920    1.0000 0.88433  0.85197  0.72047  Biso   1.000  H
  C2843    1.0000 0.96903  0.89576  0.71031  Biso   1.000  C
  H2921    1.0000 0.91632  0.81084  0.72007  Biso   1.000  H
  H2922    1.0000 0.72344  0.99518  0.73736  Biso   1.000  H
  H2923    1.0000 0.72342  0.99513  0.73736  Biso   1.000  H
  H2924    1.0000 0.78933  0.02517  0.73067  Biso   1.000  H
  H2925    1.0000 0.78241  0.04805  0.74456  Biso   1.000  H
  H2926    1.0000 0.78930  0.02512  0.73067  Biso   1.000  H
  H2927    1.0000 0.48186  0.58608  0.71237  Biso   1.000  H
  H2928    1.0000 0.52811  0.56034  0.71087  Biso   1.000  H
  H2929    1.0000 0.53511  0.61494  0.70187  Biso   1.000  H
  H2930    1.0000 0.48183  0.58603  0.71237  Biso   1.000  H
  C2844    1.0000 0.66524  0.66655  0.77381  Biso   1.000  C
  C2845    1.0000 0.61196  0.72279  0.77277  Biso   1.000  C
  H2931    1.0000 0.62043  0.76817  0.75566  Biso   1.000  H
  C2846    1.0000 0.61194  0.72274  0.77277  Biso   1.000  C
  H2932    1.0000 0.62041  0.76812  0.75566  Biso   1.000  H
  C2847    1.0000 0.78904  0.69055  0.76116  Biso   1.000  C
  C2848    1.0000 0.69203  0.59548  0.75144  Biso   1.000  C
  C2849    1.0000 0.69200  0.59543  0.75144  Biso   1.000  C
  H2933    1.0000 0.06953  0.23557  0.78107  Biso   1.000  H
  H2934    1.0000 0.12643  0.25868  0.77147  Biso   1.000  H
  H2935    1.0000 0.13785  0.26767  0.78656  Biso   1.000  H
  H2936    1.0000 0.06950  0.23553  0.78107  Biso   1.000  H
  H2937    1.0000 0.12640  0.25864  0.77147  Biso   1.000  H
  H2938    1.0000 0.13782  0.26762  0.78656  Biso   1.000  H
  H2939    1.0000 0.01623  0.13376  0.86917  Biso   1.000  H
  H2940    1.0000 0.07515  0.14747  0.87746  Biso   1.000  H
  H2941    1.0000 0.04222  0.08735  0.86877  Biso   1.000  H
  H2942    1.0000 0.07513  0.14743  0.87746  Biso   1.000  H
  C2850    1.0000 0.91509  0.81098  0.81879  Biso   1.000  C
  C2851    1.0000 0.80174  0.80817  0.81886  Biso   1.000  C
  C2852    1.0000 0.80171  0.80813  0.81886  Biso   1.000  C
  H2943    1.0000 0.78742  0.90418  0.80666  Biso   1.000  H
  H2944    1.0000 0.83385  0.97637  0.80687  Biso   1.000  H
  C2853    1.0000 0.85836  0.93099  0.79386  Biso   1.000  C
  H2945    1.0000 0.78740  0.90413  0.80666  Biso   1.000  H
  H2946    1.0000 0.83383  0.97633  0.80687  Biso   1.000  H
  C2854    1.0000 0.85834  0.93094  0.79386  Biso   1.000  C
  H2947    1.0000 0.84193  0.97876  0.83227  Biso   1.000  H
  H2948    1.0000 0.78933  0.90848  0.83146  Biso   1.000  H
  C2855    1.0000 0.85902  0.92266  0.84427  Biso   1.000  C
  H2949    1.0000 0.78931  0.90844  0.83146  Biso   1.000  H
  H2950    1.0000 0.03424  0.85187  0.78057  Biso   1.000  H
  H2951    1.0000 0.06794  0.91667  0.77336  Biso   1.000  H
  C2856    1.0000 0.13025  0.88958  0.77987  Biso   1.000  C
  H2952    1.0000 0.03422  0.85183  0.78057  Biso   1.000  H
  H2953    1.0000 0.06792  0.91663  0.77336  Biso   1.000  H
  C2857    1.0000 0.13022  0.88954  0.77987  Biso   1.000  C
  H2954    1.0000 0.10343  0.88968  0.85747  Biso   1.000  H
  H2955    1.0000 0.03062  0.86245  0.85717  Biso   1.000  H
  C2858    1.0000 0.07713  0.94657  0.86941  Biso   1.000  C
  H2956    1.0000 0.10340  0.88963  0.85747  Biso   1.000  H
  C2859    1.0000 0.07711  0.94652  0.86941  Biso   1.000  C
  H2957    1.0000 0.64793  0.58144  0.68397  Biso   1.000  H
  H2958    1.0000 0.67953  0.64999  0.67857  Biso   1.000  H
  C2860    1.0000 0.72955  0.60666  0.67419  Biso   1.000  C
  H2959    1.0000 0.67951  0.64994  0.67857  Biso   1.000  H
  H2960    1.0000 0.95865  0.92467  0.70606  Biso   1.000  H
  H2961    1.0000 0.99325  0.91649  0.71807  Biso   1.000  H
  H2962    1.0000 0.95863  0.92463  0.70606  Biso   1.000  H
  H2963    1.0000 0.99323  0.91644  0.71807  Biso   1.000  H
  C2861    1.0000 0.01231  0.88556  0.70085  Biso   1.000  C
  H2964    1.0000 0.67614  0.64077  0.77836  Biso   1.000  H
  C2862    1.0000 0.62751  0.68606  0.77963  Biso   1.000  C
  H2965    1.0000 0.67612  0.64072  0.77836  Biso   1.000  H
  H2966    1.0000 0.58604  0.73528  0.77677  Biso   1.000  H
  H2967    1.0000 0.58601  0.73523  0.77677  Biso   1.000  H
  H2968    1.0000 0.77874  0.67118  0.76976  Biso   1.000  H
  H2969    1.0000 0.81382  0.67577  0.75666  Biso   1.000  H
  C2863    1.0000 0.82892  0.76026  0.76297  Biso   1.000  C
  H2970    1.0000 0.77872  0.67113  0.76976  Biso   1.000  H
  H2971    1.0000 0.71944  0.58435  0.74677  Biso   1.000  H
  H2972    1.0000 0.68363  0.57569  0.75997  Biso   1.000  H
  C2864    1.0000 0.63185  0.56848  0.74415  Biso   1.000  C
  H2973    1.0000 0.68361  0.57564  0.75997  Biso   1.000  H
  C2865    1.0000 0.63183  0.56844  0.74415  Biso   1.000  C
  C2866    1.0000 0.86002  0.75465  0.81889  Biso   1.000  C
  H2974    1.0000 0.95304  0.81159  0.81876  Biso   1.000  H
  C2867    1.0000 0.86000  0.75460  0.81889  Biso   1.000  C
  H2975    1.0000 0.95302  0.81154  0.81876  Biso   1.000  H
  C2868    1.0000 0.80220  0.75189  0.81900  Biso   1.000  C
  H2976    1.0000 0.76384  0.80766  0.81886  Biso   1.000  H
  C2869    1.0000 0.80218  0.75184  0.81900  Biso   1.000  C
  H2977    1.0000 0.86103  0.89305  0.79417  Biso   1.000  H
  H2978    1.0000 0.90086  0.96599  0.79327  Biso   1.000  H
  C2870    1.0000 0.82335  0.92968  0.78081  Biso   1.000  C
  H2979    1.0000 0.90084  0.96594  0.79327  Biso   1.000  H
  C2871    1.0000 0.82333  0.92963  0.78081  Biso   1.000  C
  H2980    1.0000 0.90393  0.95097  0.84466  Biso   1.000  H
  H2981    1.0000 0.85193  0.88037  0.84377  Biso   1.000  H
  C2872    1.0000 0.82982  0.92916  0.85694  Biso   1.000  C
  H2982    1.0000 0.90390  0.95092  0.84466  Biso   1.000  H
  H2983    1.0000 0.16605  0.93047  0.78107  Biso   1.000  H
  H2984    1.0000 0.13225  0.87358  0.77147  Biso   1.000  H
  H2985    1.0000 0.12983  0.86217  0.78656  Biso   1.000  H
  H2986    1.0000 0.16602  0.93043  0.78107  Biso   1.000  H
  H2987    1.0000 0.13223  0.87354  0.77147  Biso   1.000  H
  H2988    1.0000 0.11753  0.98376  0.86917  Biso   1.000  H
  H2989    1.0000 0.07232  0.92486  0.87746  Biso   1.000  H
  H2990    1.0000 0.04512  0.95775  0.86877  Biso   1.000  H
  H2991    1.0000 0.76812  0.64475  0.67266  Biso   1.000  H
  H2992    1.0000 0.70895  0.58987  0.66597  Biso   1.000  H
  H2993    1.0000 0.73794  0.57686  0.67847  Biso   1.000  H
  H2994    1.0000 0.98971  0.86516  0.69307  Biso   1.000  H
  H2995    1.0000 0.02634  0.85997  0.70506  Biso   1.000  H
  H2996    1.0000 0.04785  0.92528  0.69856  Biso   1.000  H
  H2997    1.0000 0.04783  0.92523  0.69856  Biso   1.000  H
  C2873    1.0000 0.60461  0.66725  0.79337  Biso   1.000  C
  H2998    1.0000 0.80325  0.77547  0.76687  Biso   1.000  H
  H2999    1.0000 0.84162  0.77935  0.75437  Biso   1.000  H
  C2874    1.0000 0.88704  0.78235  0.77128  Biso   1.000  C
  H3000    1.0000 0.80323  0.77542  0.76687  Biso   1.000  H
  H3001    1.0000 0.64003  0.58477  0.73527  Biso   1.000  H
  H3002    1.0000 0.60493  0.58158  0.74837  Biso   1.000  H
  C2875    1.0000 0.59834  0.49765  0.74365  Biso   1.000  C
  H3003    1.0000 0.60491  0.58154  0.74837  Biso   1.000  H
  H3004    1.0000 0.86144  0.71769  0.81886  Biso   1.000  H
  H3005    1.0000 0.86141  0.71764  0.81886  Biso   1.000  H
  C2876    1.0000 0.74499  0.69079  0.81977  Biso   1.000  C
  H3006    1.0000 0.81764  0.96575  0.78057  Biso   1.000  H
  H3007    1.0000 0.84873  0.93207  0.77336  Biso   1.000  H
  C2877    1.0000 0.75931  0.86975  0.77987  Biso   1.000  C
  H3008    1.0000 0.78624  0.89655  0.85747  Biso   1.000  H
  H3009    1.0000 0.83184  0.96935  0.85717  Biso   1.000  H
  C2878    1.0000 0.86941  0.92285  0.86941  Biso   1.000  C
  N118     1.0000 0.61299  0.62921  0.79996  Biso   1.000  N
  H3010    1.0000 0.90983  0.76228  0.76817  Biso   1.000  H
  H3011    1.0000 0.91362  0.82708  0.77007  Biso   1.000  H
  C2879    1.0000 0.87512  0.77018  0.78432  Biso   1.000  C
  H3012    1.0000 0.90980  0.76223  0.76817  Biso   1.000  H
  H3013    1.0000 0.91360  0.82703  0.77007  Biso   1.000  H
  C2880    1.0000 0.87510  0.77014  0.78432  Biso   1.000  C
  H3014    1.0000 0.58974  0.48085  0.75247  Biso   1.000  H
  H3015    1.0000 0.62475  0.48417  0.73937  Biso   1.000  H
  C2881    1.0000 0.53254  0.47107  0.73553  Biso   1.000  C
  H3016    1.0000 0.62472  0.48413  0.73937  Biso   1.000  H
  C2882    1.0000 0.53252  0.47103  0.73553  Biso   1.000  C
  N119     1.0000 0.69197  0.68531  0.82158  Biso   1.000  N
  N120     1.0000 0.69194  0.68526  0.82158  Biso   1.000  N
  H3017    1.0000 0.76442  0.83395  0.78107  Biso   1.000  H
  H3018    1.0000 0.74135  0.86778  0.77147  Biso   1.000  H
  H3019    1.0000 0.73233  0.87017  0.78656  Biso   1.000  H
  H3020    1.0000 0.74132  0.86773  0.77147  Biso   1.000  H
  H3021    1.0000 0.86624  0.88247  0.86917  Biso   1.000  H
  H3022    1.0000 0.85253  0.92767  0.87746  Biso   1.000  H
  H3023    1.0000 0.91264  0.95485  0.86877  Biso   1.000  H
  H3024    1.0000 0.86621  0.88242  0.86917  Biso   1.000  H
  H3025    1.0000 0.85251  0.92762  0.87746  Biso   1.000  H
  C2883    1.0000 0.58717  0.61494  0.81331  Biso   1.000  C
  H3026    1.0000 0.85273  0.79007  0.78746  Biso   1.000  H
  H3027    1.0000 0.91384  0.78595  0.78896  Biso   1.000  H
  H3028    1.0000 0.85013  0.72578  0.78567  Biso   1.000  H
  H3029    1.0000 0.85271  0.79002  0.78746  Biso   1.000  H
  H3030    1.0000 0.85010  0.72574  0.78567  Biso   1.000  H
  H3031    1.0000 0.50503  0.48137  0.74017  Biso   1.000  H
  H3032    1.0000 0.51304  0.42649  0.73467  Biso   1.000  H
  H3033    1.0000 0.54093  0.48988  0.72697  Biso   1.000  H
  H3034    1.0000 0.50500  0.48132  0.74017  Biso   1.000  H
  H3035    1.0000 0.51302  0.42644  0.73467  Biso   1.000  H
  H3036    1.0000 0.54091  0.48984  0.72697  Biso   1.000  H
  C2884    1.0000 0.63813  0.62107  0.82261  Biso   1.000  C
  H3037    1.0000 0.57512  0.64587  0.81576  Biso   1.000  H
  C2885    1.0000 0.52951  0.55131  0.81329  Biso   1.000  C
  H3038    1.0000 0.57510  0.64582  0.81576  Biso   1.000  H
  C2886    1.0000 0.52948  0.55127  0.81329  Biso   1.000  C
  H3039    1.0000 0.65162  0.59164  0.81986  Biso   1.000  H
  C2887    1.0000 0.61840  0.60835  0.83682  Biso   1.000  C
  C2888    1.0000 0.47201  0.54345  0.81511  Biso   1.000  C
  C2889    1.0000 0.53364  0.49807  0.81105  Biso   1.000  C
  C2890    1.0000 0.53361  0.49802  0.81105  Biso   1.000  C
  C2891    1.0000 0.60976  0.65088  0.84409  Biso   1.000  C
  C2892    1.0000 0.61215  0.55566  0.84312  Biso   1.000  C
  C2893    1.0000 0.60973  0.65083  0.84409  Biso   1.000  C
  H3040    1.0000 0.46785  0.57817  0.81686  Biso   1.000  H
  C2894    1.0000 0.41802  0.48385  0.81444  Biso   1.000  C
  H3041    1.0000 0.46783  0.57812  0.81686  Biso   1.000  H
  H3042    1.0000 0.57262  0.50149  0.81007  Biso   1.000  H
  C2895    1.0000 0.48044  0.44005  0.81026  Biso   1.000  C
  H3043    1.0000 0.57260  0.50144  0.81007  Biso   1.000  H
  H3044    1.0000 0.61272  0.68597  0.84006  Biso   1.000  H
  C2896    1.0000 0.59645  0.64128  0.85750  Biso   1.000  C
  C2897    1.0000 0.59643  0.64124  0.85750  Biso   1.000  C
  H3045    1.0000 0.61771  0.52675  0.83837  Biso   1.000  H
  C2898    1.0000 0.59816  0.54518  0.85625  Biso   1.000  C
  C2899    1.0000 0.59814  0.54514  0.85625  Biso   1.000  C
  H3046    1.0000 0.37874  0.47936  0.81567  Biso   1.000  H
  C2900    1.0000 0.42432  0.43276  0.81195  Biso   1.000  C
  H3047    1.0000 0.48431  0.40525  0.80847  Biso   1.000  H
  H3048    1.0000 0.59123  0.67006  0.86247  Biso   1.000  H
  C2901    1.0000 0.59112  0.58767  0.86335  Biso   1.000  C
  C2902    1.0000 0.59110  0.58762  0.86335  Biso   1.000  C
  H3049    1.0000 0.59352  0.50916  0.86026  Biso   1.000  H
  H3050    1.0000 0.38925  0.39317  0.81147  Biso   1.000  H
  H3051    1.0000 0.38923  0.39313  0.81147  Biso   1.000  H
  H3052    1.0000 0.58255  0.58098  0.87227  Biso   1.000  H
  H3053    1.0000 0.58252  0.58093  0.87227  Biso   1.000  H
  C2903    1.0000 0.42403  0.52116  0.65770  Biso   1.000  C
  H3054    1.0000 0.42653  0.52574  0.64867  Biso   1.000  H
  C2904    1.0000 0.44573  0.57136  0.66520  Biso   1.000  C
  C2905    1.0000 0.39763  0.46179  0.66304  Biso   1.000  C
  C2906    1.0000 0.39760  0.46174  0.66304  Biso   1.000  C
  C2907    1.0000 0.43864  0.56416  0.67861  Biso   1.000  C
  H3055    1.0000 0.46563  0.61108  0.66147  Biso   1.000  H
  H3056    1.0000 0.46561  0.61104  0.66147  Biso   1.000  H
  H3057    1.0000 0.38361  0.42735  0.65756  Biso   1.000  H
  C2908    1.0000 0.39195  0.45318  0.67632  Biso   1.000  C
  C2909    1.0000 0.39192  0.45313  0.67632  Biso   1.000  C
  C2910    1.0000 0.41211  0.50535  0.68391  Biso   1.000  C
  H3058    1.0000 0.45162  0.59887  0.68397  Biso   1.000  H
  H3059    1.0000 0.45160  0.59883  0.68397  Biso   1.000  H
  C2911    1.0000 0.36223  0.38768  0.68219  Biso   1.000  C
  C2912    1.0000 0.36221  0.38763  0.68219  Biso   1.000  C
  H3060    1.0000 0.40772  0.50085  0.69296  Biso   1.000  H
  H3061    1.0000 0.34641  0.35684  0.67507  Biso   1.000  H
  N121     1.0000 0.30963  0.37687  0.69083  Biso   1.000  N
  C2913    1.0000 0.40926  0.37808  0.69050  Biso   1.000  C
  N122     1.0000 0.30960  0.37682  0.69083  Biso   1.000  N
  C2914    1.0000 0.40924  0.37804  0.69050  Biso   1.000  C
  C2915    1.0000 0.25683  0.33635  0.68706  Biso   1.000  C
  N123     1.0000 0.37624  0.31497  0.69593  Biso   1.000  N
  H3062    1.0000 0.42505  0.40868  0.69767  Biso   1.000  H
  C2916    1.0000 0.46584  0.38459  0.68214  Biso   1.000  C
  H3063    1.0000 0.42502  0.40864  0.69767  Biso   1.000  H
  C2917    1.0000 0.46581  0.38454  0.68214  Biso   1.000  C
  C2918    1.0000 0.19943  0.31759  0.69474  Biso   1.000  C
  C2919    1.0000 0.19941  0.31754  0.69474  Biso   1.000  C
  C2920    1.0000 0.38574  0.30917  0.70813  Biso   1.000  C
  C2921    1.0000 0.38572  0.30912  0.70813  Biso   1.000  C
  C2922    1.0000 0.45713  0.33775  0.67341  Biso   1.000  C
  C2923    1.0000 0.52352  0.43245  0.68402  Biso   1.000  C
  C2924    1.0000 0.20045  0.33729  0.70730  Biso   1.000  C
  C2925    1.0000 0.14082  0.27637  0.68938  Biso   1.000  C
  C2926    1.0000 0.20043  0.33724  0.70730  Biso   1.000  C
  C2927    1.0000 0.14080  0.27632  0.68938  Biso   1.000  C
  C2928    1.0000 0.36034  0.24685  0.71408  Biso   1.000  C
  C2929    1.0000 0.50312  0.33565  0.66666  Biso   1.000  C
  H3064    1.0000 0.41634  0.30528  0.67207  Biso   1.000  H
  H3065    1.0000 0.41631  0.30524  0.67207  Biso   1.000  H
  C2930    1.0000 0.57592  0.43254  0.67675  Biso   1.000  C
  H3066    1.0000 0.53086  0.46487  0.68967  Biso   1.000  H
  H3067    1.0000 0.53083  0.46483  0.68967  Biso   1.000  H
  C2931    1.0000 0.14471  0.31745  0.71410  Biso   1.000  C
  H3068    1.0000 0.23846  0.36419  0.71127  Biso   1.000  H
  H3069    1.0000 0.23843  0.36414  0.71127  Biso   1.000  H
  H3070    1.0000 0.13904  0.26196  0.68086  Biso   1.000  H
  C2932    1.0000 0.08585  0.25606  0.69610  Biso   1.000  C
  C2933    1.0000 0.32184  0.19206  0.70745  Biso   1.000  C
  C2934    1.0000 0.38044  0.24296  0.72682  Biso   1.000  C
  H3071    1.0000 0.49562  0.30266  0.66116  Biso   1.000  H
  C2935    1.0000 0.56034  0.38478  0.66860  Biso   1.000  C
  C2936    1.0000 0.56031  0.38473  0.66860  Biso   1.000  C
  H3072    1.0000 0.61726  0.46417  0.67786  Biso   1.000  H
  H3073    1.0000 0.61723  0.46413  0.67786  Biso   1.000  H
  C2937    1.0000 0.08725  0.27717  0.70898  Biso   1.000  C
  C2938    1.0000 0.13912  0.33546  0.72809  Biso   1.000  C
  H3074    1.0000 0.04782  0.22846  0.69217  Biso   1.000  H
  H3075    1.0000 0.30862  0.19365  0.69896  Biso   1.000  H
  C2939    1.0000 0.30252  0.13404  0.71340  Biso   1.000  C
  H3076    1.0000 0.40733  0.27965  0.73127  Biso   1.000  H
  C2940    1.0000 0.36132  0.18659  0.73276  Biso   1.000  C
  C2941    1.0000 0.36130  0.18654  0.73276  Biso   1.000  C
  H3077    1.0000 0.59264  0.38576  0.66377  Biso   1.000  H
  C2942    1.0000 0.03775  0.26538  0.71871  Biso   1.000  C
  C2943    1.0000 0.03773  0.26533  0.71871  Biso   1.000  C
  C2944    1.0000 0.17611  0.31445  0.73699  Biso   1.000  C
  C2945    1.0000 0.16603  0.40775  0.72863  Biso   1.000  C
  C2946    1.0000 0.06905  0.30065  0.73010  Biso   1.000  C
  C2947    1.0000 0.32092  0.13016  0.72606  Biso   1.000  C
  C2948    1.0000 0.26184  0.07126  0.70741  Biso   1.000  C
  H3078    1.0000 0.37484  0.18518  0.74117  Biso   1.000  H
  H3079    1.0000 0.37482  0.18514  0.74117  Biso   1.000  H
  C2949    1.0000 0.97272  0.23085  0.71848  Biso   1.000  C
  H3080    1.0000 0.21902  0.33415  0.73386  Biso   1.000  H
  H3081    1.0000 0.17694  0.32957  0.74587  Biso   1.000  H
  C2950    1.0000 0.15012  0.24465  0.73754  Biso   1.000  C
  H3082    1.0000 0.16163  0.41865  0.73757  Biso   1.000  H
  H3083    1.0000 0.21042  0.42805  0.72676  Biso   1.000  H
  C2951    1.0000 0.13823  0.43376  0.71987  Biso   1.000  C
  C2952    1.0000 0.03424  0.29766  0.74106  Biso   1.000  C
  C2953    1.0000 0.29274  0.06255  0.72947  Biso   1.000  C
  C2954    1.0000 0.25813  0.02728  0.71848  Biso   1.000  C
  C2955    1.0000 0.29395  0.06368  0.69510  Biso   1.000  C
  C2956    1.0000 0.19823  0.06438  0.70381  Biso   1.000  C
  C2957    1.0000 0.25810  0.02723  0.71848  Biso   1.000  C
  C2958    1.0000 0.29393  0.06363  0.69510  Biso   1.000  C
  C2959    1.0000 0.19821  0.06433  0.70381  Biso   1.000  C
  C2960    1.0000 0.92875  0.19056  0.70741  Biso   1.000  C
  C2961    1.0000 0.93744  0.23014  0.72947  Biso   1.000  C
  C2962    1.0000 0.19012  0.22214  0.74456  Biso   1.000  C
  H3084    1.0000 0.14313  0.22898  0.72857  Biso   1.000  H
  H3085    1.0000 0.10966  0.22589  0.74187  Biso   1.000  H
  H3086    1.0000 0.14311  0.22893  0.72857  Biso   1.000  H
  H3087    1.0000 0.10964  0.22584  0.74187  Biso   1.000  H
  H3088    1.0000 0.13824  0.41668  0.71127  Biso   1.000  H
  H3089    1.0000 0.16873  0.47807  0.71937  Biso   1.000  H
  C2963    1.0000 0.07684  0.43067  0.72085  Biso   1.000  C
  H3090    1.0000 0.13822  0.41664  0.71127  Biso   1.000  H
  H3091    1.0000 0.16871  0.47802  0.71937  Biso   1.000  H
  C2964    1.0000 0.07682  0.43063  0.72085  Biso   1.000  C
  C2965    1.0000 0.05272  0.32887  0.75427  Biso   1.000  C
  C2966    1.0000 0.96812  0.26388  0.74065  Biso   1.000  C
  C2967    1.0000 0.96810  0.26383  0.74065  Biso   1.000  C
  C2968    1.0000 0.29571  0.03186  0.74065  Biso   1.000  C
  C2969    1.0000 0.22766  0.96229  0.71871  Biso   1.000  C
  C2970    1.0000 0.22764  0.96224  0.71871  Biso   1.000  C
  C2971    1.0000 0.35444  0.07135  0.69659  Biso   1.000  C
  H3092    1.0000 0.26685  0.02227  0.69157  Biso   1.000  H
  H3093    1.0000 0.29663  0.09367  0.68857  Biso   1.000  H
  H3094    1.0000 0.26683  0.02222  0.69157  Biso   1.000  H
  H3095    1.0000 0.29661  0.09362  0.68857  Biso   1.000  H
  H3096    1.0000 0.20513  0.09647  0.69746  Biso   1.000  H
  H3097    1.0000 0.17303  0.02419  0.69956  Biso   1.000  H
  C2972    1.0000 0.16202  0.06878  0.71487  Biso   1.000  C
  H3098    1.0000 0.20510  0.09643  0.69746  Biso   1.000  H
  H3099    1.0000 0.17301  0.02414  0.69956  Biso   1.000  H
  C2973    1.0000 0.16200  0.06873  0.71487  Biso   1.000  C
  C2974    1.0000 0.86593  0.16848  0.71340  Biso   1.000  C
  C2975    1.0000 0.93633  0.23029  0.69510  Biso   1.000  C
  C2976    1.0000 0.93565  0.13386  0.70381  Biso   1.000  C
  C2977    1.0000 0.86590  0.16843  0.71340  Biso   1.000  C
  C2978    1.0000 0.93631  0.23024  0.69510  Biso   1.000  C
  C2979    1.0000 0.86981  0.19075  0.72606  Biso   1.000  C
  H3100    1.0000 0.20045  0.24165  0.75316  Biso   1.000  H
  H3101    1.0000 0.16422  0.17746  0.74596  Biso   1.000  H
  C2980    1.0000 0.24505  0.23248  0.73884  Biso   1.000  C
  C2981    1.0000 0.24503  0.23244  0.73884  Biso   1.000  C
  H3102    1.0000 0.07153  0.44265  0.72957  Biso   1.000  H
  H3103    1.0000 0.04354  0.38805  0.71926  Biso   1.000  H
  C2982    1.0000 0.07294  0.47578  0.71049  Biso   1.000  C
  C2983    1.0000 0.07291  0.47573  0.71049  Biso   1.000  C
  C2984    1.0000 0.11061  0.36774  0.76011  Biso   1.000  C
  C2985    1.0000 0.99854  0.31296  0.76110  Biso   1.000  C
  C2986    1.0000 0.93975  0.27188  0.75353  Biso   1.000  C
  C2987    1.0000 0.93972  0.27183  0.75353  Biso   1.000  C
  C2988    1.0000 0.33212  0.06026  0.75353  Biso   1.000  C
  C2989    1.0000 0.26343  0.96575  0.74106  Biso   1.000  C
  C2990    1.0000 0.23166  0.93099  0.73010  Biso   1.000  C
  C2991    1.0000 0.18994  0.91279  0.70898  Biso   1.000  C
  C2992    1.0000 0.23164  0.93094  0.73010  Biso   1.000  C
  C2993    1.0000 0.18992  0.91274  0.70898  Biso   1.000  C
  H3104    1.0000 0.35243  0.03865  0.70217  Biso   1.000  H
  H3105    1.0000 0.38214  0.11145  0.70067  Biso   1.000  H
  C2994    1.0000 0.38022  0.06798  0.68285  Biso   1.000  C
  C2995    1.0000 0.38020  0.06793  0.68285  Biso   1.000  C
  H3106    1.0000 0.18911  0.10546  0.72007  Biso   1.000  H
  H3107    1.0000 0.14804  0.03238  0.72047  Biso   1.000  H
  C2996    1.0000 0.10422  0.07327  0.71031  Biso   1.000  C
  H3108    1.0000 0.14801  0.03233  0.72047  Biso   1.000  H
  C2997    1.0000 0.10420  0.07322  0.71031  Biso   1.000  C
  C2998    1.0000 0.80792  0.12979  0.70745  Biso   1.000  C
  C2999    1.0000 0.80790  0.12974  0.70745  Biso   1.000  C
  H3109    1.0000 0.97775  0.24456  0.69157  Biso   1.000  H
  H3110    1.0000 0.90634  0.20296  0.68857  Biso   1.000  H
  C3000    1.0000 0.92865  0.28306  0.69659  Biso   1.000  C
  H3111    1.0000 0.90353  0.10869  0.69746  Biso   1.000  H
  H3112    1.0000 0.97586  0.14888  0.69956  Biso   1.000  H
  C3001    1.0000 0.93123  0.09325  0.71487  Biso   1.000  C
  H3113    1.0000 0.90351  0.10864  0.69746  Biso   1.000  H
  H3114    1.0000 0.97583  0.14883  0.69956  Biso   1.000  H
  C3002    1.0000 0.81343  0.17475  0.73276  Biso   1.000  C
  H3115    1.0000 0.26563  0.21756  0.74456  Biso   1.000  H
  H3116    1.0000 0.27175  0.27656  0.73736  Biso   1.000  H
  H3117    1.0000 0.23585  0.21068  0.73067  Biso   1.000  H
  H3118    1.0000 0.23583  0.21063  0.73067  Biso   1.000  H
  H3119    1.0000 0.10422  0.51816  0.71237  Biso   1.000  H
  H3120    1.0000 0.03224  0.47185  0.71087  Biso   1.000  H
  H3121    1.0000 0.07984  0.46487  0.70187  Biso   1.000  H
  H3122    1.0000 0.07982  0.46483  0.70187  Biso   1.000  H
  C3003    1.0000 0.11084  0.38805  0.77277  Biso   1.000  C
  H3123    1.0000 0.14773  0.37958  0.75566  Biso   1.000  H
  H3124    1.0000 0.14771  0.37954  0.75566  Biso   1.000  H
  C3004    1.0000 0.00133  0.33476  0.77381  Biso   1.000  C
  C3005    1.0000 0.90155  0.21096  0.76116  Biso   1.000  C
  C3006    1.0000 0.90341  0.30795  0.75144  Biso   1.000  C
  C3007    1.0000 0.31442  0.00145  0.76110  Biso   1.000  C
  C3008    1.0000 0.30945  0.09849  0.76116  Biso   1.000  C
  C3009    1.0000 0.40452  0.09657  0.75144  Biso   1.000  C
  C3010    1.0000 0.30943  0.09844  0.76116  Biso   1.000  C
  C3011    1.0000 0.40450  0.09652  0.75144  Biso   1.000  C
  C3012    1.0000 0.27615  0.94727  0.75427  Biso   1.000  C
  C3013    1.0000 0.27612  0.94722  0.75427  Biso   1.000  C
  C3014    1.0000 0.19631  0.86086  0.72809  Biso   1.000  C
  C3015    1.0000 0.17274  0.85529  0.71410  Biso   1.000  C
  C3016    1.0000 0.17024  0.91415  0.69610  Biso   1.000  C
  C3017    1.0000 0.17272  0.85524  0.71410  Biso   1.000  C
  C3018    1.0000 0.39332  0.12286  0.67419  Biso   1.000  C
  H3125    1.0000 0.41853  0.06648  0.68397  Biso   1.000  H
  H3126    1.0000 0.35004  0.02957  0.67857  Biso   1.000  H
  H3127    1.0000 0.41851  0.06644  0.68397  Biso   1.000  H
  H3128    1.0000 0.35001  0.02952  0.67857  Biso   1.000  H
  C3019    1.0000 0.11443  0.12675  0.70085  Biso   1.000  C
  H3129    1.0000 0.07533  0.03397  0.70606  Biso   1.000  H
  H3130    1.0000 0.08353  0.07678  0.71807  Biso   1.000  H
  H3131    1.0000 0.07531  0.03392  0.70606  Biso   1.000  H
  H3132    1.0000 0.08350  0.07673  0.71807  Biso   1.000  H
  C3020    1.0000 0.75312  0.11346  0.71408  Biso   1.000  C
  H3133    1.0000 0.80634  0.11496  0.69896  Biso   1.000  H
  H3134    1.0000 0.96133  0.31375  0.70217  Biso   1.000  H
  H3135    1.0000 0.88853  0.27066  0.70067  Biso   1.000  H
  C3021    1.0000 0.93202  0.31226  0.68285  Biso   1.000  C
  H3136    1.0000 0.89454  0.08365  0.72007  Biso   1.000  H
  H3137    1.0000 0.96763  0.11566  0.72047  Biso   1.000  H
  C3022    1.0000 0.92675  0.03097  0.71031  Biso   1.000  C
  C3023    1.0000 0.92673  0.03093  0.71031  Biso   1.000  C
  C3024    1.0000 0.75702  0.13746  0.72682  Biso   1.000  C
  H3138    1.0000 0.81485  0.18967  0.74117  Biso   1.000  H
  H3139    1.0000 0.81483  0.18963  0.74117  Biso   1.000  H
  C3025    1.0000 0.05852  0.37247  0.77963  Biso   1.000  C
  H3140    1.0000 0.14925  0.41397  0.77677  Biso   1.000  H
  C3026    1.0000 0.05850  0.37242  0.77963  Biso   1.000  C
  H3141    1.0000 0.14922  0.41392  0.77677  Biso   1.000  H
  H3142    1.0000 0.96464  0.32386  0.77836  Biso   1.000  H
  H3143    1.0000 0.89243  0.22126  0.76976  Biso   1.000  H
  H3144    1.0000 0.86192  0.18617  0.75666  Biso   1.000  H
  C3027    1.0000 0.93131  0.17105  0.76297  Biso   1.000  C
  H3145    1.0000 0.86493  0.28058  0.74677  Biso   1.000  H
  H3146    1.0000 0.89202  0.31637  0.75997  Biso   1.000  H
  C3028    1.0000 0.93664  0.36817  0.74415  Biso   1.000  C
  H3147    1.0000 0.86490  0.28053  0.74677  Biso   1.000  H
  H3148    1.0000 0.89200  0.31633  0.75997  Biso   1.000  H
  C3029    1.0000 0.33346  0.99869  0.77381  Biso   1.000  C
  C3030    1.0000 0.33344  0.99864  0.77381  Biso   1.000  C
  H3149    1.0000 0.32882  0.10756  0.76976  Biso   1.000  H
  H3150    1.0000 0.32422  0.13807  0.75666  Biso   1.000  H
  C3031    1.0000 0.23973  0.06868  0.76297  Biso   1.000  C
  H3151    1.0000 0.32420  0.13802  0.75666  Biso   1.000  H
  C3032    1.0000 0.23971  0.06864  0.76297  Biso   1.000  C
  C3033    1.0000 0.43151  0.06335  0.74415  Biso   1.000  C
  H3152    1.0000 0.41563  0.13507  0.74677  Biso   1.000  H
  H3153    1.0000 0.42433  0.10798  0.75997  Biso   1.000  H
  H3154    1.0000 0.41561  0.13503  0.74677  Biso   1.000  H
  H3155    1.0000 0.42431  0.10794  0.75997  Biso   1.000  H
  C3034    1.0000 0.25711  0.88935  0.76011  Biso   1.000  C
  C3035    1.0000 0.13834  0.82385  0.73699  Biso   1.000  C
  C3036    1.0000 0.24173  0.83395  0.72863  Biso   1.000  C
  C3037    1.0000 0.13682  0.79956  0.70730  Biso   1.000  C
  C3038    1.0000 0.13554  0.85917  0.68938  Biso   1.000  C
  H3156    1.0000 0.18063  0.95218  0.69217  Biso   1.000  H
  C3039    1.0000 0.13552  0.85912  0.68938  Biso   1.000  C
  H3157    1.0000 0.18061  0.95214  0.69217  Biso   1.000  H
  H3158    1.0000 0.35525  0.12338  0.67266  Biso   1.000  H
  H3159    1.0000 0.41014  0.11907  0.66597  Biso   1.000  H
  H3160    1.0000 0.42313  0.16109  0.67847  Biso   1.000  H
  H3161    1.0000 0.35522  0.12333  0.67266  Biso   1.000  H
  H3162    1.0000 0.41012  0.11903  0.66597  Biso   1.000  H
  H3163    1.0000 0.42311  0.16104  0.67847  Biso   1.000  H
  H3164    1.0000 0.13484  0.12455  0.69307  Biso   1.000  H
  H3165    1.0000 0.14003  0.16637  0.70506  Biso   1.000  H
  H3166    1.0000 0.07474  0.12258  0.69856  Biso   1.000  H
  H3167    1.0000 0.14001  0.16633  0.70506  Biso   1.000  H
  H3168    1.0000 0.07472  0.12253  0.69856  Biso   1.000  H
  C3040    1.0000 0.69082  0.07654  0.70813  Biso   1.000  C
  H3169    1.0000 0.93353  0.35207  0.68397  Biso   1.000  H
  H3170    1.0000 0.97043  0.32044  0.67857  Biso   1.000  H
  C3041    1.0000 0.87713  0.27048  0.67419  Biso   1.000  C
  H3171    1.0000 0.93351  0.35202  0.68397  Biso   1.000  H
  C3042    1.0000 0.87711  0.27043  0.67419  Biso   1.000  C
  C3043    1.0000 0.87324  0.98765  0.70085  Biso   1.000  C
  H3172    1.0000 0.96602  0.04136  0.70606  Biso   1.000  H
  H3173    1.0000 0.92325  0.00678  0.71807  Biso   1.000  H
  H3174    1.0000 0.92322  0.00674  0.71807  Biso   1.000  H
  H3175    1.0000 0.72032  0.12768  0.73127  Biso   1.000  H
  H3176    1.0000 0.72030  0.12763  0.73127  Biso   1.000  H
  C3044    1.0000 0.06263  0.39535  0.79337  Biso   1.000  C
  H3177    1.0000 0.97226  0.19679  0.76687  Biso   1.000  H
  H3178    1.0000 0.93774  0.15837  0.75437  Biso   1.000  H
  C3045    1.0000 0.89533  0.11294  0.77128  Biso   1.000  C
  H3179    1.0000 0.97223  0.19674  0.76687  Biso   1.000  H
  H3180    1.0000 0.93771  0.15833  0.75437  Biso   1.000  H
  H3181    1.0000 0.94474  0.35998  0.73527  Biso   1.000  H
  H3182    1.0000 0.97663  0.39507  0.74837  Biso   1.000  H
  C3046    1.0000 0.89933  0.40167  0.74365  Biso   1.000  C
  H3183    1.0000 0.94471  0.35993  0.73527  Biso   1.000  H
  H3184    1.0000 0.97660  0.39502  0.74837  Biso   1.000  H
  H3185    1.0000 0.35922  0.03537  0.77836  Biso   1.000  H
  H3186    1.0000 0.35919  0.03532  0.77836  Biso   1.000  H
  C3047    1.0000 0.31393  0.94147  0.77963  Biso   1.000  C
  C3048    1.0000 0.31390  0.94142  0.77963  Biso   1.000  C
  H3187    1.0000 0.22453  0.02774  0.76687  Biso   1.000  H
  C3049    1.0000 0.21765  0.10466  0.77128  Biso   1.000  C
  H3188    1.0000 0.22064  0.06227  0.75437  Biso   1.000  H
  H3189    1.0000 0.22062  0.06223  0.75437  Biso   1.000  H
  H3190    1.0000 0.41523  0.05526  0.73527  Biso   1.000  H
  H3191    1.0000 0.41844  0.02335  0.74837  Biso   1.000  H
  C3050    1.0000 0.50233  0.10069  0.74365  Biso   1.000  C
  C3051    1.0000 0.50230  0.10064  0.74365  Biso   1.000  C
  C3052    1.0000 0.27724  0.88916  0.77277  Biso   1.000  C
  H3192    1.0000 0.23184  0.85225  0.75566  Biso   1.000  H
  H3193    1.0000 0.11511  0.78094  0.73386  Biso   1.000  H
  H3194    1.0000 0.15261  0.82305  0.74587  Biso   1.000  H
  C3053    1.0000 0.09454  0.84986  0.73754  Biso   1.000  C
  H3195    1.0000 0.25702  0.83835  0.73757  Biso   1.000  H
  H3196    1.0000 0.21763  0.78955  0.72676  Biso   1.000  H
  C3054    1.0000 0.29554  0.86174  0.71987  Biso   1.000  C
  H3197    1.0000 0.12572  0.76157  0.71127  Biso   1.000  H
  C3055    1.0000 0.11814  0.80055  0.69474  Biso   1.000  C
  H3198    1.0000 0.12570  0.76153  0.71127  Biso   1.000  H
  H3199    1.0000 0.12294  0.86095  0.68086  Biso   1.000  H
  N124     1.0000 0.68500  0.06124  0.69593  Biso   1.000  N
  H3200    1.0000 0.87663  0.23188  0.67266  Biso   1.000  H
  H3201    1.0000 0.88094  0.29106  0.66597  Biso   1.000  H
  H3202    1.0000 0.83893  0.26205  0.67847  Biso   1.000  H
  H3203    1.0000 0.87661  0.23183  0.67266  Biso   1.000  H
  H3204    1.0000 0.83363  0.97366  0.70506  Biso   1.000  H
  H3205    1.0000 0.87743  0.95218  0.69856  Biso   1.000  H
  H3206    1.0000 0.87741  0.95214  0.69856  Biso   1.000  H
  H3207    1.0000 0.87542  0.01025  0.69307  Biso   1.000  H
  N125     1.0000 0.01624  0.38702  0.79996  Biso   1.000  N
  N126     1.0000 0.01622  0.38697  0.79996  Biso   1.000  N
  H3208    1.0000 0.85241  0.09016  0.76817  Biso   1.000  H
  H3209    1.0000 0.91344  0.08637  0.77007  Biso   1.000  H
  C3056    1.0000 0.89505  0.12487  0.78432  Biso   1.000  C
  H3210    1.0000 0.91342  0.08632  0.77007  Biso   1.000  H
  C3057    1.0000 0.89503  0.12483  0.78432  Biso   1.000  C
  H3211    1.0000 0.89112  0.41027  0.75247  Biso   1.000  H
  H3212    1.0000 0.85944  0.37528  0.73937  Biso   1.000  H
  C3058    1.0000 0.93851  0.46745  0.73553  Biso   1.000  C
  H3213    1.0000 0.89109  0.41023  0.75247  Biso   1.000  H
  H3214    1.0000 0.85941  0.37523  0.73937  Biso   1.000  H
  C3059    1.0000 0.33274  0.93735  0.79337  Biso   1.000  C
  H3215    1.0000 0.23772  0.14757  0.76817  Biso   1.000  H
  H3216    1.0000 0.17294  0.08656  0.77007  Biso   1.000  H
  C3060    1.0000 0.22984  0.10499  0.78432  Biso   1.000  C
  C3061    1.0000 0.22982  0.10494  0.78432  Biso   1.000  C
  H3217    1.0000 0.51582  0.14055  0.73937  Biso   1.000  H
  H3218    1.0000 0.51914  0.10887  0.75247  Biso   1.000  H
  C3062    1.0000 0.52896  0.06148  0.73553  Biso   1.000  C
  H3219    1.0000 0.51912  0.10883  0.75247  Biso   1.000  H
  C3063    1.0000 0.52893  0.06143  0.73553  Biso   1.000  C
  H3220    1.0000 0.26472  0.85075  0.77677  Biso   1.000  H
  H3221    1.0000 0.08585  0.85688  0.72857  Biso   1.000  H
  H3222    1.0000 0.11626  0.89038  0.74187  Biso   1.000  H
  C3064    1.0000 0.03204  0.80986  0.74456  Biso   1.000  C
  H3223    1.0000 0.08583  0.85683  0.72857  Biso   1.000  H
  H3224    1.0000 0.11624  0.89033  0.74187  Biso   1.000  H
  H3225    1.0000 0.27844  0.86174  0.71127  Biso   1.000  H
  H3226    1.0000 0.30936  0.83129  0.71937  Biso   1.000  H
  C3065    1.0000 0.35385  0.92318  0.72085  Biso   1.000  C
  H3227    1.0000 0.30934  0.83124  0.71937  Biso   1.000  H
  C3066    1.0000 0.35383  0.92313  0.72085  Biso   1.000  C
  C3067    1.0000 0.07954  0.74319  0.68706  Biso   1.000  C
  C3068    1.0000 0.07951  0.74314  0.68706  Biso   1.000  C
  C3069    1.0000 0.62194  0.03116  0.69050  Biso   1.000  C
  C3070    1.0000 0.02778  0.41285  0.81331  Biso   1.000  C
  C3071    1.0000 0.02775  0.41280  0.81331  Biso   1.000  C
  H3228    1.0000 0.93734  0.14729  0.78746  Biso   1.000  H
  H3229    1.0000 0.87214  0.08618  0.78896  Biso   1.000  H
  H3230    1.0000 0.87562  0.14986  0.78567  Biso   1.000  H
  H3231    1.0000 0.93731  0.14724  0.78746  Biso   1.000  H
  H3232    1.0000 0.87212  0.08613  0.78896  Biso   1.000  H
  H3233    1.0000 0.97633  0.49496  0.74017  Biso   1.000  H
  H3234    1.0000 0.91341  0.48696  0.73467  Biso   1.000  H
  H3235    1.0000 0.94894  0.45907  0.72697  Biso   1.000  H
  H3236    1.0000 0.94892  0.45903  0.72697  Biso   1.000  H
  N127     1.0000 0.37077  0.98376  0.79996  Biso   1.000  N
  H3237    1.0000 0.20993  0.06265  0.78746  Biso   1.000  H
  H3238    1.0000 0.27421  0.12436  0.78567  Biso   1.000  H
  H3239    1.0000 0.21402  0.12787  0.78896  Biso   1.000  H
  H3240    1.0000 0.21399  0.12782  0.78896  Biso   1.000  H
  H3241    1.0000 0.57355  0.08656  0.73467  Biso   1.000  H
  H3242    1.0000 0.51013  0.05104  0.72697  Biso   1.000  H
  H3243    1.0000 0.51864  0.02367  0.74017  Biso   1.000  H
  H3244    1.0000 0.51862  0.02363  0.74017  Biso   1.000  H
  C3072    1.0000 0.98746  0.75498  0.73884  Biso   1.000  C
  C3073    1.0000 0.98743  0.75493  0.73884  Biso   1.000  C
  H3245    1.0000 0.04123  0.79956  0.75316  Biso   1.000  H
  H3246    1.0000 0.01323  0.83578  0.74596  Biso   1.000  H
  H3247    1.0000 0.01321  0.83573  0.74596  Biso   1.000  H
  C3074    1.0000 0.40283  0.92706  0.71049  Biso   1.000  C
  H3248    1.0000 0.37112  0.92846  0.72957  Biso   1.000  H
  H3249    1.0000 0.34453  0.95649  0.71926  Biso   1.000  H
  H3250    1.0000 0.34451  0.95644  0.71926  Biso   1.000  H
  N128     1.0000 0.06722  0.69036  0.69083  Biso   1.000  N
  C3075    1.0000 0.61231  0.97455  0.68219  Biso   1.000  C
  H3251    1.0000 0.59133  0.01638  0.69767  Biso   1.000  H
  C3076    1.0000 0.61543  0.08127  0.68214  Biso   1.000  C
  H3252    1.0000 0.59131  0.01633  0.69767  Biso   1.000  H
  C3077    1.0000 0.61541  0.08122  0.68214  Biso   1.000  C
  H3253    1.0000 0.07074  0.42487  0.81576  Biso   1.000  H
  C3078    1.0000 0.02182  0.47054  0.81329  Biso   1.000  C
  H3254    1.0000 0.07072  0.42482  0.81576  Biso   1.000  H
  C3079    1.0000 0.02179  0.47049  0.81329  Biso   1.000  C
  C3080    1.0000 0.98295  0.36185  0.82261  Biso   1.000  C
  C3081    1.0000 0.98293  0.36180  0.82261  Biso   1.000  C
  C3082    1.0000 0.38505  0.97221  0.81331  Biso   1.000  C
  H3255    1.0000 0.97482  0.76415  0.73067  Biso   1.000  H
  H3256    1.0000 0.95194  0.73434  0.74456  Biso   1.000  H
  H3257    1.0000 0.00481  0.72826  0.73736  Biso   1.000  H
  H3258    1.0000 0.41392  0.89576  0.71237  Biso   1.000  H
  H3259    1.0000 0.43964  0.96776  0.71087  Biso   1.000  H
  H3260    1.0000 0.38505  0.92018  0.70187  Biso   1.000  H
  H3261    1.0000 0.38503  0.92013  0.70187  Biso   1.000  H
  C3083    1.0000 0.02545  0.63778  0.68219  Biso   1.000  C
  C3084    1.0000 0.02543  0.63773  0.68219  Biso   1.000  C
  N129     1.0000 0.62315  0.93277  0.69083  Biso   1.000  N
  H3262    1.0000 0.64312  0.98957  0.67507  Biso   1.000  H
  C3085    1.0000 0.54681  0.93876  0.67632  Biso   1.000  C
  C3086    1.0000 0.66223  0.11935  0.67341  Biso   1.000  C
  C3087    1.0000 0.56753  0.09105  0.68402  Biso   1.000  C
  C3088    1.0000 0.07143  0.52794  0.81511  Biso   1.000  C
  C3089    1.0000 0.96443  0.46637  0.81105  Biso   1.000  C
  C3090    1.0000 0.96440  0.46632  0.81105  Biso   1.000  C
  N130     1.0000 0.99337  0.30804  0.82158  Biso   1.000  N
  H3263    1.0000 0.94003  0.34838  0.81986  Biso   1.000  H
  C3091    1.0000 0.98995  0.38159  0.83682  Biso   1.000  C
  H3264    1.0000 0.94001  0.34833  0.81986  Biso   1.000  H
  C3092    1.0000 0.37892  0.01708  0.82261  Biso   1.000  C
  C3093    1.0000 0.37890  0.01703  0.82261  Biso   1.000  C
  H3265    1.0000 0.35413  0.92926  0.81576  Biso   1.000  H
  C3094    1.0000 0.44870  0.97820  0.81329  Biso   1.000  C
  C3095    1.0000 0.44868  0.97815  0.81329  Biso   1.000  C
  C3096    1.0000 0.96884  0.59076  0.69050  Biso   1.000  C
  H3266    1.0000 0.01043  0.65359  0.67507  Biso   1.000  H
  C3097    1.0000 0.06125  0.60807  0.67632  Biso   1.000  C
  H3267    1.0000 0.01040  0.65354  0.67507  Biso   1.000  H
  C3098    1.0000 0.66363  0.92046  0.68706  Biso   1.000  C
  C3099    1.0000 0.53823  0.93586  0.66304  Biso   1.000  C
  C3100    1.0000 0.49462  0.90675  0.68391  Biso   1.000  C
  H3268    1.0000 0.69472  0.11107  0.67207  Biso   1.000  H
  C3101    1.0000 0.66432  0.16745  0.66666  Biso   1.000  C
  H3269    1.0000 0.69469  0.11103  0.67207  Biso   1.000  H
  H3270    1.0000 0.53513  0.06597  0.68967  Biso   1.000  H
  C3102    1.0000 0.56742  0.14336  0.67675  Biso   1.000  C
  H3271    1.0000 0.53511  0.06592  0.68967  Biso   1.000  H
  H3272    1.0000 0.11032  0.53215  0.81686  Biso   1.000  H
  C3103    1.0000 0.06583  0.58198  0.81444  Biso   1.000  C
  C3104    1.0000 0.06581  0.58194  0.81444  Biso   1.000  C
  H3273    1.0000 0.92883  0.42735  0.81007  Biso   1.000  H
  C3105    1.0000 0.95962  0.51957  0.81026  Biso   1.000  C
  C3106    1.0000 0.95960  0.51952  0.81026  Biso   1.000  C
  C3107    1.0000 0.94583  0.25504  0.81977  Biso   1.000  C
  C3108    1.0000 0.94581  0.25499  0.81977  Biso   1.000  C
  C3109    1.0000 0.04111  0.39025  0.84409  Biso   1.000  C
  C3110    1.0000 0.04109  0.39020  0.84409  Biso   1.000  C
  C3111    1.0000 0.94353  0.38786  0.84312  Biso   1.000  C
  N131     1.0000 0.31471  0.00664  0.82158  Biso   1.000  N
  H3274    1.0000 0.40835  0.05998  0.81986  Biso   1.000  H
  C3112    1.0000 0.39166  0.01006  0.83682  Biso   1.000  C
  H3275    1.0000 0.40833  0.05993  0.81986  Biso   1.000  H
  C3113    1.0000 0.39164  0.01001  0.83682  Biso   1.000  C
  C3114    1.0000 0.50194  0.03556  0.81105  Biso   1.000  C
  C3115    1.0000 0.45654  0.92856  0.81511  Biso   1.000  C
  N132     1.0000 0.93876  0.62379  0.69593  Biso   1.000  N
  H3276    1.0000 0.98364  0.57499  0.69767  Biso   1.000  H
  C3116    1.0000 0.91876  0.53419  0.68214  Biso   1.000  C
  N133     1.0000 0.93873  0.62374  0.69593  Biso   1.000  N
  H3277    1.0000 0.98362  0.57494  0.69767  Biso   1.000  H
  C3117    1.0000 0.91873  0.53414  0.68214  Biso   1.000  C
  C3118    1.0000 0.06415  0.60236  0.66304  Biso   1.000  C
  C3119    1.0000 0.09324  0.58785  0.68391  Biso   1.000  C
  C3120    1.0000 0.68242  0.88186  0.69474  Biso   1.000  C
  H3278    1.0000 0.57262  0.95625  0.65756  Biso   1.000  H
  C3121    1.0000 0.47883  0.90287  0.65770  Biso   1.000  C
  C3122    1.0000 0.47880  0.90282  0.65770  Biso   1.000  C
  H3279    1.0000 0.49913  0.90685  0.69296  Biso   1.000  H
  C3123    1.0000 0.43582  0.87447  0.67861  Biso   1.000  C
  C3124    1.0000 0.43579  0.87442  0.67861  Biso   1.000  C
  C3125    1.0000 0.61520  0.17554  0.66860  Biso   1.000  C
  H3280    1.0000 0.69733  0.19295  0.66116  Biso   1.000  H
  H3281    1.0000 0.53586  0.15309  0.67786  Biso   1.000  H
  H3282    1.0000 0.53584  0.15304  0.67786  Biso   1.000  H
  C3126    1.0000 0.00842  0.57567  0.81195  Biso   1.000  C
  H3283    1.0000 0.10063  0.62128  0.81567  Biso   1.000  H
  H3284    1.0000 0.10061  0.62124  0.81567  Biso   1.000  H
  H3285    1.0000 0.92093  0.51569  0.80847  Biso   1.000  H
  H3286    1.0000 0.92091  0.51564  0.80847  Biso   1.000  H
  C3127    1.0000 0.94965  0.19777  0.81900  Biso   1.000  C
  H3287    1.0000 0.07325  0.38726  0.84006  Biso   1.000  H
  C3128    1.0000 0.04482  0.40358  0.85750  Biso   1.000  C
  C3129    1.0000 0.04480  0.40354  0.85750  Biso   1.000  C
  H3288    1.0000 0.90903  0.38225  0.83837  Biso   1.000  H
  C3130    1.0000 0.94704  0.40185  0.85625  Biso   1.000  C
  C3131    1.0000 0.30922  0.05418  0.81977  Biso   1.000  C
  C3132    1.0000 0.44432  0.05647  0.84312  Biso   1.000  C
  C3133    1.0000 0.44430  0.05642  0.84312  Biso   1.000  C
  C3134    1.0000 0.34913  0.95887  0.84409  Biso   1.000  C
  H3289    1.0000 0.49855  0.07116  0.81007  Biso   1.000  H
  C3135    1.0000 0.55994  0.04038  0.81026  Biso   1.000  C
  C3136    1.0000 0.55991  0.04033  0.81026  Biso   1.000  C
  H3290    1.0000 0.42182  0.88968  0.81686  Biso   1.000  H
  C3137    1.0000 0.51615  0.93417  0.81444  Biso   1.000  C
  H3291    1.0000 0.42180  0.88963  0.81686  Biso   1.000  H
  C3138    1.0000 0.51613  0.93412  0.81444  Biso   1.000  C
  C3139    1.0000 0.92343  0.61429  0.70813  Biso   1.000  C
  C3140    1.0000 0.92341  0.61424  0.70813  Biso   1.000  C
  C3141    1.0000 0.88062  0.54285  0.67341  Biso   1.000  C
  C3142    1.0000 0.90893  0.47645  0.68402  Biso   1.000  C
  H3292    1.0000 0.04371  0.61635  0.65756  Biso   1.000  H
  C3143    1.0000 0.09714  0.57597  0.65770  Biso   1.000  C
  C3144    1.0000 0.09712  0.57592  0.65770  Biso   1.000  C
  H3293    1.0000 0.09313  0.59225  0.69296  Biso   1.000  H
  C3145    1.0000 0.12554  0.56137  0.67861  Biso   1.000  C
  C3146    1.0000 0.12552  0.56133  0.67861  Biso   1.000  C
  C3147    1.0000 0.66273  0.86315  0.70730  Biso   1.000  C
  C3148    1.0000 0.72364  0.86446  0.68938  Biso   1.000  C
  H3294    1.0000 0.47425  0.90076  0.64867  Biso   1.000  H
  C3149    1.0000 0.42864  0.87438  0.66520  Biso   1.000  C
  C3150    1.0000 0.42862  0.87433  0.66520  Biso   1.000  C
  H3295    1.0000 0.40114  0.85276  0.68397  Biso   1.000  H
  H3296    1.0000 0.61424  0.20684  0.66377  Biso   1.000  H
  H3297    1.0000 0.00392  0.61076  0.81147  Biso   1.000  H
  C3151    1.0000 0.00641  0.19824  0.81886  Biso   1.000  C
  C3152    1.0000 0.89463  0.13999  0.81889  Biso   1.000  C
  H3298    1.0000 0.07882  0.40878  0.86247  Biso   1.000  H
  H3299    1.0000 0.07880  0.40873  0.86247  Biso   1.000  H
  C3153    1.0000 0.99653  0.40887  0.86335  Biso   1.000  C
  C3154    1.0000 0.99651  0.40882  0.86335  Biso   1.000  C
  H3300    1.0000 0.91564  0.40648  0.86026  Biso   1.000  H
  H3301    1.0000 0.91562  0.40644  0.86026  Biso   1.000  H
  C3155    1.0000 0.24815  0.05034  0.81900  Biso   1.000  C
  C3156    1.0000 0.24812  0.05030  0.81900  Biso   1.000  C
  H3302    1.0000 0.47323  0.09095  0.83837  Biso   1.000  H
  C3157    1.0000 0.45484  0.05296  0.85625  Biso   1.000  C
  H3303    1.0000 0.31404  0.92678  0.84006  Biso   1.000  H
  C3158    1.0000 0.35875  0.95518  0.85750  Biso   1.000  C
  H3304    1.0000 0.31401  0.92673  0.84006  Biso   1.000  H
  C3159    1.0000 0.35872  0.95513  0.85750  Biso   1.000  C
  H3305    1.0000 0.59472  0.07907  0.80847  Biso   1.000  H
  H3306    1.0000 0.59470  0.07902  0.80847  Biso   1.000  H
  C3160    1.0000 0.56722  0.99158  0.81195  Biso   1.000  C
  C3161    1.0000 0.56720  0.99153  0.81195  Biso   1.000  C
  H3307    1.0000 0.52063  0.89936  0.81567  Biso   1.000  H
  C3162    1.0000 0.88652  0.63965  0.71408  Biso   1.000  C
  H3308    1.0000 0.88890  0.58364  0.67207  Biso   1.000  H
  C3163    1.0000 0.83254  0.49685  0.66666  Biso   1.000  C
  H3309    1.0000 0.93401  0.46916  0.68967  Biso   1.000  H
  C3164    1.0000 0.85664  0.42405  0.67675  Biso   1.000  C
  H3310    1.0000 0.09924  0.57344  0.64867  Biso   1.000  H
  C3165    1.0000 0.12563  0.55426  0.66520  Biso   1.000  C
  H3311    1.0000 0.14724  0.54837  0.68397  Biso   1.000  H
  H3312    1.0000 0.63585  0.87428  0.71127  Biso   1.000  H
  C3166    1.0000 0.68251  0.82726  0.71410  Biso   1.000  C
  H3313    1.0000 0.63582  0.87424  0.71127  Biso   1.000  H
  H3314    1.0000 0.73804  0.87704  0.68086  Biso   1.000  H
  C3167    1.0000 0.74395  0.82979  0.69610  Biso   1.000  C
  C3168    1.0000 0.74392  0.82974  0.69610  Biso   1.000  C
  H3315    1.0000 0.38896  0.85459  0.66147  Biso   1.000  H
  H3316    1.0000 0.38894  0.85454  0.66147  Biso   1.000  H
  H3317    1.0000 0.04386  0.23618  0.81886  Biso   1.000  H
  C3169    1.0000 0.00756  0.14364  0.81873  Biso   1.000  C
  H3318    1.0000 0.04384  0.23613  0.81886  Biso   1.000  H
  C3170    1.0000 0.00753  0.14359  0.81873  Biso   1.000  C
  H3319    1.0000 0.85624  0.13858  0.81886  Biso   1.000  H
  C3171    1.0000 0.89590  0.08492  0.81879  Biso   1.000  C
  H3320    1.0000 0.85622  0.13854  0.81886  Biso   1.000  H
  C3172    1.0000 0.89588  0.08487  0.81879  Biso   1.000  C
  H3321    1.0000 0.99845  0.41748  0.87227  Biso   1.000  H
  H3322    1.0000 0.99842  0.41743  0.87227  Biso   1.000  H
  C3173    1.0000 0.24535  0.10536  0.81889  Biso   1.000  C
  C3174    1.0000 0.19185  0.99359  0.81886  Biso   1.000  C
  C3175    1.0000 0.19183  0.99354  0.81886  Biso   1.000  C
  C3176    1.0000 0.41235  0.00346  0.86335  Biso   1.000  C
  H3323    1.0000 0.49084  0.08436  0.86026  Biso   1.000  H
  H3324    1.0000 0.32995  0.92116  0.86247  Biso   1.000  H
  H3325    1.0000 0.60683  0.99607  0.81147  Biso   1.000  H
  H3326    1.0000 0.60680  0.99602  0.81147  Biso   1.000  H
  C3177    1.0000 0.87024  0.67815  0.70745  Biso   1.000  C
  C3178    1.0000 0.86254  0.61958  0.72682  Biso   1.000  C
  C3179    1.0000 0.86252  0.61953  0.72682  Biso   1.000  C
  C3180    1.0000 0.82446  0.43968  0.66860  Biso   1.000  C
  H3327    1.0000 0.80706  0.50439  0.66116  Biso   1.000  H
  C3181    1.0000 0.82444  0.43963  0.66860  Biso   1.000  C
  H3328    1.0000 0.80703  0.50434  0.66116  Biso   1.000  H
  H3329    1.0000 0.84694  0.38279  0.67786  Biso   1.000  H
  H3330    1.0000 0.84692  0.38274  0.67786  Biso   1.000  H
  H3331    1.0000 0.14543  0.53438  0.66147  Biso   1.000  H
  H3332    1.0000 0.14541  0.53433  0.66147  Biso   1.000  H
  C3182    1.0000 0.72281  0.81005  0.70898  Biso   1.000  C
  C3183    1.0000 0.66452  0.80368  0.72809  Biso   1.000  C
  C3184    1.0000 0.66450  0.80364  0.72809  Biso   1.000  C
  H3333    1.0000 0.77151  0.81936  0.69217  Biso   1.000  H
  C3185    1.0000 0.06496  0.13648  0.81888  Biso   1.000  C
  C3186    1.0000 0.95265  0.08520  0.81872  Biso   1.000  C
  H3334    1.0000 0.85854  0.04697  0.81876  Biso   1.000  H
  H3335    1.0000 0.85851  0.04693  0.81876  Biso   1.000  H
  C3187    1.0000 0.18900  0.10410  0.81879  Biso   1.000  C
  H3336    1.0000 0.28234  0.14378  0.81886  Biso   1.000  H
  H3337    1.0000 0.28232  0.14373  0.81886  Biso   1.000  H
  H3338    1.0000 0.19234  0.95616  0.81886  Biso   1.000  H
  C3188    1.0000 0.13610  0.99247  0.81873  Biso   1.000  C
  C3189    1.0000 0.13608  0.99242  0.81873  Biso   1.000  C
  H3339    1.0000 0.41901  0.00154  0.87227  Biso   1.000  H
  H3340    1.0000 0.88502  0.69135  0.69896  Biso   1.000  H
  C3190    1.0000 0.83156  0.69748  0.71340  Biso   1.000  C
  C3191    1.0000 0.83153  0.69743  0.71340  Biso   1.000  C
  H3341    1.0000 0.87235  0.59267  0.73127  Biso   1.000  H
  C3192    1.0000 0.82525  0.63866  0.73276  Biso   1.000  C
  H3342    1.0000 0.87233  0.59263  0.73127  Biso   1.000  H
  H3343    1.0000 0.79314  0.40735  0.66377  Biso   1.000  H
  C3193    1.0000 0.73465  0.77238  0.71871  Biso   1.000  C
  C3194    1.0000 0.73463  0.77233  0.71871  Biso   1.000  C
  C3195    1.0000 0.68553  0.86165  0.73699  Biso   1.000  C
  C3196    1.0000 0.59221  0.75825  0.72863  Biso   1.000  C
  C3197    1.0000 0.69933  0.76836  0.73010  Biso   1.000  C
  C3198    1.0000 0.10457  0.16862  0.80649  Biso   1.000  C
  C3199    1.0000 0.10194  0.16572  0.83183  Biso   1.000  C
  C3200    1.0000 0.03617  0.06578  0.81865  Biso   1.000  C
  C3201    1.0000 0.03615  0.06574  0.81865  Biso   1.000  C
  C3202    1.0000 0.96990  0.03607  0.81850  Biso   1.000  C
  C3203    1.0000 0.13255  0.04735  0.81872  Biso   1.000  C
  H3344    1.0000 0.18845  0.14148  0.81876  Biso   1.000  H
  C3204    1.0000 0.13252  0.04730  0.81872  Biso   1.000  C
  H3345    1.0000 0.18843  0.14144  0.81876  Biso   1.000  H
  C3205    1.0000 0.07154  0.93506  0.81888  Biso   1.000  C
  C3206    1.0000 0.07152  0.93501  0.81888  Biso   1.000  C
  C3207    1.0000 0.80924  0.67909  0.72606  Biso   1.000  C
  C3208    1.0000 0.80945  0.73818  0.70741  Biso   1.000  C
  C3209    1.0000 0.80921  0.67904  0.72606  Biso   1.000  C
  C3210    1.0000 0.80942  0.73813  0.70741  Biso   1.000  C
  H3346    1.0000 0.81030  0.62514  0.74117  Biso   1.000  H
  C3211    1.0000 0.76916  0.74188  0.71848  Biso   1.000  C
  C3212    1.0000 0.76913  0.74183  0.71848  Biso   1.000  C
  H3347    1.0000 0.66585  0.88486  0.73386  Biso   1.000  H
  H3348    1.0000 0.67045  0.84738  0.74587  Biso   1.000  H
  C3213    1.0000 0.75532  0.90544  0.73754  Biso   1.000  C
  H3349    1.0000 0.67043  0.84733  0.74587  Biso   1.000  H
  H3350    1.0000 0.58132  0.74295  0.73757  Biso   1.000  H
  H3351    1.0000 0.57193  0.78235  0.72676  Biso   1.000  H
  C3214    1.0000 0.56624  0.70445  0.71987  Biso   1.000  C
  C3215    1.0000 0.70233  0.73659  0.74106  Biso   1.000  C
  C3216    1.0000 0.70231  0.73654  0.74106  Biso   1.000  C
  H3352    1.0000 0.11673  0.21255  0.80666  Biso   1.000  H
  H3353    1.0000 0.14253  0.16619  0.80687  Biso   1.000  H
  C3217    1.0000 0.07262  0.14167  0.79386  Biso   1.000  C
  H3354    1.0000 0.14251  0.16614  0.80687  Biso   1.000  H
  C3218    1.0000 0.07259  0.14162  0.79386  Biso   1.000  C
  H3355    1.0000 0.13684  0.15805  0.83227  Biso   1.000  H
  H3356    1.0000 0.11916  0.21068  0.83146  Biso   1.000  H
  C3219    1.0000 0.06364  0.14097  0.84427  Biso   1.000  C
  H3357    1.0000 0.11913  0.21063  0.83146  Biso   1.000  H
  C3220    1.0000 0.06361  0.14092  0.84427  Biso   1.000  C
  C3221    1.0000 0.06618  0.03008  0.81850  Biso   1.000  C
  C3222    1.0000 0.93424  0.97043  0.81865  Biso   1.000  C
  C3223    1.0000 0.93422  0.97038  0.81865  Biso   1.000  C
  C3224    1.0000 0.06409  0.89543  0.80649  Biso   1.000  C
  C3225    1.0000 0.06377  0.89805  0.83183  Biso   1.000  C
  C3226    1.0000 0.02961  0.96383  0.81865  Biso   1.000  C
  C3227    1.0000 0.06406  0.89538  0.80649  Biso   1.000  C
  C3228    1.0000 0.06375  0.89800  0.83183  Biso   1.000  C
  C3229    1.0000 0.02958  0.96379  0.81865  Biso   1.000  C
  C3230    1.0000 0.76983  0.70725  0.72947  Biso   1.000  C
  C3231    1.0000 0.76974  0.70608  0.69510  Biso   1.000  C
  C3232    1.0000 0.86612  0.80176  0.70381  Biso   1.000  C
  C3233    1.0000 0.76971  0.70604  0.69510  Biso   1.000  C
  H3358    1.0000 0.77101  0.91415  0.72857  Biso   1.000  H
  H3359    1.0000 0.77414  0.88378  0.74187  Biso   1.000  H
  C3234    1.0000 0.77782  0.96795  0.74456  Biso   1.000  C
  H3360    1.0000 0.77412  0.88373  0.74187  Biso   1.000  H
  H3361    1.0000 0.58335  0.72157  0.71127  Biso   1.000  H
  H3362    1.0000 0.52190  0.69065  0.71937  Biso   1.000  H
  C3235    1.0000 0.56931  0.64615  0.72085  Biso   1.000  C
  H3363    1.0000 0.58333  0.72152  0.71127  Biso   1.000  H
  C3236    1.0000 0.67113  0.72386  0.75427  Biso   1.000  C
  C3237    1.0000 0.73613  0.70426  0.74065  Biso   1.000  C
  H3364    1.0000 0.03204  0.13896  0.79417  Biso   1.000  H
  H3365    1.0000 0.06515  0.09919  0.79327  Biso   1.000  H
  C3238    1.0000 0.10632  0.17667  0.78081  Biso   1.000  C
  H3366    1.0000 0.06513  0.09914  0.79327  Biso   1.000  H
  C3239    1.0000 0.10630  0.17662  0.78081  Biso   1.000  C
  H3367    1.0000 0.04701  0.09605  0.84466  Biso   1.000  H
  C3240    1.0000 0.09934  0.17016  0.85694  Biso   1.000  C
  H3368    1.0000 0.02846  0.14808  0.84377  Biso   1.000  H
  H3369    1.0000 0.02843  0.14803  0.84377  Biso   1.000  H
  C3241    1.0000 0.96392  0.93384  0.81850  Biso   1.000  C
  C3242    1.0000 0.86350  0.92846  0.81888  Biso   1.000  C
  C3243    1.0000 0.96390  0.93380  0.81850  Biso   1.000  C
  H3370    1.0000 0.09585  0.88327  0.80666  Biso   1.000  H
  H3371    1.0000 0.02364  0.85749  0.80687  Biso   1.000  H
  C3244    1.0000 0.06904  0.92739  0.79386  Biso   1.000  C
  H3372    1.0000 0.02361  0.85744  0.80687  Biso   1.000  H
  C3245    1.0000 0.06902  0.92734  0.79386  Biso   1.000  C
  H3373    1.0000 0.02124  0.86315  0.83227  Biso   1.000  H
  H3374    1.0000 0.09153  0.88088  0.83146  Biso   1.000  H
  C3246    1.0000 0.07734  0.93637  0.84427  Biso   1.000  C
  H3375    1.0000 0.09151  0.88083  0.83146  Biso   1.000  H
  C3247    1.0000 0.07732  0.93632  0.84427  Biso   1.000  C
  H3376    1.0000 0.75544  0.73317  0.69157  Biso   1.000  H
  H3377    1.0000 0.79703  0.70337  0.68857  Biso   1.000  H
  C3248    1.0000 0.71696  0.64559  0.69659  Biso   1.000  C
  H3378    1.0000 0.75542  0.73313  0.69157  Biso   1.000  H
  H3379    1.0000 0.79700  0.70332  0.68857  Biso   1.000  H
  C3249    1.0000 0.71694  0.64554  0.69659  Biso   1.000  C
  H3380    1.0000 0.89132  0.79489  0.69746  Biso   1.000  H
  H3381    1.0000 0.85113  0.82698  0.69956  Biso   1.000  H
  C3250    1.0000 0.90675  0.83798  0.71487  Biso   1.000  C
  H3382    1.0000 0.89130  0.79484  0.69746  Biso   1.000  H
  H3383    1.0000 0.85111  0.82694  0.69956  Biso   1.000  H
  C3251    1.0000 0.90673  0.83793  0.71487  Biso   1.000  C
  H3384    1.0000 0.75832  0.95878  0.75316  Biso   1.000  H
  H3385    1.0000 0.82251  0.98676  0.74596  Biso   1.000  H
  H3386    1.0000 0.75830  0.95873  0.75316  Biso   1.000  H
  C3252    1.0000 0.76756  0.01259  0.73884  Biso   1.000  C
  C3253    1.0000 0.76753  0.01254  0.73884  Biso   1.000  C
  C3254    1.0000 0.52423  0.59716  0.71049  Biso   1.000  C
  H3387    1.0000 0.55735  0.62889  0.72957  Biso   1.000  H
  H3388    1.0000 0.61193  0.65546  0.71926  Biso   1.000  H
  H3389    1.0000 0.55733  0.62884  0.72957  Biso   1.000  H
  C3255    1.0000 0.68702  0.68555  0.76110  Biso   1.000  C
  C3256    1.0000 0.63225  0.74286  0.76011  Biso   1.000  C
  C3257    1.0000 0.72814  0.66786  0.75353  Biso   1.000  C
  H3390    1.0000 0.08333  0.15126  0.77336  Biso   1.000  H
  H3391    1.0000 0.14816  0.18238  0.78057  Biso   1.000  H
  C3258    1.0000 0.11045  0.24067  0.77987  Biso   1.000  C
  H3392    1.0000 0.14813  0.18233  0.78057  Biso   1.000  H
  C3259    1.0000 0.11043  0.24062  0.77987  Biso   1.000  C
  H3393    1.0000 0.13752  0.16815  0.85717  Biso   1.000  H
  H3394    1.0000 0.11033  0.21377  0.85747  Biso   1.000  H
  C3260    1.0000 0.05346  0.13058  0.86941  Biso   1.000  C
  H3395    1.0000 0.11031  0.21372  0.85747  Biso   1.000  H
  C3261    1.0000 0.05344  0.13054  0.86941  Biso   1.000  C
  C3262    1.0000 0.91480  0.86745  0.81872  Biso   1.000  C
  C3263    1.0000 0.91478  0.86741  0.81872  Biso   1.000  C
  C3264    1.0000 0.85638  0.86390  0.81873  Biso   1.000  C
  C3265    1.0000 0.83139  0.93595  0.80649  Biso   1.000  C
  C3266    1.0000 0.83428  0.93623  0.83183  Biso   1.000  C
  C3267    1.0000 0.83136  0.93590  0.80649  Biso   1.000  C
  C3268    1.0000 0.83426  0.93618  0.83183  Biso   1.000  C
  H3396    1.0000 0.10691  0.96795  0.79417  Biso   1.000  H
  H3397    1.0000 0.03405  0.93487  0.79327  Biso   1.000  H
  C3269    1.0000 0.07033  0.89365  0.78081  Biso   1.000  C
  H3398    1.0000 0.03403  0.93483  0.79327  Biso   1.000  H
  H3399    1.0000 0.04906  0.95298  0.84466  Biso   1.000  H
  H3400    1.0000 0.11961  0.97155  0.84377  Biso   1.000  H
  C3270    1.0000 0.07084  0.90067  0.85694  Biso   1.000  C
  H3401    1.0000 0.04904  0.95293  0.84466  Biso   1.000  H
  C3271    1.0000 0.07081  0.90062  0.85694  Biso   1.000  C
  H3402    1.0000 0.68622  0.64755  0.70217  Biso   1.000  H
  H3403    1.0000 0.72930  0.61784  0.70067  Biso   1.000  H
  C3272    1.0000 0.68772  0.61976  0.68285  Biso   1.000  C
  H3404    1.0000 0.91634  0.81089  0.72007  Biso   1.000  H
  H3405    1.0000 0.88433  0.85197  0.72047  Biso   1.000  H
  C3273    1.0000 0.96903  0.89576  0.71031  Biso   1.000  C
  H3406    1.0000 0.91632  0.81084  0.72007  Biso   1.000  H
  H3407    1.0000 0.72344  0.99518  0.73736  Biso   1.000  H
  H3408    1.0000 0.72342  0.99513  0.73736  Biso   1.000  H
  H3409    1.0000 0.78933  0.02517  0.73067  Biso   1.000  H
  H3410    1.0000 0.78241  0.04805  0.74456  Biso   1.000  H
  H3411    1.0000 0.78930  0.02512  0.73067  Biso   1.000  H
  H3412    1.0000 0.48186  0.58608  0.71237  Biso   1.000  H
  H3413    1.0000 0.52811  0.56034  0.71087  Biso   1.000  H
  H3414    1.0000 0.53511  0.61494  0.70187  Biso   1.000  H
  H3415    1.0000 0.48183  0.58603  0.71237  Biso   1.000  H
  C3274    1.0000 0.66524  0.66655  0.77381  Biso   1.000  C
  C3275    1.0000 0.61196  0.72279  0.77277  Biso   1.000  C
  H3416    1.0000 0.62043  0.76817  0.75566  Biso   1.000  H
  C3276    1.0000 0.61194  0.72274  0.77277  Biso   1.000  C
  H3417    1.0000 0.62041  0.76812  0.75566  Biso   1.000  H
  C3277    1.0000 0.78904  0.69055  0.76116  Biso   1.000  C
  C3278    1.0000 0.69203  0.59548  0.75144  Biso   1.000  C
  C3279    1.0000 0.69200  0.59543  0.75144  Biso   1.000  C
  H3418    1.0000 0.06953  0.23557  0.78107  Biso   1.000  H
  H3419    1.0000 0.12643  0.25868  0.77147  Biso   1.000  H
  H3420    1.0000 0.13785  0.26767  0.78656  Biso   1.000  H
  H3421    1.0000 0.06950  0.23553  0.78107  Biso   1.000  H
  H3422    1.0000 0.12640  0.25864  0.77147  Biso   1.000  H
  H3423    1.0000 0.13782  0.26762  0.78656  Biso   1.000  H
  H3424    1.0000 0.01623  0.13376  0.86917  Biso   1.000  H
  H3425    1.0000 0.04222  0.08735  0.86877  Biso   1.000  H
  H3426    1.0000 0.07515  0.14747  0.87746  Biso   1.000  H
  H3427    1.0000 0.07513  0.14743  0.87746  Biso   1.000  H
  C3280    1.0000 0.91509  0.81098  0.81879  Biso   1.000  C
  C3281    1.0000 0.80174  0.80817  0.81886  Biso   1.000  C
  C3282    1.0000 0.80171  0.80813  0.81886  Biso   1.000  C
  H3428    1.0000 0.78742  0.90418  0.80666  Biso   1.000  H
  H3429    1.0000 0.83385  0.97637  0.80687  Biso   1.000  H
  C3283    1.0000 0.85836  0.93099  0.79386  Biso   1.000  C
  H3430    1.0000 0.78740  0.90413  0.80666  Biso   1.000  H
  H3431    1.0000 0.83383  0.97633  0.80687  Biso   1.000  H
  C3284    1.0000 0.85834  0.93094  0.79386  Biso   1.000  C
  H3432    1.0000 0.84193  0.97876  0.83227  Biso   1.000  H
  H3433    1.0000 0.78933  0.90848  0.83146  Biso   1.000  H
  C3285    1.0000 0.85902  0.92266  0.84427  Biso   1.000  C
  H3434    1.0000 0.78931  0.90844  0.83146  Biso   1.000  H
  H3435    1.0000 0.03424  0.85187  0.78057  Biso   1.000  H
  H3436    1.0000 0.06794  0.91667  0.77336  Biso   1.000  H
  C3286    1.0000 0.13025  0.88958  0.77987  Biso   1.000  C
  H3437    1.0000 0.03422  0.85183  0.78057  Biso   1.000  H
  H3438    1.0000 0.06792  0.91663  0.77336  Biso   1.000  H
  C3287    1.0000 0.13022  0.88954  0.77987  Biso   1.000  C
  H3439    1.0000 0.10343  0.88968  0.85747  Biso   1.000  H
  H3440    1.0000 0.03062  0.86245  0.85717  Biso   1.000  H
  C3288    1.0000 0.07713  0.94657  0.86941  Biso   1.000  C
  H3441    1.0000 0.10340  0.88963  0.85747  Biso   1.000  H
  C3289    1.0000 0.07711  0.94652  0.86941  Biso   1.000  C
  H3442    1.0000 0.64793  0.58144  0.68397  Biso   1.000  H
  H3443    1.0000 0.67953  0.64999  0.67857  Biso   1.000  H
  C3290    1.0000 0.72955  0.60666  0.67419  Biso   1.000  C
  H3444    1.0000 0.67951  0.64994  0.67857  Biso   1.000  H
  H3445    1.0000 0.95865  0.92467  0.70606  Biso   1.000  H
  H3446    1.0000 0.99325  0.91649  0.71807  Biso   1.000  H
  H3447    1.0000 0.95863  0.92463  0.70606  Biso   1.000  H
  H3448    1.0000 0.99323  0.91644  0.71807  Biso   1.000  H
  C3291    1.0000 0.01231  0.88556  0.70085  Biso   1.000  C
  H3449    1.0000 0.67614  0.64077  0.77836  Biso   1.000  H
  C3292    1.0000 0.62751  0.68606  0.77963  Biso   1.000  C
  H3450    1.0000 0.67612  0.64072  0.77836  Biso   1.000  H
  H3451    1.0000 0.58604  0.73528  0.77677  Biso   1.000  H
  H3452    1.0000 0.58601  0.73523  0.77677  Biso   1.000  H
  H3453    1.0000 0.77874  0.67118  0.76976  Biso   1.000  H
  H3454    1.0000 0.81382  0.67577  0.75666  Biso   1.000  H
  C3293    1.0000 0.82892  0.76026  0.76297  Biso   1.000  C
  H3455    1.0000 0.77872  0.67113  0.76976  Biso   1.000  H
  H3456    1.0000 0.71944  0.58435  0.74677  Biso   1.000  H
  H3457    1.0000 0.68363  0.57569  0.75997  Biso   1.000  H
  C3294    1.0000 0.63185  0.56848  0.74415  Biso   1.000  C
  H3458    1.0000 0.68361  0.57564  0.75997  Biso   1.000  H
  C3295    1.0000 0.63183  0.56844  0.74415  Biso   1.000  C
  C3296    1.0000 0.86002  0.75465  0.81889  Biso   1.000  C
  H3459    1.0000 0.95304  0.81159  0.81876  Biso   1.000  H
  C3297    1.0000 0.86000  0.75460  0.81889  Biso   1.000  C
  H3460    1.0000 0.95302  0.81154  0.81876  Biso   1.000  H
  C3298    1.0000 0.80220  0.75189  0.81900  Biso   1.000  C
  H3461    1.0000 0.76384  0.80766  0.81886  Biso   1.000  H
  C3299    1.0000 0.80218  0.75184  0.81900  Biso   1.000  C
  H3462    1.0000 0.86103  0.89305  0.79417  Biso   1.000  H
  H3463    1.0000 0.90086  0.96599  0.79327  Biso   1.000  H
  C3300    1.0000 0.82335  0.92968  0.78081  Biso   1.000  C
  H3464    1.0000 0.90084  0.96594  0.79327  Biso   1.000  H
  C3301    1.0000 0.82333  0.92963  0.78081  Biso   1.000  C
  H3465    1.0000 0.90393  0.95097  0.84466  Biso   1.000  H
  H3466    1.0000 0.85193  0.88037  0.84377  Biso   1.000  H
  C3302    1.0000 0.82982  0.92916  0.85694  Biso   1.000  C
  H3467    1.0000 0.90390  0.95092  0.84466  Biso   1.000  H
  H3468    1.0000 0.16605  0.93047  0.78107  Biso   1.000  H
  H3469    1.0000 0.13225  0.87358  0.77147  Biso   1.000  H
  H3470    1.0000 0.12983  0.86217  0.78656  Biso   1.000  H
  H3471    1.0000 0.16602  0.93043  0.78107  Biso   1.000  H
  H3472    1.0000 0.13223  0.87354  0.77147  Biso   1.000  H
  H3473    1.0000 0.11753  0.98376  0.86917  Biso   1.000  H
  H3474    1.0000 0.07232  0.92486  0.87746  Biso   1.000  H
  H3475    1.0000 0.04512  0.95775  0.86877  Biso   1.000  H
  H3476    1.0000 0.76812  0.64475  0.67266  Biso   1.000  H
  H3477    1.0000 0.70895  0.58987  0.66597  Biso   1.000  H
  H3478    1.0000 0.73794  0.57686  0.67847  Biso   1.000  H
  H3479    1.0000 0.98971  0.86516  0.69307  Biso   1.000  H
  H3480    1.0000 0.02634  0.85997  0.70506  Biso   1.000  H
  H3481    1.0000 0.04785  0.92528  0.69856  Biso   1.000  H
  H3482    1.0000 0.04783  0.92523  0.69856  Biso   1.000  H
  C3303    1.0000 0.60461  0.66725  0.79337  Biso   1.000  C
  H3483    1.0000 0.80325  0.77547  0.76687  Biso   1.000  H
  H3484    1.0000 0.84162  0.77935  0.75437  Biso   1.000  H
  C3304    1.0000 0.88704  0.78235  0.77128  Biso   1.000  C
  H3485    1.0000 0.80323  0.77542  0.76687  Biso   1.000  H
  H3486    1.0000 0.64003  0.58477  0.73527  Biso   1.000  H
  H3487    1.0000 0.60493  0.58158  0.74837  Biso   1.000  H
  C3305    1.0000 0.59834  0.49765  0.74365  Biso   1.000  C
  H3488    1.0000 0.60491  0.58154  0.74837  Biso   1.000  H
  H3489    1.0000 0.86144  0.71769  0.81886  Biso   1.000  H
  H3490    1.0000 0.86141  0.71764  0.81886  Biso   1.000  H
  C3306    1.0000 0.74499  0.69079  0.81977  Biso   1.000  C
  H3491    1.0000 0.81764  0.96575  0.78057  Biso   1.000  H
  H3492    1.0000 0.84873  0.93207  0.77336  Biso   1.000  H
  C3307    1.0000 0.75931  0.86975  0.77987  Biso   1.000  C
  H3493    1.0000 0.78624  0.89655  0.85747  Biso   1.000  H
  H3494    1.0000 0.83184  0.96935  0.85717  Biso   1.000  H
  C3308    1.0000 0.86941  0.92285  0.86941  Biso   1.000  C
  N134     1.0000 0.61299  0.62921  0.79996  Biso   1.000  N
  H3495    1.0000 0.90983  0.76228  0.76817  Biso   1.000  H
  H3496    1.0000 0.91362  0.82708  0.77007  Biso   1.000  H
  C3309    1.0000 0.87512  0.77018  0.78432  Biso   1.000  C
  H3497    1.0000 0.90980  0.76223  0.76817  Biso   1.000  H
  H3498    1.0000 0.91360  0.82703  0.77007  Biso   1.000  H
  C3310    1.0000 0.87510  0.77014  0.78432  Biso   1.000  C
  H3499    1.0000 0.58974  0.48085  0.75247  Biso   1.000  H
  H3500    1.0000 0.62475  0.48417  0.73937  Biso   1.000  H
  C3311    1.0000 0.53254  0.47107  0.73553  Biso   1.000  C
  H3501    1.0000 0.62472  0.48413  0.73937  Biso   1.000  H
  C3312    1.0000 0.53252  0.47103  0.73553  Biso   1.000  C
  N135     1.0000 0.69197  0.68531  0.82158  Biso   1.000  N
  N136     1.0000 0.69194  0.68526  0.82158  Biso   1.000  N
  H3502    1.0000 0.76442  0.83395  0.78107  Biso   1.000  H
  H3503    1.0000 0.74135  0.86778  0.77147  Biso   1.000  H
  H3504    1.0000 0.73233  0.87017  0.78656  Biso   1.000  H
  H3505    1.0000 0.74132  0.86773  0.77147  Biso   1.000  H
  H3506    1.0000 0.86624  0.88247  0.86917  Biso   1.000  H
  H3507    1.0000 0.85253  0.92767  0.87746  Biso   1.000  H
  H3508    1.0000 0.91264  0.95485  0.86877  Biso   1.000  H
  H3509    1.0000 0.86621  0.88242  0.86917  Biso   1.000  H
  H3510    1.0000 0.85251  0.92762  0.87746  Biso   1.000  H
  C3313    1.0000 0.58717  0.61494  0.81331  Biso   1.000  C
  H3511    1.0000 0.85273  0.79007  0.78746  Biso   1.000  H
  H3512    1.0000 0.91384  0.78595  0.78896  Biso   1.000  H
  H3513    1.0000 0.85013  0.72578  0.78567  Biso   1.000  H
  H3514    1.0000 0.85271  0.79002  0.78746  Biso   1.000  H
  H3515    1.0000 0.85010  0.72574  0.78567  Biso   1.000  H
  H3516    1.0000 0.50503  0.48137  0.74017  Biso   1.000  H
  H3517    1.0000 0.51304  0.42649  0.73467  Biso   1.000  H
  H3518    1.0000 0.54093  0.48988  0.72697  Biso   1.000  H
  H3519    1.0000 0.50500  0.48132  0.74017  Biso   1.000  H
  H3520    1.0000 0.51302  0.42644  0.73467  Biso   1.000  H
  H3521    1.0000 0.54091  0.48984  0.72697  Biso   1.000  H
  C3314    1.0000 0.63813  0.62107  0.82261  Biso   1.000  C
  H3522    1.0000 0.57512  0.64587  0.81576  Biso   1.000  H
  C3315    1.0000 0.52951  0.55131  0.81329  Biso   1.000  C
  H3523    1.0000 0.57510  0.64582  0.81576  Biso   1.000  H
  C3316    1.0000 0.52948  0.55127  0.81329  Biso   1.000  C
  H3524    1.0000 0.65162  0.59164  0.81986  Biso   1.000  H
  C3317    1.0000 0.61840  0.60835  0.83682  Biso   1.000  C
  C3318    1.0000 0.47201  0.54345  0.81511  Biso   1.000  C
  C3319    1.0000 0.53364  0.49807  0.81105  Biso   1.000  C
  C3320    1.0000 0.53361  0.49802  0.81105  Biso   1.000  C
  C3321    1.0000 0.60976  0.65088  0.84409  Biso   1.000  C
  C3322    1.0000 0.61215  0.55566  0.84312  Biso   1.000  C
  C3323    1.0000 0.60973  0.65083  0.84409  Biso   1.000  C
  H3525    1.0000 0.46785  0.57817  0.81686  Biso   1.000  H
  C3324    1.0000 0.41802  0.48385  0.81444  Biso   1.000  C
  H3526    1.0000 0.46783  0.57812  0.81686  Biso   1.000  H
  H3527    1.0000 0.57262  0.50149  0.81007  Biso   1.000  H
  C3325    1.0000 0.48044  0.44005  0.81026  Biso   1.000  C
  H3528    1.0000 0.57260  0.50144  0.81007  Biso   1.000  H
  H3529    1.0000 0.61272  0.68597  0.84006  Biso   1.000  H
  C3326    1.0000 0.59645  0.64128  0.85750  Biso   1.000  C
  C3327    1.0000 0.59643  0.64124  0.85750  Biso   1.000  C
  H3530    1.0000 0.61771  0.52675  0.83837  Biso   1.000  H
  C3328    1.0000 0.59816  0.54518  0.85625  Biso   1.000  C
  C3329    1.0000 0.59814  0.54514  0.85625  Biso   1.000  C
  H3531    1.0000 0.37874  0.47936  0.81567  Biso   1.000  H
  C3330    1.0000 0.42432  0.43276  0.81195  Biso   1.000  C
  H3532    1.0000 0.48431  0.40525  0.80847  Biso   1.000  H
  H3533    1.0000 0.59123  0.67006  0.86247  Biso   1.000  H
  C3331    1.0000 0.59112  0.58767  0.86335  Biso   1.000  C
  C3332    1.0000 0.59110  0.58762  0.86335  Biso   1.000  C
  H3534    1.0000 0.59352  0.50916  0.86026  Biso   1.000  H
  H3535    1.0000 0.38925  0.39317  0.81147  Biso   1.000  H
  H3536    1.0000 0.38923  0.39313  0.81147  Biso   1.000  H
  H3537    1.0000 0.58255  0.58098  0.87227  Biso   1.000  H
  H3538    1.0000 0.58252  0.58093  0.87227  Biso   1.000  H
  C3333    1.0000 0.42403  0.52116  0.65770  Biso   1.000  C
  H3539    1.0000 0.42653  0.52574  0.64867  Biso   1.000  H
  C3334    1.0000 0.44573  0.57136  0.66520  Biso   1.000  C
  C3335    1.0000 0.39763  0.46179  0.66304  Biso   1.000  C
  C3336    1.0000 0.39760  0.46174  0.66304  Biso   1.000  C
  C3337    1.0000 0.43864  0.56416  0.67861  Biso   1.000  C
  H3540    1.0000 0.46563  0.61108  0.66147  Biso   1.000  H
  H3541    1.0000 0.46561  0.61104  0.66147  Biso   1.000  H
  H3542    1.0000 0.38361  0.42735  0.65756  Biso   1.000  H
  C3338    1.0000 0.39195  0.45318  0.67632  Biso   1.000  C
  C3339    1.0000 0.39192  0.45313  0.67632  Biso   1.000  C
  C3340    1.0000 0.41211  0.50535  0.68391  Biso   1.000  C
  H3543    1.0000 0.45162  0.59887  0.68397  Biso   1.000  H
  H3544    1.0000 0.45160  0.59883  0.68397  Biso   1.000  H
  C3341    1.0000 0.36223  0.38768  0.68219  Biso   1.000  C
  C3342    1.0000 0.36221  0.38763  0.68219  Biso   1.000  C
  H3545    1.0000 0.40772  0.50085  0.69296  Biso   1.000  H
  H3546    1.0000 0.34641  0.35684  0.67507  Biso   1.000  H
  N137     1.0000 0.30963  0.37687  0.69083  Biso   1.000  N
  C3343    1.0000 0.40926  0.37808  0.69050  Biso   1.000  C
  N138     1.0000 0.30960  0.37682  0.69083  Biso   1.000  N
  C3344    1.0000 0.40924  0.37804  0.69050  Biso   1.000  C
  C3345    1.0000 0.25683  0.33635  0.68706  Biso   1.000  C
  N139     1.0000 0.37624  0.31497  0.69593  Biso   1.000  N
  H3547    1.0000 0.42505  0.40868  0.69767  Biso   1.000  H
  C3346    1.0000 0.46584  0.38459  0.68214  Biso   1.000  C
  H3548    1.0000 0.42502  0.40864  0.69767  Biso   1.000  H
  C3347    1.0000 0.46581  0.38454  0.68214  Biso   1.000  C
  C3348    1.0000 0.19943  0.31759  0.69474  Biso   1.000  C
  C3349    1.0000 0.19941  0.31754  0.69474  Biso   1.000  C
  C3350    1.0000 0.38574  0.30917  0.70813  Biso   1.000  C
  C3351    1.0000 0.38572  0.30912  0.70813  Biso   1.000  C
  C3352    1.0000 0.45713  0.33775  0.67341  Biso   1.000  C
  C3353    1.0000 0.52352  0.43245  0.68402  Biso   1.000  C
  C3354    1.0000 0.20045  0.33729  0.70730  Biso   1.000  C
  C3355    1.0000 0.14082  0.27637  0.68938  Biso   1.000  C
  C3356    1.0000 0.20043  0.33724  0.70730  Biso   1.000  C
  C3357    1.0000 0.14080  0.27632  0.68938  Biso   1.000  C
  C3358    1.0000 0.36034  0.24685  0.71408  Biso   1.000  C
  C3359    1.0000 0.50312  0.33565  0.66666  Biso   1.000  C
  H3549    1.0000 0.41634  0.30528  0.67207  Biso   1.000  H
  H3550    1.0000 0.41631  0.30524  0.67207  Biso   1.000  H
  C3360    1.0000 0.57592  0.43254  0.67675  Biso   1.000  C
  H3551    1.0000 0.53086  0.46487  0.68967  Biso   1.000  H
  H3552    1.0000 0.53083  0.46483  0.68967  Biso   1.000  H
  C3361    1.0000 0.14471  0.31745  0.71410  Biso   1.000  C
  H3553    1.0000 0.23846  0.36419  0.71127  Biso   1.000  H
  H3554    1.0000 0.23843  0.36414  0.71127  Biso   1.000  H
  H3555    1.0000 0.13904  0.26196  0.68086  Biso   1.000  H
  C3362    1.0000 0.08585  0.25606  0.69610  Biso   1.000  C
  C3363    1.0000 0.32184  0.19206  0.70745  Biso   1.000  C
  C3364    1.0000 0.38044  0.24296  0.72682  Biso   1.000  C
  H3556    1.0000 0.49562  0.30266  0.66116  Biso   1.000  H
  C3365    1.0000 0.56034  0.38478  0.66860  Biso   1.000  C
  C3366    1.0000 0.56031  0.38473  0.66860  Biso   1.000  C
  H3557    1.0000 0.61726  0.46417  0.67786  Biso   1.000  H
  H3558    1.0000 0.61723  0.46413  0.67786  Biso   1.000  H
  C3367    1.0000 0.08725  0.27717  0.70898  Biso   1.000  C
  C3368    1.0000 0.13912  0.33546  0.72809  Biso   1.000  C
  H3559    1.0000 0.04782  0.22846  0.69217  Biso   1.000  H
  H3560    1.0000 0.30862  0.19365  0.69896  Biso   1.000  H
  C3369    1.0000 0.30252  0.13404  0.71340  Biso   1.000  C
  H3561    1.0000 0.40733  0.27965  0.73127  Biso   1.000  H
  C3370    1.0000 0.36132  0.18659  0.73276  Biso   1.000  C
  C3371    1.0000 0.36130  0.18654  0.73276  Biso   1.000  C
  H3562    1.0000 0.59264  0.38576  0.66377  Biso   1.000  H
  C3372    1.0000 0.03775  0.26538  0.71871  Biso   1.000  C
  C3373    1.0000 0.03773  0.26533  0.71871  Biso   1.000  C
  C3374    1.0000 0.17611  0.31445  0.73699  Biso   1.000  C
  C3375    1.0000 0.16603  0.40775  0.72863  Biso   1.000  C
  C3376    1.0000 0.06905  0.30065  0.73010  Biso   1.000  C
  C3377    1.0000 0.32092  0.13016  0.72606  Biso   1.000  C
  C3378    1.0000 0.26184  0.07126  0.70741  Biso   1.000  C
  H3563    1.0000 0.37484  0.18518  0.74117  Biso   1.000  H
  H3564    1.0000 0.37482  0.18514  0.74117  Biso   1.000  H
  C3379    1.0000 0.97272  0.23085  0.71848  Biso   1.000  C
  H3565    1.0000 0.21902  0.33415  0.73386  Biso   1.000  H
  H3566    1.0000 0.17694  0.32957  0.74587  Biso   1.000  H
  C3380    1.0000 0.15012  0.24465  0.73754  Biso   1.000  C
  H3567    1.0000 0.16163  0.41865  0.73757  Biso   1.000  H
  H3568    1.0000 0.21042  0.42805  0.72676  Biso   1.000  H
  C3381    1.0000 0.13823  0.43376  0.71987  Biso   1.000  C
  C3382    1.0000 0.03424  0.29766  0.74106  Biso   1.000  C
  C3383    1.0000 0.29274  0.06255  0.72947  Biso   1.000  C
  C3384    1.0000 0.25813  0.02728  0.71848  Biso   1.000  C
  C3385    1.0000 0.29395  0.06368  0.69510  Biso   1.000  C
  C3386    1.0000 0.19823  0.06438  0.70381  Biso   1.000  C
  C3387    1.0000 0.25810  0.02723  0.71848  Biso   1.000  C
  C3388    1.0000 0.29393  0.06363  0.69510  Biso   1.000  C
  C3389    1.0000 0.19821  0.06433  0.70381  Biso   1.000  C
  C3390    1.0000 0.92875  0.19056  0.70741  Biso   1.000  C
  C3391    1.0000 0.93744  0.23014  0.72947  Biso   1.000  C
  C3392    1.0000 0.19012  0.22214  0.74456  Biso   1.000  C
  H3569    1.0000 0.14313  0.22898  0.72857  Biso   1.000  H
  H3570    1.0000 0.10966  0.22589  0.74187  Biso   1.000  H
  H3571    1.0000 0.14311  0.22893  0.72857  Biso   1.000  H
  H3572    1.0000 0.10964  0.22584  0.74187  Biso   1.000  H
  H3573    1.0000 0.13824  0.41668  0.71127  Biso   1.000  H
  H3574    1.0000 0.16873  0.47807  0.71937  Biso   1.000  H
  C3393    1.0000 0.07684  0.43067  0.72085  Biso   1.000  C
  H3575    1.0000 0.13822  0.41664  0.71127  Biso   1.000  H
  H3576    1.0000 0.16871  0.47802  0.71937  Biso   1.000  H
  C3394    1.0000 0.07682  0.43063  0.72085  Biso   1.000  C
  C3395    1.0000 0.05272  0.32887  0.75427  Biso   1.000  C
  C3396    1.0000 0.96812  0.26388  0.74065  Biso   1.000  C
  C3397    1.0000 0.96810  0.26383  0.74065  Biso   1.000  C
  C3398    1.0000 0.29571  0.03186  0.74065  Biso   1.000  C
  C3399    1.0000 0.22766  0.96229  0.71871  Biso   1.000  C
  C3400    1.0000 0.22764  0.96224  0.71871  Biso   1.000  C
  C3401    1.0000 0.35444  0.07135  0.69659  Biso   1.000  C
  H3577    1.0000 0.26685  0.02227  0.69157  Biso   1.000  H
  H3578    1.0000 0.29663  0.09367  0.68857  Biso   1.000  H
  H3579    1.0000 0.26683  0.02222  0.69157  Biso   1.000  H
  H3580    1.0000 0.29661  0.09362  0.68857  Biso   1.000  H
  H3581    1.0000 0.20513  0.09647  0.69746  Biso   1.000  H
  H3582    1.0000 0.17303  0.02419  0.69956  Biso   1.000  H
  C3402    1.0000 0.16202  0.06878  0.71487  Biso   1.000  C
  H3583    1.0000 0.20510  0.09643  0.69746  Biso   1.000  H
  H3584    1.0000 0.17301  0.02414  0.69956  Biso   1.000  H
  C3403    1.0000 0.16200  0.06873  0.71487  Biso   1.000  C
  C3404    1.0000 0.86593  0.16848  0.71340  Biso   1.000  C
  C3405    1.0000 0.93633  0.23029  0.69510  Biso   1.000  C
  C3406    1.0000 0.93565  0.13386  0.70381  Biso   1.000  C
  C3407    1.0000 0.86590  0.16843  0.71340  Biso   1.000  C
  C3408    1.0000 0.93631  0.23024  0.69510  Biso   1.000  C
  C3409    1.0000 0.86981  0.19075  0.72606  Biso   1.000  C
  H3585    1.0000 0.20045  0.24165  0.75316  Biso   1.000  H
  H3586    1.0000 0.16422  0.17746  0.74596  Biso   1.000  H
  C3410    1.0000 0.24505  0.23248  0.73884  Biso   1.000  C
  C3411    1.0000 0.24503  0.23244  0.73884  Biso   1.000  C
  H3587    1.0000 0.07153  0.44265  0.72957  Biso   1.000  H
  H3588    1.0000 0.04354  0.38805  0.71926  Biso   1.000  H
  C3412    1.0000 0.07294  0.47578  0.71049  Biso   1.000  C
  C3413    1.0000 0.07291  0.47573  0.71049  Biso   1.000  C
  C3414    1.0000 0.11061  0.36774  0.76011  Biso   1.000  C
  C3415    1.0000 0.99854  0.31296  0.76110  Biso   1.000  C
  C3416    1.0000 0.93975  0.27188  0.75353  Biso   1.000  C
  C3417    1.0000 0.93972  0.27183  0.75353  Biso   1.000  C
  C3418    1.0000 0.33212  0.06026  0.75353  Biso   1.000  C
  C3419    1.0000 0.26343  0.96575  0.74106  Biso   1.000  C
  C3420    1.0000 0.23166  0.93099  0.73010  Biso   1.000  C
  C3421    1.0000 0.18994  0.91279  0.70898  Biso   1.000  C
  C3422    1.0000 0.23164  0.93094  0.73010  Biso   1.000  C
  C3423    1.0000 0.18992  0.91274  0.70898  Biso   1.000  C
  H3589    1.0000 0.35243  0.03865  0.70217  Biso   1.000  H
  H3590    1.0000 0.38214  0.11145  0.70067  Biso   1.000  H
  C3424    1.0000 0.38022  0.06798  0.68285  Biso   1.000  C
  C3425    1.0000 0.38020  0.06793  0.68285  Biso   1.000  C
  H3591    1.0000 0.18911  0.10546  0.72007  Biso   1.000  H
  H3592    1.0000 0.14804  0.03238  0.72047  Biso   1.000  H
  C3426    1.0000 0.10422  0.07327  0.71031  Biso   1.000  C
  H3593    1.0000 0.14801  0.03233  0.72047  Biso   1.000  H
  C3427    1.0000 0.10420  0.07322  0.71031  Biso   1.000  C
  C3428    1.0000 0.80792  0.12979  0.70745  Biso   1.000  C
  C3429    1.0000 0.80790  0.12974  0.70745  Biso   1.000  C
  H3594    1.0000 0.97775  0.24456  0.69157  Biso   1.000  H
  H3595    1.0000 0.90634  0.20296  0.68857  Biso   1.000  H
  C3430    1.0000 0.92865  0.28306  0.69659  Biso   1.000  C
  H3596    1.0000 0.90353  0.10869  0.69746  Biso   1.000  H
  H3597    1.0000 0.97586  0.14888  0.69956  Biso   1.000  H
  C3431    1.0000 0.93123  0.09325  0.71487  Biso   1.000  C
  H3598    1.0000 0.90351  0.10864  0.69746  Biso   1.000  H
  H3599    1.0000 0.97583  0.14883  0.69956  Biso   1.000  H
  C3432    1.0000 0.81343  0.17475  0.73276  Biso   1.000  C
  H3600    1.0000 0.26563  0.21756  0.74456  Biso   1.000  H
  H3601    1.0000 0.27175  0.27656  0.73736  Biso   1.000  H
  H3602    1.0000 0.23585  0.21068  0.73067  Biso   1.000  H
  H3603    1.0000 0.23583  0.21063  0.73067  Biso   1.000  H
  H3604    1.0000 0.10422  0.51816  0.71237  Biso   1.000  H
  H3605    1.0000 0.03224  0.47185  0.71087  Biso   1.000  H
  H3606    1.0000 0.07984  0.46487  0.70187  Biso   1.000  H
  H3607    1.0000 0.07982  0.46483  0.70187  Biso   1.000  H
  C3433    1.0000 0.11084  0.38805  0.77277  Biso   1.000  C
  H3608    1.0000 0.14773  0.37958  0.75566  Biso   1.000  H
  H3609    1.0000 0.14771  0.37954  0.75566  Biso   1.000  H
  C3434    1.0000 0.00133  0.33476  0.77381  Biso   1.000  C
  C3435    1.0000 0.90155  0.21096  0.76116  Biso   1.000  C
  C3436    1.0000 0.90341  0.30795  0.75144  Biso   1.000  C
  C3437    1.0000 0.31442  0.00145  0.76110  Biso   1.000  C
  C3438    1.0000 0.30945  0.09849  0.76116  Biso   1.000  C
  C3439    1.0000 0.40452  0.09657  0.75144  Biso   1.000  C
  C3440    1.0000 0.30943  0.09844  0.76116  Biso   1.000  C
  C3441    1.0000 0.40450  0.09652  0.75144  Biso   1.000  C
  C3442    1.0000 0.27615  0.94727  0.75427  Biso   1.000  C
  C3443    1.0000 0.27612  0.94722  0.75427  Biso   1.000  C
  C3444    1.0000 0.19631  0.86086  0.72809  Biso   1.000  C
  C3445    1.0000 0.17274  0.85529  0.71410  Biso   1.000  C
  C3446    1.0000 0.17024  0.91415  0.69610  Biso   1.000  C
  C3447    1.0000 0.17272  0.85524  0.71410  Biso   1.000  C
  C3448    1.0000 0.39332  0.12286  0.67419  Biso   1.000  C
  H3610    1.0000 0.41853  0.06648  0.68397  Biso   1.000  H
  H3611    1.0000 0.35004  0.02957  0.67857  Biso   1.000  H
  H3612    1.0000 0.41851  0.06644  0.68397  Biso   1.000  H
  H3613    1.0000 0.35001  0.02952  0.67857  Biso   1.000  H
  C3449    1.0000 0.11443  0.12675  0.70085  Biso   1.000  C
  H3614    1.0000 0.07533  0.03397  0.70606  Biso   1.000  H
  H3615    1.0000 0.08353  0.07678  0.71807  Biso   1.000  H
  H3616    1.0000 0.07531  0.03392  0.70606  Biso   1.000  H
  H3617    1.0000 0.08350  0.07673  0.71807  Biso   1.000  H
  C3450    1.0000 0.75312  0.11346  0.71408  Biso   1.000  C
  H3618    1.0000 0.80634  0.11496  0.69896  Biso   1.000  H
  H3619    1.0000 0.96133  0.31375  0.70217  Biso   1.000  H
  H3620    1.0000 0.88853  0.27066  0.70067  Biso   1.000  H
  C3451    1.0000 0.93202  0.31226  0.68285  Biso   1.000  C
  H3621    1.0000 0.89454  0.08365  0.72007  Biso   1.000  H
  H3622    1.0000 0.96763  0.11566  0.72047  Biso   1.000  H
  C3452    1.0000 0.92675  0.03097  0.71031  Biso   1.000  C
  C3453    1.0000 0.92673  0.03093  0.71031  Biso   1.000  C
  C3454    1.0000 0.75702  0.13746  0.72682  Biso   1.000  C
  H3623    1.0000 0.81485  0.18967  0.74117  Biso   1.000  H
  H3624    1.0000 0.81483  0.18963  0.74117  Biso   1.000  H
  C3455    1.0000 0.05852  0.37247  0.77963  Biso   1.000  C
  H3625    1.0000 0.14925  0.41397  0.77677  Biso   1.000  H
  C3456    1.0000 0.05850  0.37242  0.77963  Biso   1.000  C
  H3626    1.0000 0.14922  0.41392  0.77677  Biso   1.000  H
  H3627    1.0000 0.96464  0.32386  0.77836  Biso   1.000  H
  H3628    1.0000 0.89243  0.22126  0.76976  Biso   1.000  H
  H3629    1.0000 0.86192  0.18617  0.75666  Biso   1.000  H
  C3457    1.0000 0.93131  0.17105  0.76297  Biso   1.000  C
  H3630    1.0000 0.86493  0.28058  0.74677  Biso   1.000  H
  H3631    1.0000 0.89202  0.31637  0.75997  Biso   1.000  H
  C3458    1.0000 0.93664  0.36817  0.74415  Biso   1.000  C
  H3632    1.0000 0.86490  0.28053  0.74677  Biso   1.000  H
  H3633    1.0000 0.89200  0.31633  0.75997  Biso   1.000  H
  C3459    1.0000 0.33346  0.99869  0.77381  Biso   1.000  C
  C3460    1.0000 0.33344  0.99864  0.77381  Biso   1.000  C
  H3634    1.0000 0.32882  0.10756  0.76976  Biso   1.000  H
  H3635    1.0000 0.32422  0.13807  0.75666  Biso   1.000  H
  C3461    1.0000 0.23973  0.06868  0.76297  Biso   1.000  C
  H3636    1.0000 0.32420  0.13802  0.75666  Biso   1.000  H
  C3462    1.0000 0.23971  0.06864  0.76297  Biso   1.000  C
  C3463    1.0000 0.43151  0.06335  0.74415  Biso   1.000  C
  H3637    1.0000 0.41563  0.13507  0.74677  Biso   1.000  H
  H3638    1.0000 0.42433  0.10798  0.75997  Biso   1.000  H
  H3639    1.0000 0.41561  0.13503  0.74677  Biso   1.000  H
  H3640    1.0000 0.42431  0.10794  0.75997  Biso   1.000  H
  C3464    1.0000 0.25711  0.88935  0.76011  Biso   1.000  C
  C3465    1.0000 0.13834  0.82385  0.73699  Biso   1.000  C
  C3466    1.0000 0.24173  0.83395  0.72863  Biso   1.000  C
  C3467    1.0000 0.13682  0.79956  0.70730  Biso   1.000  C
  C3468    1.0000 0.13554  0.85917  0.68938  Biso   1.000  C
  H3641    1.0000 0.18063  0.95218  0.69217  Biso   1.000  H
  C3469    1.0000 0.13552  0.85912  0.68938  Biso   1.000  C
  H3642    1.0000 0.18061  0.95214  0.69217  Biso   1.000  H
  H3643    1.0000 0.35525  0.12338  0.67266  Biso   1.000  H
  H3644    1.0000 0.41014  0.11907  0.66597  Biso   1.000  H
  H3645    1.0000 0.42313  0.16109  0.67847  Biso   1.000  H
  H3646    1.0000 0.35522  0.12333  0.67266  Biso   1.000  H
  H3647    1.0000 0.41012  0.11903  0.66597  Biso   1.000  H
  H3648    1.0000 0.42311  0.16104  0.67847  Biso   1.000  H
  H3649    1.0000 0.13484  0.12455  0.69307  Biso   1.000  H
  H3650    1.0000 0.14003  0.16637  0.70506  Biso   1.000  H
  H3651    1.0000 0.07474  0.12258  0.69856  Biso   1.000  H
  H3652    1.0000 0.14001  0.16633  0.70506  Biso   1.000  H
  H3653    1.0000 0.07472  0.12253  0.69856  Biso   1.000  H
  C3470    1.0000 0.69082  0.07654  0.70813  Biso   1.000  C
  H3654    1.0000 0.93353  0.35207  0.68397  Biso   1.000  H
  H3655    1.0000 0.97043  0.32044  0.67857  Biso   1.000  H
  C3471    1.0000 0.87713  0.27048  0.67419  Biso   1.000  C
  H3656    1.0000 0.93351  0.35202  0.68397  Biso   1.000  H
  C3472    1.0000 0.87711  0.27043  0.67419  Biso   1.000  C
  C3473    1.0000 0.87324  0.98765  0.70085  Biso   1.000  C
  H3657    1.0000 0.96602  0.04136  0.70606  Biso   1.000  H
  H3658    1.0000 0.92325  0.00678  0.71807  Biso   1.000  H
  H3659    1.0000 0.92322  0.00674  0.71807  Biso   1.000  H
  H3660    1.0000 0.72032  0.12768  0.73127  Biso   1.000  H
  H3661    1.0000 0.72030  0.12763  0.73127  Biso   1.000  H
  C3474    1.0000 0.06263  0.39535  0.79337  Biso   1.000  C
  H3662    1.0000 0.97226  0.19679  0.76687  Biso   1.000  H
  H3663    1.0000 0.93774  0.15837  0.75437  Biso   1.000  H
  C3475    1.0000 0.89533  0.11294  0.77128  Biso   1.000  C
  H3664    1.0000 0.97223  0.19674  0.76687  Biso   1.000  H
  H3665    1.0000 0.93771  0.15833  0.75437  Biso   1.000  H
  H3666    1.0000 0.94474  0.35998  0.73527  Biso   1.000  H
  H3667    1.0000 0.97663  0.39507  0.74837  Biso   1.000  H
  C3476    1.0000 0.89933  0.40167  0.74365  Biso   1.000  C
  H3668    1.0000 0.94471  0.35993  0.73527  Biso   1.000  H
  H3669    1.0000 0.97660  0.39502  0.74837  Biso   1.000  H
  C3477    1.0000 0.31393  0.94147  0.77963  Biso   1.000  C
  C3478    1.0000 0.31390  0.94142  0.77963  Biso   1.000  C
  H3670    1.0000 0.35922  0.03537  0.77836  Biso   1.000  H
  H3671    1.0000 0.35919  0.03532  0.77836  Biso   1.000  H
  H3672    1.0000 0.22453  0.02774  0.76687  Biso   1.000  H
  C3479    1.0000 0.21765  0.10466  0.77128  Biso   1.000  C
  H3673    1.0000 0.22064  0.06227  0.75437  Biso   1.000  H
  H3674    1.0000 0.22062  0.06223  0.75437  Biso   1.000  H
  H3675    1.0000 0.41523  0.05526  0.73527  Biso   1.000  H
  H3676    1.0000 0.41844  0.02335  0.74837  Biso   1.000  H
  C3480    1.0000 0.50233  0.10069  0.74365  Biso   1.000  C
  C3481    1.0000 0.50230  0.10064  0.74365  Biso   1.000  C
  C3482    1.0000 0.27724  0.88916  0.77277  Biso   1.000  C
  H3677    1.0000 0.23184  0.85225  0.75566  Biso   1.000  H
  H3678    1.0000 0.11511  0.78094  0.73386  Biso   1.000  H
  H3679    1.0000 0.15261  0.82305  0.74587  Biso   1.000  H
  C3483    1.0000 0.09454  0.84986  0.73754  Biso   1.000  C
  H3680    1.0000 0.25702  0.83835  0.73757  Biso   1.000  H
  H3681    1.0000 0.21763  0.78955  0.72676  Biso   1.000  H
  C3484    1.0000 0.29554  0.86174  0.71987  Biso   1.000  C
  H3682    1.0000 0.12572  0.76157  0.71127  Biso   1.000  H
  C3485    1.0000 0.11814  0.80055  0.69474  Biso   1.000  C
  H3683    1.0000 0.12570  0.76153  0.71127  Biso   1.000  H
  H3684    1.0000 0.12294  0.86095  0.68086  Biso   1.000  H
  N140     1.0000 0.68500  0.06124  0.69593  Biso   1.000  N
  H3685    1.0000 0.87663  0.23188  0.67266  Biso   1.000  H
  H3686    1.0000 0.88094  0.29106  0.66597  Biso   1.000  H
  H3687    1.0000 0.83893  0.26205  0.67847  Biso   1.000  H
  H3688    1.0000 0.87661  0.23183  0.67266  Biso   1.000  H
  H3689    1.0000 0.83363  0.97366  0.70506  Biso   1.000  H
  H3690    1.0000 0.87743  0.95218  0.69856  Biso   1.000  H
  H3691    1.0000 0.87741  0.95214  0.69856  Biso   1.000  H
  H3692    1.0000 0.87542  0.01025  0.69307  Biso   1.000  H
  N141     1.0000 0.01624  0.38702  0.79996  Biso   1.000  N
  N142     1.0000 0.01622  0.38697  0.79996  Biso   1.000  N
  H3693    1.0000 0.85241  0.09016  0.76817  Biso   1.000  H
  H3694    1.0000 0.91344  0.08637  0.77007  Biso   1.000  H
  C3486    1.0000 0.89505  0.12487  0.78432  Biso   1.000  C
  H3695    1.0000 0.91342  0.08632  0.77007  Biso   1.000  H
  C3487    1.0000 0.89503  0.12483  0.78432  Biso   1.000  C
  H3696    1.0000 0.89112  0.41027  0.75247  Biso   1.000  H
  H3697    1.0000 0.85944  0.37528  0.73937  Biso   1.000  H
  C3488    1.0000 0.93851  0.46745  0.73553  Biso   1.000  C
  H3698    1.0000 0.89109  0.41023  0.75247  Biso   1.000  H
  H3699    1.0000 0.85941  0.37523  0.73937  Biso   1.000  H
  C3489    1.0000 0.33274  0.93735  0.79337  Biso   1.000  C
  H3700    1.0000 0.23772  0.14757  0.76817  Biso   1.000  H
  H3701    1.0000 0.17294  0.08656  0.77007  Biso   1.000  H
  C3490    1.0000 0.22984  0.10499  0.78432  Biso   1.000  C
  C3491    1.0000 0.22982  0.10494  0.78432  Biso   1.000  C
  H3702    1.0000 0.51582  0.14055  0.73937  Biso   1.000  H
  H3703    1.0000 0.51914  0.10887  0.75247  Biso   1.000  H
  C3492    1.0000 0.52896  0.06148  0.73553  Biso   1.000  C
  H3704    1.0000 0.51912  0.10883  0.75247  Biso   1.000  H
  C3493    1.0000 0.52893  0.06143  0.73553  Biso   1.000  C
  H3705    1.0000 0.26472  0.85075  0.77677  Biso   1.000  H
  H3706    1.0000 0.08585  0.85688  0.72857  Biso   1.000  H
  H3707    1.0000 0.11626  0.89038  0.74187  Biso   1.000  H
  C3494    1.0000 0.03204  0.80986  0.74456  Biso   1.000  C
  H3708    1.0000 0.08583  0.85683  0.72857  Biso   1.000  H
  H3709    1.0000 0.11624  0.89033  0.74187  Biso   1.000  H
  H3710    1.0000 0.27844  0.86174  0.71127  Biso   1.000  H
  H3711    1.0000 0.30936  0.83129  0.71937  Biso   1.000  H
  C3495    1.0000 0.35385  0.92318  0.72085  Biso   1.000  C
  H3712    1.0000 0.30934  0.83124  0.71937  Biso   1.000  H
  C3496    1.0000 0.35383  0.92313  0.72085  Biso   1.000  C
  C3497    1.0000 0.07954  0.74319  0.68706  Biso   1.000  C
  C3498    1.0000 0.07951  0.74314  0.68706  Biso   1.000  C
  C3499    1.0000 0.62194  0.03116  0.69050  Biso   1.000  C
  C3500    1.0000 0.02778  0.41285  0.81331  Biso   1.000  C
  C3501    1.0000 0.02775  0.41280  0.81331  Biso   1.000  C
  H3713    1.0000 0.93734  0.14729  0.78746  Biso   1.000  H
  H3714    1.0000 0.87214  0.08618  0.78896  Biso   1.000  H
  H3715    1.0000 0.87562  0.14986  0.78567  Biso   1.000  H
  H3716    1.0000 0.93731  0.14724  0.78746  Biso   1.000  H
  H3717    1.0000 0.87212  0.08613  0.78896  Biso   1.000  H
  H3718    1.0000 0.97633  0.49496  0.74017  Biso   1.000  H
  H3719    1.0000 0.91341  0.48696  0.73467  Biso   1.000  H
  H3720    1.0000 0.94894  0.45907  0.72697  Biso   1.000  H
  H3721    1.0000 0.94892  0.45903  0.72697  Biso   1.000  H
  N143     1.0000 0.37077  0.98376  0.79996  Biso   1.000  N
  H3722    1.0000 0.20993  0.06265  0.78746  Biso   1.000  H
  H3723    1.0000 0.27421  0.12436  0.78567  Biso   1.000  H
  H3724    1.0000 0.21402  0.12787  0.78896  Biso   1.000  H
  H3725    1.0000 0.21399  0.12782  0.78896  Biso   1.000  H
  H3726    1.0000 0.57355  0.08656  0.73467  Biso   1.000  H
  H3727    1.0000 0.51013  0.05104  0.72697  Biso   1.000  H
  H3728    1.0000 0.51864  0.02367  0.74017  Biso   1.000  H
  H3729    1.0000 0.51862  0.02363  0.74017  Biso   1.000  H
  C3502    1.0000 0.98746  0.75498  0.73884  Biso   1.000  C
  C3503    1.0000 0.98743  0.75493  0.73884  Biso   1.000  C
  H3730    1.0000 0.04123  0.79956  0.75316  Biso   1.000  H
  H3731    1.0000 0.01323  0.83578  0.74596  Biso   1.000  H
  H3732    1.0000 0.01321  0.83573  0.74596  Biso   1.000  H
  C3504    1.0000 0.40283  0.92706  0.71049  Biso   1.000  C
  H3733    1.0000 0.37112  0.92846  0.72957  Biso   1.000  H
  H3734    1.0000 0.34453  0.95649  0.71926  Biso   1.000  H
  H3735    1.0000 0.34451  0.95644  0.71926  Biso   1.000  H
  N144     1.0000 0.06722  0.69036  0.69083  Biso   1.000  N
  C3505    1.0000 0.61231  0.97455  0.68219  Biso   1.000  C
  H3736    1.0000 0.59133  0.01638  0.69767  Biso   1.000  H
  C3506    1.0000 0.61543  0.08127  0.68214  Biso   1.000  C
  H3737    1.0000 0.59131  0.01633  0.69767  Biso   1.000  H
  C3507    1.0000 0.61541  0.08122  0.68214  Biso   1.000  C
  C3508    1.0000 0.98295  0.36185  0.82261  Biso   1.000  C
  C3509    1.0000 0.98293  0.36180  0.82261  Biso   1.000  C
  H3738    1.0000 0.07074  0.42487  0.81576  Biso   1.000  H
  C3510    1.0000 0.02182  0.47054  0.81329  Biso   1.000  C
  H3739    1.0000 0.07072  0.42482  0.81576  Biso   1.000  H
  C3511    1.0000 0.02179  0.47049  0.81329  Biso   1.000  C
  C3512    1.0000 0.38505  0.97221  0.81331  Biso   1.000  C
  H3740    1.0000 0.97482  0.76415  0.73067  Biso   1.000  H
  H3741    1.0000 0.95194  0.73434  0.74456  Biso   1.000  H
  H3742    1.0000 0.00481  0.72826  0.73736  Biso   1.000  H
  H3743    1.0000 0.41392  0.89576  0.71237  Biso   1.000  H
  H3744    1.0000 0.43964  0.96776  0.71087  Biso   1.000  H
  H3745    1.0000 0.38505  0.92018  0.70187  Biso   1.000  H
  H3746    1.0000 0.38503  0.92013  0.70187  Biso   1.000  H
  C3513    1.0000 0.02545  0.63778  0.68219  Biso   1.000  C
  C3514    1.0000 0.02543  0.63773  0.68219  Biso   1.000  C
  N145     1.0000 0.62315  0.93277  0.69083  Biso   1.000  N
  H3747    1.0000 0.64312  0.98957  0.67507  Biso   1.000  H
  C3515    1.0000 0.54681  0.93876  0.67632  Biso   1.000  C
  C3516    1.0000 0.66223  0.11935  0.67341  Biso   1.000  C
  C3517    1.0000 0.56753  0.09105  0.68402  Biso   1.000  C
  N146     1.0000 0.99337  0.30804  0.82158  Biso   1.000  N
  H3748    1.0000 0.94003  0.34838  0.81986  Biso   1.000  H
  C3518    1.0000 0.98995  0.38159  0.83682  Biso   1.000  C
  H3749    1.0000 0.94001  0.34833  0.81986  Biso   1.000  H
  C3519    1.0000 0.07143  0.52794  0.81511  Biso   1.000  C
  C3520    1.0000 0.96443  0.46637  0.81105  Biso   1.000  C
  C3521    1.0000 0.96440  0.46632  0.81105  Biso   1.000  C
  H3750    1.0000 0.35413  0.92926  0.81576  Biso   1.000  H
  C3522    1.0000 0.44870  0.97820  0.81329  Biso   1.000  C
  C3523    1.0000 0.44868  0.97815  0.81329  Biso   1.000  C
  C3524    1.0000 0.37892  0.01708  0.82261  Biso   1.000  C
  C3525    1.0000 0.37890  0.01703  0.82261  Biso   1.000  C
  C3526    1.0000 0.96884  0.59076  0.69050  Biso   1.000  C
  H3751    1.0000 0.01043  0.65359  0.67507  Biso   1.000  H
  C3527    1.0000 0.06125  0.60807  0.67632  Biso   1.000  C
  H3752    1.0000 0.01040  0.65354  0.67507  Biso   1.000  H
  C3528    1.0000 0.66363  0.92046  0.68706  Biso   1.000  C
  C3529    1.0000 0.53823  0.93586  0.66304  Biso   1.000  C
  C3530    1.0000 0.49462  0.90675  0.68391  Biso   1.000  C
  H3753    1.0000 0.69472  0.11107  0.67207  Biso   1.000  H
  C3531    1.0000 0.66432  0.16745  0.66666  Biso   1.000  C
  H3754    1.0000 0.69469  0.11103  0.67207  Biso   1.000  H
  H3755    1.0000 0.53513  0.06597  0.68967  Biso   1.000  H
  C3532    1.0000 0.56742  0.14336  0.67675  Biso   1.000  C
  H3756    1.0000 0.53511  0.06592  0.68967  Biso   1.000  H
  C3533    1.0000 0.94583  0.25504  0.81977  Biso   1.000  C
  C3534    1.0000 0.94581  0.25499  0.81977  Biso   1.000  C
  C3535    1.0000 0.94353  0.38786  0.84312  Biso   1.000  C
  C3536    1.0000 0.04111  0.39025  0.84409  Biso   1.000  C
  C3537    1.0000 0.04109  0.39020  0.84409  Biso   1.000  C
  H3757    1.0000 0.11032  0.53215  0.81686  Biso   1.000  H
  C3538    1.0000 0.06583  0.58198  0.81444  Biso   1.000  C
  C3539    1.0000 0.06581  0.58194  0.81444  Biso   1.000  C
  H3758    1.0000 0.92883  0.42735  0.81007  Biso   1.000  H
  C3540    1.0000 0.95962  0.51957  0.81026  Biso   1.000  C
  C3541    1.0000 0.95960  0.51952  0.81026  Biso   1.000  C
  C3542    1.0000 0.50194  0.03556  0.81105  Biso   1.000  C
  C3543    1.0000 0.45654  0.92856  0.81511  Biso   1.000  C
  N147     1.0000 0.31471  0.00664  0.82158  Biso   1.000  N
  H3759    1.0000 0.40835  0.05998  0.81986  Biso   1.000  H
  C3544    1.0000 0.39166  0.01006  0.83682  Biso   1.000  C
  H3760    1.0000 0.40833  0.05993  0.81986  Biso   1.000  H
  C3545    1.0000 0.39164  0.01001  0.83682  Biso   1.000  C
  N148     1.0000 0.93876  0.62379  0.69593  Biso   1.000  N
  H3761    1.0000 0.98364  0.57499  0.69767  Biso   1.000  H
  C3546    1.0000 0.91876  0.53419  0.68214  Biso   1.000  C
  N149     1.0000 0.93873  0.62374  0.69593  Biso   1.000  N
  H3762    1.0000 0.98362  0.57494  0.69767  Biso   1.000  H
  C3547    1.0000 0.91873  0.53414  0.68214  Biso   1.000  C
  C3548    1.0000 0.06415  0.60236  0.66304  Biso   1.000  C
  C3549    1.0000 0.09324  0.58785  0.68391  Biso   1.000  C
  C3550    1.0000 0.68242  0.88186  0.69474  Biso   1.000  C
  H3763    1.0000 0.57262  0.95625  0.65756  Biso   1.000  H
  C3551    1.0000 0.47883  0.90287  0.65770  Biso   1.000  C
  C3552    1.0000 0.47880  0.90282  0.65770  Biso   1.000  C
  H3764    1.0000 0.49913  0.90685  0.69296  Biso   1.000  H
  C3553    1.0000 0.43582  0.87447  0.67861  Biso   1.000  C
  C3554    1.0000 0.43579  0.87442  0.67861  Biso   1.000  C
  C3555    1.0000 0.61520  0.17554  0.66860  Biso   1.000  C
  H3765    1.0000 0.69733  0.19295  0.66116  Biso   1.000  H
  H3766    1.0000 0.53586  0.15309  0.67786  Biso   1.000  H
  H3767    1.0000 0.53584  0.15304  0.67786  Biso   1.000  H
  C3556    1.0000 0.94965  0.19777  0.81900  Biso   1.000  C
  H3768    1.0000 0.90903  0.38225  0.83837  Biso   1.000  H
  C3557    1.0000 0.94704  0.40185  0.85625  Biso   1.000  C
  H3769    1.0000 0.07325  0.38726  0.84006  Biso   1.000  H
  C3558    1.0000 0.04482  0.40358  0.85750  Biso   1.000  C
  C3559    1.0000 0.04480  0.40354  0.85750  Biso   1.000  C
  C3560    1.0000 0.00842  0.57567  0.81195  Biso   1.000  C
  H3770    1.0000 0.10063  0.62128  0.81567  Biso   1.000  H
  H3771    1.0000 0.10061  0.62124  0.81567  Biso   1.000  H
  H3772    1.0000 0.92093  0.51569  0.80847  Biso   1.000  H
  H3773    1.0000 0.92091  0.51564  0.80847  Biso   1.000  H
  H3774    1.0000 0.49855  0.07116  0.81007  Biso   1.000  H
  C3561    1.0000 0.55994  0.04038  0.81026  Biso   1.000  C
  C3562    1.0000 0.55991  0.04033  0.81026  Biso   1.000  C
  H3775    1.0000 0.42182  0.88968  0.81686  Biso   1.000  H
  C3563    1.0000 0.51615  0.93417  0.81444  Biso   1.000  C
  H3776    1.0000 0.42180  0.88963  0.81686  Biso   1.000  H
  C3564    1.0000 0.51613  0.93412  0.81444  Biso   1.000  C
  C3565    1.0000 0.30922  0.05418  0.81977  Biso   1.000  C
  C3566    1.0000 0.34913  0.95887  0.84409  Biso   1.000  C
  C3567    1.0000 0.44432  0.05647  0.84312  Biso   1.000  C
  C3568    1.0000 0.44430  0.05642  0.84312  Biso   1.000  C
  C3569    1.0000 0.92343  0.61429  0.70813  Biso   1.000  C
  C3570    1.0000 0.92341  0.61424  0.70813  Biso   1.000  C
  C3571    1.0000 0.88062  0.54285  0.67341  Biso   1.000  C
  C3572    1.0000 0.90893  0.47645  0.68402  Biso   1.000  C
  H3777    1.0000 0.04371  0.61635  0.65756  Biso   1.000  H
  C3573    1.0000 0.09714  0.57597  0.65770  Biso   1.000  C
  C3574    1.0000 0.09712  0.57592  0.65770  Biso   1.000  C
  H3778    1.0000 0.09313  0.59225  0.69296  Biso   1.000  H
  C3575    1.0000 0.12554  0.56137  0.67861  Biso   1.000  C
  C3576    1.0000 0.12552  0.56133  0.67861  Biso   1.000  C
  C3577    1.0000 0.66273  0.86315  0.70730  Biso   1.000  C
  C3578    1.0000 0.72364  0.86446  0.68938  Biso   1.000  C
  H3779    1.0000 0.47425  0.90076  0.64867  Biso   1.000  H
  C3579    1.0000 0.42864  0.87438  0.66520  Biso   1.000  C
  C3580    1.0000 0.42862  0.87433  0.66520  Biso   1.000  C
  H3780    1.0000 0.40114  0.85276  0.68397  Biso   1.000  H
  H3781    1.0000 0.61424  0.20684  0.66377  Biso   1.000  H
  C3581    1.0000 0.00641  0.19824  0.81886  Biso   1.000  C
  C3582    1.0000 0.89463  0.13999  0.81889  Biso   1.000  C
  C3583    1.0000 0.99653  0.40887  0.86335  Biso   1.000  C
  H3782    1.0000 0.91564  0.40648  0.86026  Biso   1.000  H
  C3584    1.0000 0.99651  0.40882  0.86335  Biso   1.000  C
  H3783    1.0000 0.91562  0.40644  0.86026  Biso   1.000  H
  H3784    1.0000 0.07882  0.40878  0.86247  Biso   1.000  H
  H3785    1.0000 0.07880  0.40873  0.86247  Biso   1.000  H
  H3786    1.0000 0.00392  0.61076  0.81147  Biso   1.000  H
  C3585    1.0000 0.56722  0.99158  0.81195  Biso   1.000  C
  C3586    1.0000 0.56720  0.99153  0.81195  Biso   1.000  C
  H3787    1.0000 0.59472  0.07907  0.80847  Biso   1.000  H
  H3788    1.0000 0.59470  0.07902  0.80847  Biso   1.000  H
  H3789    1.0000 0.52063  0.89936  0.81567  Biso   1.000  H
  C3587    1.0000 0.24815  0.05034  0.81900  Biso   1.000  C
  C3588    1.0000 0.24812  0.05030  0.81900  Biso   1.000  C
  H3790    1.0000 0.31404  0.92678  0.84006  Biso   1.000  H
  C3589    1.0000 0.35875  0.95518  0.85750  Biso   1.000  C
  H3791    1.0000 0.31401  0.92673  0.84006  Biso   1.000  H
  C3590    1.0000 0.35872  0.95513  0.85750  Biso   1.000  C
  H3792    1.0000 0.47323  0.09095  0.83837  Biso   1.000  H
  C3591    1.0000 0.45484  0.05296  0.85625  Biso   1.000  C
  C3592    1.0000 0.88652  0.63965  0.71408  Biso   1.000  C
  H3793    1.0000 0.88890  0.58364  0.67207  Biso   1.000  H
  C3593    1.0000 0.83254  0.49685  0.66666  Biso   1.000  C
  H3794    1.0000 0.93401  0.46916  0.68967  Biso   1.000  H
  C3594    1.0000 0.85664  0.42405  0.67675  Biso   1.000  C
  H3795    1.0000 0.09924  0.57344  0.64867  Biso   1.000  H
  C3595    1.0000 0.12563  0.55426  0.66520  Biso   1.000  C
  H3796    1.0000 0.14724  0.54837  0.68397  Biso   1.000  H
  H3797    1.0000 0.63585  0.87428  0.71127  Biso   1.000  H
  C3596    1.0000 0.68251  0.82726  0.71410  Biso   1.000  C
  H3798    1.0000 0.63582  0.87424  0.71127  Biso   1.000  H
  H3799    1.0000 0.73804  0.87704  0.68086  Biso   1.000  H
  C3597    1.0000 0.74395  0.82979  0.69610  Biso   1.000  C
  C3598    1.0000 0.74392  0.82974  0.69610  Biso   1.000  C
  H3800    1.0000 0.38896  0.85459  0.66147  Biso   1.000  H
  H3801    1.0000 0.38894  0.85454  0.66147  Biso   1.000  H
  H3802    1.0000 0.04386  0.23618  0.81886  Biso   1.000  H
  C3599    1.0000 0.00756  0.14364  0.81873  Biso   1.000  C
  H3803    1.0000 0.04384  0.23613  0.81886  Biso   1.000  H
  C3600    1.0000 0.00753  0.14359  0.81873  Biso   1.000  C
  H3804    1.0000 0.85624  0.13858  0.81886  Biso   1.000  H
  C3601    1.0000 0.89590  0.08492  0.81879  Biso   1.000  C
  H3805    1.0000 0.85622  0.13854  0.81886  Biso   1.000  H
  C3602    1.0000 0.89588  0.08487  0.81879  Biso   1.000  C
  H3806    1.0000 0.99845  0.41748  0.87227  Biso   1.000  H
  H3807    1.0000 0.99842  0.41743  0.87227  Biso   1.000  H
  H3808    1.0000 0.60683  0.99607  0.81147  Biso   1.000  H
  H3809    1.0000 0.60680  0.99602  0.81147  Biso   1.000  H
  C3603    1.0000 0.24535  0.10536  0.81889  Biso   1.000  C
  C3604    1.0000 0.19185  0.99359  0.81886  Biso   1.000  C
  C3605    1.0000 0.19183  0.99354  0.81886  Biso   1.000  C
  C3606    1.0000 0.41235  0.00346  0.86335  Biso   1.000  C
  H3810    1.0000 0.32995  0.92116  0.86247  Biso   1.000  H
  H3811    1.0000 0.49084  0.08436  0.86026  Biso   1.000  H
  C3607    1.0000 0.87024  0.67815  0.70745  Biso   1.000  C
  C3608    1.0000 0.86254  0.61958  0.72682  Biso   1.000  C
  C3609    1.0000 0.86252  0.61953  0.72682  Biso   1.000  C
  C3610    1.0000 0.82446  0.43968  0.66860  Biso   1.000  C
  H3812    1.0000 0.80706  0.50439  0.66116  Biso   1.000  H
  C3611    1.0000 0.82444  0.43963  0.66860  Biso   1.000  C
  H3813    1.0000 0.80703  0.50434  0.66116  Biso   1.000  H
  H3814    1.0000 0.84694  0.38279  0.67786  Biso   1.000  H
  H3815    1.0000 0.84692  0.38274  0.67786  Biso   1.000  H
  H3816    1.0000 0.14543  0.53438  0.66147  Biso   1.000  H
  H3817    1.0000 0.14541  0.53433  0.66147  Biso   1.000  H
  C3612    1.0000 0.72281  0.81005  0.70898  Biso   1.000  C
  C3613    1.0000 0.66452  0.80368  0.72809  Biso   1.000  C
  C3614    1.0000 0.66450  0.80364  0.72809  Biso   1.000  C
  H3818    1.0000 0.77151  0.81936  0.69217  Biso   1.000  H
  C3615    1.0000 0.06496  0.13648  0.81888  Biso   1.000  C
  C3616    1.0000 0.95265  0.08520  0.81872  Biso   1.000  C
  H3819    1.0000 0.85854  0.04697  0.81876  Biso   1.000  H
  H3820    1.0000 0.85851  0.04693  0.81876  Biso   1.000  H
  C3617    1.0000 0.18900  0.10410  0.81879  Biso   1.000  C
  H3821    1.0000 0.28234  0.14378  0.81886  Biso   1.000  H
  H3822    1.0000 0.28232  0.14373  0.81886  Biso   1.000  H
  H3823    1.0000 0.19234  0.95616  0.81886  Biso   1.000  H
  C3618    1.0000 0.13610  0.99247  0.81873  Biso   1.000  C
  C3619    1.0000 0.13608  0.99242  0.81873  Biso   1.000  C
  H3824    1.0000 0.41901  0.00154  0.87227  Biso   1.000  H
  H3825    1.0000 0.88502  0.69135  0.69896  Biso   1.000  H
  C3620    1.0000 0.83156  0.69748  0.71340  Biso   1.000  C
  C3621    1.0000 0.83153  0.69743  0.71340  Biso   1.000  C
  H3826    1.0000 0.87235  0.59267  0.73127  Biso   1.000  H
  C3622    1.0000 0.82525  0.63866  0.73276  Biso   1.000  C
  H3827    1.0000 0.87233  0.59263  0.73127  Biso   1.000  H
  H3828    1.0000 0.79314  0.40735  0.66377  Biso   1.000  H
  C3623    1.0000 0.73465  0.77238  0.71871  Biso   1.000  C
  C3624    1.0000 0.73463  0.77233  0.71871  Biso   1.000  C
  C3625    1.0000 0.68553  0.86165  0.73699  Biso   1.000  C
  C3626    1.0000 0.59221  0.75825  0.72863  Biso   1.000  C
  C3627    1.0000 0.69933  0.76836  0.73010  Biso   1.000  C
  C3628    1.0000 0.10457  0.16862  0.80649  Biso   1.000  C
  C3629    1.0000 0.10194  0.16572  0.83183  Biso   1.000  C
  C3630    1.0000 0.03617  0.06578  0.81865  Biso   1.000  C
  C3631    1.0000 0.03615  0.06574  0.81865  Biso   1.000  C
  C3632    1.0000 0.96990  0.03607  0.81850  Biso   1.000  C
  C3633    1.0000 0.13255  0.04735  0.81872  Biso   1.000  C
  H3829    1.0000 0.18845  0.14148  0.81876  Biso   1.000  H
  C3634    1.0000 0.13252  0.04730  0.81872  Biso   1.000  C
  H3830    1.0000 0.18843  0.14144  0.81876  Biso   1.000  H
  C3635    1.0000 0.07154  0.93506  0.81888  Biso   1.000  C
  C3636    1.0000 0.07152  0.93501  0.81888  Biso   1.000  C
  C3637    1.0000 0.80924  0.67909  0.72606  Biso   1.000  C
  C3638    1.0000 0.80945  0.73818  0.70741  Biso   1.000  C
  C3639    1.0000 0.80921  0.67904  0.72606  Biso   1.000  C
  C3640    1.0000 0.80942  0.73813  0.70741  Biso   1.000  C
  H3831    1.0000 0.81030  0.62514  0.74117  Biso   1.000  H
  C3641    1.0000 0.76916  0.74188  0.71848  Biso   1.000  C
  C3642    1.0000 0.76913  0.74183  0.71848  Biso   1.000  C
  H3832    1.0000 0.66585  0.88486  0.73386  Biso   1.000  H
  H3833    1.0000 0.67045  0.84738  0.74587  Biso   1.000  H
  C3643    1.0000 0.75532  0.90544  0.73754  Biso   1.000  C
  H3834    1.0000 0.67043  0.84733  0.74587  Biso   1.000  H
  H3835    1.0000 0.58132  0.74295  0.73757  Biso   1.000  H
  H3836    1.0000 0.57193  0.78235  0.72676  Biso   1.000  H
  C3644    1.0000 0.56624  0.70445  0.71987  Biso   1.000  C
  C3645    1.0000 0.70233  0.73659  0.74106  Biso   1.000  C
  C3646    1.0000 0.70231  0.73654  0.74106  Biso   1.000  C
  H3837    1.0000 0.11673  0.21255  0.80666  Biso   1.000  H
  H3838    1.0000 0.14253  0.16619  0.80687  Biso   1.000  H
  C3647    1.0000 0.07262  0.14167  0.79386  Biso   1.000  C
  H3839    1.0000 0.14251  0.16614  0.80687  Biso   1.000  H
  C3648    1.0000 0.07259  0.14162  0.79386  Biso   1.000  C
  H3840    1.0000 0.13684  0.15805  0.83227  Biso   1.000  H
  H3841    1.0000 0.11916  0.21068  0.83146  Biso   1.000  H
  C3649    1.0000 0.06364  0.14097  0.84427  Biso   1.000  C
  H3842    1.0000 0.11913  0.21063  0.83146  Biso   1.000  H
  C3650    1.0000 0.06361  0.14092  0.84427  Biso   1.000  C
  C3651    1.0000 0.06618  0.03008  0.81850  Biso   1.000  C
  C3652    1.0000 0.93424  0.97043  0.81865  Biso   1.000  C
  C3653    1.0000 0.93422  0.97038  0.81865  Biso   1.000  C
  C3654    1.0000 0.06409  0.89543  0.80649  Biso   1.000  C
  C3655    1.0000 0.06377  0.89805  0.83183  Biso   1.000  C
  C3656    1.0000 0.02961  0.96383  0.81865  Biso   1.000  C
  C3657    1.0000 0.06406  0.89538  0.80649  Biso   1.000  C
  C3658    1.0000 0.06375  0.89800  0.83183  Biso   1.000  C
  C3659    1.0000 0.02958  0.96379  0.81865  Biso   1.000  C
  C3660    1.0000 0.76983  0.70725  0.72947  Biso   1.000  C
  C3661    1.0000 0.76974  0.70608  0.69510  Biso   1.000  C
  C3662    1.0000 0.86612  0.80176  0.70381  Biso   1.000  C
  C3663    1.0000 0.76971  0.70604  0.69510  Biso   1.000  C
  H3843    1.0000 0.77101  0.91415  0.72857  Biso   1.000  H
  H3844    1.0000 0.77414  0.88378  0.74187  Biso   1.000  H
  C3664    1.0000 0.77782  0.96795  0.74456  Biso   1.000  C
  H3845    1.0000 0.77412  0.88373  0.74187  Biso   1.000  H
  H3846    1.0000 0.58335  0.72157  0.71127  Biso   1.000  H
  H3847    1.0000 0.52190  0.69065  0.71937  Biso   1.000  H
  C3665    1.0000 0.56931  0.64615  0.72085  Biso   1.000  C
  H3848    1.0000 0.58333  0.72152  0.71127  Biso   1.000  H
  C3666    1.0000 0.67113  0.72386  0.75427  Biso   1.000  C
  C3667    1.0000 0.73613  0.70426  0.74065  Biso   1.000  C
  H3849    1.0000 0.03204  0.13896  0.79417  Biso   1.000  H
  H3850    1.0000 0.06515  0.09919  0.79327  Biso   1.000  H
  C3668    1.0000 0.10632  0.17667  0.78081  Biso   1.000  C
  H3851    1.0000 0.06513  0.09914  0.79327  Biso   1.000  H
  C3669    1.0000 0.10630  0.17662  0.78081  Biso   1.000  C
  H3852    1.0000 0.04701  0.09605  0.84466  Biso   1.000  H
  C3670    1.0000 0.09934  0.17016  0.85694  Biso   1.000  C
  H3853    1.0000 0.02846  0.14808  0.84377  Biso   1.000  H
  H3854    1.0000 0.02843  0.14803  0.84377  Biso   1.000  H
  C3671    1.0000 0.96392  0.93384  0.81850  Biso   1.000  C
  C3672    1.0000 0.86350  0.92846  0.81888  Biso   1.000  C
  C3673    1.0000 0.96390  0.93380  0.81850  Biso   1.000  C
  H3855    1.0000 0.09585  0.88327  0.80666  Biso   1.000  H
  H3856    1.0000 0.02364  0.85749  0.80687  Biso   1.000  H
  C3674    1.0000 0.06904  0.92739  0.79386  Biso   1.000  C
  H3857    1.0000 0.02361  0.85744  0.80687  Biso   1.000  H
  C3675    1.0000 0.06902  0.92734  0.79386  Biso   1.000  C
  H3858    1.0000 0.02124  0.86315  0.83227  Biso   1.000  H
  H3859    1.0000 0.09153  0.88088  0.83146  Biso   1.000  H
  C3676    1.0000 0.07734  0.93637  0.84427  Biso   1.000  C
  H3860    1.0000 0.09151  0.88083  0.83146  Biso   1.000  H
  C3677    1.0000 0.07732  0.93632  0.84427  Biso   1.000  C
  H3861    1.0000 0.75544  0.73317  0.69157  Biso   1.000  H
  H3862    1.0000 0.79703  0.70337  0.68857  Biso   1.000  H
  C3678    1.0000 0.71696  0.64559  0.69659  Biso   1.000  C
  H3863    1.0000 0.75542  0.73313  0.69157  Biso   1.000  H
  H3864    1.0000 0.79700  0.70332  0.68857  Biso   1.000  H
  C3679    1.0000 0.71694  0.64554  0.69659  Biso   1.000  C
  H3865    1.0000 0.89132  0.79489  0.69746  Biso   1.000  H
  H3866    1.0000 0.85113  0.82698  0.69956  Biso   1.000  H
  C3680    1.0000 0.90675  0.83798  0.71487  Biso   1.000  C
  H3867    1.0000 0.89130  0.79484  0.69746  Biso   1.000  H
  H3868    1.0000 0.85111  0.82694  0.69956  Biso   1.000  H
  C3681    1.0000 0.90673  0.83793  0.71487  Biso   1.000  C
  H3869    1.0000 0.75832  0.95878  0.75316  Biso   1.000  H
  H3870    1.0000 0.82251  0.98676  0.74596  Biso   1.000  H
  H3871    1.0000 0.75830  0.95873  0.75316  Biso   1.000  H
  C3682    1.0000 0.76756  0.01259  0.73884  Biso   1.000  C
  C3683    1.0000 0.76753  0.01254  0.73884  Biso   1.000  C
  C3684    1.0000 0.52423  0.59716  0.71049  Biso   1.000  C
  H3872    1.0000 0.55735  0.62889  0.72957  Biso   1.000  H
  H3873    1.0000 0.61193  0.65546  0.71926  Biso   1.000  H
  H3874    1.0000 0.55733  0.62884  0.72957  Biso   1.000  H
  C3685    1.0000 0.68702  0.68555  0.76110  Biso   1.000  C
  C3686    1.0000 0.63225  0.74286  0.76011  Biso   1.000  C
  C3687    1.0000 0.72814  0.66786  0.75353  Biso   1.000  C
  H3875    1.0000 0.08333  0.15126  0.77336  Biso   1.000  H
  H3876    1.0000 0.14816  0.18238  0.78057  Biso   1.000  H
  C3688    1.0000 0.11045  0.24067  0.77987  Biso   1.000  C
  H3877    1.0000 0.14813  0.18233  0.78057  Biso   1.000  H
  C3689    1.0000 0.11043  0.24062  0.77987  Biso   1.000  C
  H3878    1.0000 0.13752  0.16815  0.85717  Biso   1.000  H
  H3879    1.0000 0.11033  0.21377  0.85747  Biso   1.000  H
  C3690    1.0000 0.05346  0.13058  0.86941  Biso   1.000  C
  H3880    1.0000 0.11031  0.21372  0.85747  Biso   1.000  H
  C3691    1.0000 0.05344  0.13054  0.86941  Biso   1.000  C
  C3692    1.0000 0.91480  0.86745  0.81872  Biso   1.000  C
  C3693    1.0000 0.91478  0.86741  0.81872  Biso   1.000  C
  C3694    1.0000 0.85638  0.86390  0.81873  Biso   1.000  C
  C3695    1.0000 0.83139  0.93595  0.80649  Biso   1.000  C
  C3696    1.0000 0.83428  0.93623  0.83183  Biso   1.000  C
  C3697    1.0000 0.83136  0.93590  0.80649  Biso   1.000  C
  C3698    1.0000 0.83426  0.93618  0.83183  Biso   1.000  C
  H3881    1.0000 0.10691  0.96795  0.79417  Biso   1.000  H
  H3882    1.0000 0.03405  0.93487  0.79327  Biso   1.000  H
  C3699    1.0000 0.07033  0.89365  0.78081  Biso   1.000  C
  H3883    1.0000 0.03403  0.93483  0.79327  Biso   1.000  H
  H3884    1.0000 0.04906  0.95298  0.84466  Biso   1.000  H
  H3885    1.0000 0.11961  0.97155  0.84377  Biso   1.000  H
  C3700    1.0000 0.07084  0.90067  0.85694  Biso   1.000  C
  H3886    1.0000 0.04904  0.95293  0.84466  Biso   1.000  H
  C3701    1.0000 0.07081  0.90062  0.85694  Biso   1.000  C
  H3887    1.0000 0.68622  0.64755  0.70217  Biso   1.000  H
  H3888    1.0000 0.72930  0.61784  0.70067  Biso   1.000  H
  C3702    1.0000 0.68772  0.61976  0.68285  Biso   1.000  C
  H3889    1.0000 0.91634  0.81089  0.72007  Biso   1.000  H
  H3890    1.0000 0.88433  0.85197  0.72047  Biso   1.000  H
  C3703    1.0000 0.96903  0.89576  0.71031  Biso   1.000  C
  H3891    1.0000 0.91632  0.81084  0.72007  Biso   1.000  H
  H3892    1.0000 0.72344  0.99518  0.73736  Biso   1.000  H
  H3893    1.0000 0.72342  0.99513  0.73736  Biso   1.000  H
  H3894    1.0000 0.78933  0.02517  0.73067  Biso   1.000  H
  H3895    1.0000 0.78241  0.04805  0.74456  Biso   1.000  H
  H3896    1.0000 0.78930  0.02512  0.73067  Biso   1.000  H
  H3897    1.0000 0.48186  0.58608  0.71237  Biso   1.000  H
  H3898    1.0000 0.52811  0.56034  0.71087  Biso   1.000  H
  H3899    1.0000 0.53511  0.61494  0.70187  Biso   1.000  H
  H3900    1.0000 0.48183  0.58603  0.71237  Biso   1.000  H
  C3704    1.0000 0.66524  0.66655  0.77381  Biso   1.000  C
  C3705    1.0000 0.61196  0.72279  0.77277  Biso   1.000  C
  H3901    1.0000 0.62043  0.76817  0.75566  Biso   1.000  H
  C3706    1.0000 0.61194  0.72274  0.77277  Biso   1.000  C
  H3902    1.0000 0.62041  0.76812  0.75566  Biso   1.000  H
  C3707    1.0000 0.78904  0.69055  0.76116  Biso   1.000  C
  C3708    1.0000 0.69203  0.59548  0.75144  Biso   1.000  C
  C3709    1.0000 0.69200  0.59543  0.75144  Biso   1.000  C
  H3903    1.0000 0.06953  0.23557  0.78107  Biso   1.000  H
  H3904    1.0000 0.12643  0.25868  0.77147  Biso   1.000  H
  H3905    1.0000 0.13785  0.26767  0.78656  Biso   1.000  H
  H3906    1.0000 0.06950  0.23553  0.78107  Biso   1.000  H
  H3907    1.0000 0.12640  0.25864  0.77147  Biso   1.000  H
  H3908    1.0000 0.13782  0.26762  0.78656  Biso   1.000  H
  H3909    1.0000 0.01623  0.13376  0.86917  Biso   1.000  H
  H3910    1.0000 0.04222  0.08735  0.86877  Biso   1.000  H
  H3911    1.0000 0.07515  0.14747  0.87746  Biso   1.000  H
  H3912    1.0000 0.07513  0.14743  0.87746  Biso   1.000  H
  C3710    1.0000 0.91509  0.81098  0.81879  Biso   1.000  C
  C3711    1.0000 0.80174  0.80817  0.81886  Biso   1.000  C
  C3712    1.0000 0.80171  0.80813  0.81886  Biso   1.000  C
  H3913    1.0000 0.78742  0.90418  0.80666  Biso   1.000  H
  H3914    1.0000 0.83385  0.97637  0.80687  Biso   1.000  H
  C3713    1.0000 0.85836  0.93099  0.79386  Biso   1.000  C
  H3915    1.0000 0.78740  0.90413  0.80666  Biso   1.000  H
  H3916    1.0000 0.83383  0.97633  0.80687  Biso   1.000  H
  C3714    1.0000 0.85834  0.93094  0.79386  Biso   1.000  C
  H3917    1.0000 0.84193  0.97876  0.83227  Biso   1.000  H
  H3918    1.0000 0.78933  0.90848  0.83146  Biso   1.000  H
  C3715    1.0000 0.85902  0.92266  0.84427  Biso   1.000  C
  H3919    1.0000 0.78931  0.90844  0.83146  Biso   1.000  H
  H3920    1.0000 0.03424  0.85187  0.78057  Biso   1.000  H
  H3921    1.0000 0.06794  0.91667  0.77336  Biso   1.000  H
  C3716    1.0000 0.13025  0.88958  0.77987  Biso   1.000  C
  H3922    1.0000 0.03422  0.85183  0.78057  Biso   1.000  H
  H3923    1.0000 0.06792  0.91663  0.77336  Biso   1.000  H
  C3717    1.0000 0.13022  0.88954  0.77987  Biso   1.000  C
  H3924    1.0000 0.10343  0.88968  0.85747  Biso   1.000  H
  H3925    1.0000 0.03062  0.86245  0.85717  Biso   1.000  H
  C3718    1.0000 0.07713  0.94657  0.86941  Biso   1.000  C
  H3926    1.0000 0.10340  0.88963  0.85747  Biso   1.000  H
  C3719    1.0000 0.07711  0.94652  0.86941  Biso   1.000  C
  H3927    1.0000 0.64793  0.58144  0.68397  Biso   1.000  H
  H3928    1.0000 0.67953  0.64999  0.67857  Biso   1.000  H
  C3720    1.0000 0.72955  0.60666  0.67419  Biso   1.000  C
  H3929    1.0000 0.67951  0.64994  0.67857  Biso   1.000  H
  H3930    1.0000 0.95865  0.92467  0.70606  Biso   1.000  H
  H3931    1.0000 0.99325  0.91649  0.71807  Biso   1.000  H
  H3932    1.0000 0.95863  0.92463  0.70606  Biso   1.000  H
  H3933    1.0000 0.99323  0.91644  0.71807  Biso   1.000  H
  C3721    1.0000 0.01231  0.88556  0.70085  Biso   1.000  C
  H3934    1.0000 0.67614  0.64077  0.77836  Biso   1.000  H
  C3722    1.0000 0.62751  0.68606  0.77963  Biso   1.000  C
  H3935    1.0000 0.67612  0.64072  0.77836  Biso   1.000  H
  H3936    1.0000 0.58604  0.73528  0.77677  Biso   1.000  H
  H3937    1.0000 0.58601  0.73523  0.77677  Biso   1.000  H
  H3938    1.0000 0.77874  0.67118  0.76976  Biso   1.000  H
  H3939    1.0000 0.81382  0.67577  0.75666  Biso   1.000  H
  C3723    1.0000 0.82892  0.76026  0.76297  Biso   1.000  C
  H3940    1.0000 0.77872  0.67113  0.76976  Biso   1.000  H
  H3941    1.0000 0.71944  0.58435  0.74677  Biso   1.000  H
  H3942    1.0000 0.68363  0.57569  0.75997  Biso   1.000  H
  C3724    1.0000 0.63185  0.56848  0.74415  Biso   1.000  C
  H3943    1.0000 0.68361  0.57564  0.75997  Biso   1.000  H
  C3725    1.0000 0.63183  0.56844  0.74415  Biso   1.000  C
  C3726    1.0000 0.86002  0.75465  0.81889  Biso   1.000  C
  H3944    1.0000 0.95304  0.81159  0.81876  Biso   1.000  H
  C3727    1.0000 0.86000  0.75460  0.81889  Biso   1.000  C
  H3945    1.0000 0.95302  0.81154  0.81876  Biso   1.000  H
  C3728    1.0000 0.80220  0.75189  0.81900  Biso   1.000  C
  H3946    1.0000 0.76384  0.80766  0.81886  Biso   1.000  H
  C3729    1.0000 0.80218  0.75184  0.81900  Biso   1.000  C
  H3947    1.0000 0.86103  0.89305  0.79417  Biso   1.000  H
  H3948    1.0000 0.90086  0.96599  0.79327  Biso   1.000  H
  C3730    1.0000 0.82335  0.92968  0.78081  Biso   1.000  C
  H3949    1.0000 0.90084  0.96594  0.79327  Biso   1.000  H
  C3731    1.0000 0.82333  0.92963  0.78081  Biso   1.000  C
  H3950    1.0000 0.90393  0.95097  0.84466  Biso   1.000  H
  H3951    1.0000 0.85193  0.88037  0.84377  Biso   1.000  H
  C3732    1.0000 0.82982  0.92916  0.85694  Biso   1.000  C
  H3952    1.0000 0.90390  0.95092  0.84466  Biso   1.000  H
  H3953    1.0000 0.16605  0.93047  0.78107  Biso   1.000  H
  H3954    1.0000 0.13225  0.87358  0.77147  Biso   1.000  H
  H3955    1.0000 0.12983  0.86217  0.78656  Biso   1.000  H
  H3956    1.0000 0.16602  0.93043  0.78107  Biso   1.000  H
  H3957    1.0000 0.13223  0.87354  0.77147  Biso   1.000  H
  H3958    1.0000 0.11753  0.98376  0.86917  Biso   1.000  H
  H3959    1.0000 0.07232  0.92486  0.87746  Biso   1.000  H
  H3960    1.0000 0.04512  0.95775  0.86877  Biso   1.000  H
  H3961    1.0000 0.76812  0.64475  0.67266  Biso   1.000  H
  H3962    1.0000 0.70895  0.58987  0.66597  Biso   1.000  H
  H3963    1.0000 0.73794  0.57686  0.67847  Biso   1.000  H
  H3964    1.0000 0.98971  0.86516  0.69307  Biso   1.000  H
  H3965    1.0000 0.02634  0.85997  0.70506  Biso   1.000  H
  H3966    1.0000 0.04785  0.92528  0.69856  Biso   1.000  H
  H3967    1.0000 0.04783  0.92523  0.69856  Biso   1.000  H
  C3733    1.0000 0.60461  0.66725  0.79337  Biso   1.000  C
  H3968    1.0000 0.80325  0.77547  0.76687  Biso   1.000  H
  H3969    1.0000 0.84162  0.77935  0.75437  Biso   1.000  H
  C3734    1.0000 0.88704  0.78235  0.77128  Biso   1.000  C
  H3970    1.0000 0.80323  0.77542  0.76687  Biso   1.000  H
  H3971    1.0000 0.64003  0.58477  0.73527  Biso   1.000  H
  H3972    1.0000 0.60493  0.58158  0.74837  Biso   1.000  H
  C3735    1.0000 0.59834  0.49765  0.74365  Biso   1.000  C
  H3973    1.0000 0.60491  0.58154  0.74837  Biso   1.000  H
  H3974    1.0000 0.86144  0.71769  0.81886  Biso   1.000  H
  H3975    1.0000 0.86141  0.71764  0.81886  Biso   1.000  H
  C3736    1.0000 0.74499  0.69079  0.81977  Biso   1.000  C
  H3976    1.0000 0.81764  0.96575  0.78057  Biso   1.000  H
  H3977    1.0000 0.84873  0.93207  0.77336  Biso   1.000  H
  C3737    1.0000 0.75931  0.86975  0.77987  Biso   1.000  C
  H3978    1.0000 0.78624  0.89655  0.85747  Biso   1.000  H
  H3979    1.0000 0.83184  0.96935  0.85717  Biso   1.000  H
  C3738    1.0000 0.86941  0.92285  0.86941  Biso   1.000  C
  N150     1.0000 0.61299  0.62921  0.79996  Biso   1.000  N
  H3980    1.0000 0.90983  0.76228  0.76817  Biso   1.000  H
  H3981    1.0000 0.91362  0.82708  0.77007  Biso   1.000  H
  C3739    1.0000 0.87512  0.77018  0.78432  Biso   1.000  C
  H3982    1.0000 0.90980  0.76223  0.76817  Biso   1.000  H
  H3983    1.0000 0.91360  0.82703  0.77007  Biso   1.000  H
  C3740    1.0000 0.87510  0.77014  0.78432  Biso   1.000  C
  H3984    1.0000 0.58974  0.48085  0.75247  Biso   1.000  H
  H3985    1.0000 0.62475  0.48417  0.73937  Biso   1.000  H
  C3741    1.0000 0.53254  0.47107  0.73553  Biso   1.000  C
  H3986    1.0000 0.62472  0.48413  0.73937  Biso   1.000  H
  C3742    1.0000 0.53252  0.47103  0.73553  Biso   1.000  C
  N151     1.0000 0.69197  0.68531  0.82158  Biso   1.000  N
  N152     1.0000 0.69194  0.68526  0.82158  Biso   1.000  N
  H3987    1.0000 0.76442  0.83395  0.78107  Biso   1.000  H
  H3988    1.0000 0.74135  0.86778  0.77147  Biso   1.000  H
  H3989    1.0000 0.73233  0.87017  0.78656  Biso   1.000  H
  H3990    1.0000 0.74132  0.86773  0.77147  Biso   1.000  H
  H3991    1.0000 0.86624  0.88247  0.86917  Biso   1.000  H
  H3992    1.0000 0.85253  0.92767  0.87746  Biso   1.000  H
  H3993    1.0000 0.91264  0.95485  0.86877  Biso   1.000  H
  H3994    1.0000 0.86621  0.88242  0.86917  Biso   1.000  H
  H3995    1.0000 0.85251  0.92762  0.87746  Biso   1.000  H
  C3743    1.0000 0.58717  0.61494  0.81331  Biso   1.000  C
  H3996    1.0000 0.85273  0.79007  0.78746  Biso   1.000  H
  H3997    1.0000 0.91384  0.78595  0.78896  Biso   1.000  H
  H3998    1.0000 0.85013  0.72578  0.78567  Biso   1.000  H
  H3999    1.0000 0.85271  0.79002  0.78746  Biso   1.000  H
  H4000    1.0000 0.85010  0.72574  0.78567  Biso   1.000  H
  H4001    1.0000 0.50503  0.48137  0.74017  Biso   1.000  H
  H4002    1.0000 0.51304  0.42649  0.73467  Biso   1.000  H
  H4003    1.0000 0.54093  0.48988  0.72697  Biso   1.000  H
  H4004    1.0000 0.50500  0.48132  0.74017  Biso   1.000  H
  H4005    1.0000 0.51302  0.42644  0.73467  Biso   1.000  H
  H4006    1.0000 0.54091  0.48984  0.72697  Biso   1.000  H
  C3744    1.0000 0.63813  0.62107  0.82261  Biso   1.000  C
  H4007    1.0000 0.57512  0.64587  0.81576  Biso   1.000  H
  C3745    1.0000 0.52951  0.55131  0.81329  Biso   1.000  C
  H4008    1.0000 0.57510  0.64582  0.81576  Biso   1.000  H
  C3746    1.0000 0.52948  0.55127  0.81329  Biso   1.000  C
  H4009    1.0000 0.65162  0.59164  0.81986  Biso   1.000  H
  C3747    1.0000 0.61840  0.60835  0.83682  Biso   1.000  C
  C3748    1.0000 0.47201  0.54345  0.81511  Biso   1.000  C
  C3749    1.0000 0.53364  0.49807  0.81105  Biso   1.000  C
  C3750    1.0000 0.53361  0.49802  0.81105  Biso   1.000  C
  C3751    1.0000 0.60976  0.65088  0.84409  Biso   1.000  C
  C3752    1.0000 0.61215  0.55566  0.84312  Biso   1.000  C
  C3753    1.0000 0.60973  0.65083  0.84409  Biso   1.000  C
  H4010    1.0000 0.46785  0.57817  0.81686  Biso   1.000  H
  C3754    1.0000 0.41802  0.48385  0.81444  Biso   1.000  C
  H4011    1.0000 0.46783  0.57812  0.81686  Biso   1.000  H
  H4012    1.0000 0.57262  0.50149  0.81007  Biso   1.000  H
  C3755    1.0000 0.48044  0.44005  0.81026  Biso   1.000  C
  H4013    1.0000 0.57260  0.50144  0.81007  Biso   1.000  H
  H4014    1.0000 0.61272  0.68597  0.84006  Biso   1.000  H
  C3756    1.0000 0.59645  0.64128  0.85750  Biso   1.000  C
  C3757    1.0000 0.59643  0.64124  0.85750  Biso   1.000  C
  H4015    1.0000 0.61771  0.52675  0.83837  Biso   1.000  H
  C3758    1.0000 0.59816  0.54518  0.85625  Biso   1.000  C
  C3759    1.0000 0.59814  0.54514  0.85625  Biso   1.000  C
  H4016    1.0000 0.37874  0.47936  0.81567  Biso   1.000  H
  C3760    1.0000 0.42432  0.43276  0.81195  Biso   1.000  C
  H4017    1.0000 0.48431  0.40525  0.80847  Biso   1.000  H
  H4018    1.0000 0.59123  0.67006  0.86247  Biso   1.000  H
  C3761    1.0000 0.59112  0.58767  0.86335  Biso   1.000  C
  C3762    1.0000 0.59110  0.58762  0.86335  Biso   1.000  C
  H4019    1.0000 0.59352  0.50916  0.86026  Biso   1.000  H
  H4020    1.0000 0.38925  0.39317  0.81147  Biso   1.000  H
  H4021    1.0000 0.38923  0.39313  0.81147  Biso   1.000  H
  H4022    1.0000 0.58255  0.58098  0.87227  Biso   1.000  H
  H4023    1.0000 0.58252  0.58093  0.87227  Biso   1.000  H
  C3763    1.0000 0.42403  0.52116  0.65770  Biso   1.000  C
  H4024    1.0000 0.42653  0.52574  0.64867  Biso   1.000  H
  C3764    1.0000 0.44573  0.57136  0.66520  Biso   1.000  C
  C3765    1.0000 0.39763  0.46179  0.66304  Biso   1.000  C
  C3766    1.0000 0.39760  0.46174  0.66304  Biso   1.000  C
  C3767    1.0000 0.43864  0.56416  0.67861  Biso   1.000  C
  H4025    1.0000 0.46563  0.61108  0.66147  Biso   1.000  H
  H4026    1.0000 0.46561  0.61104  0.66147  Biso   1.000  H
  H4027    1.0000 0.38361  0.42735  0.65756  Biso   1.000  H
  C3768    1.0000 0.39195  0.45318  0.67632  Biso   1.000  C
  C3769    1.0000 0.39192  0.45313  0.67632  Biso   1.000  C
  C3770    1.0000 0.41211  0.50535  0.68391  Biso   1.000  C
  H4028    1.0000 0.45162  0.59887  0.68397  Biso   1.000  H
  H4029    1.0000 0.45160  0.59883  0.68397  Biso   1.000  H
  C3771    1.0000 0.36223  0.38768  0.68219  Biso   1.000  C
  C3772    1.0000 0.36221  0.38763  0.68219  Biso   1.000  C
  H4030    1.0000 0.40772  0.50085  0.69296  Biso   1.000  H
  H4031    1.0000 0.34641  0.35684  0.67507  Biso   1.000  H
  N153     1.0000 0.30963  0.37687  0.69083  Biso   1.000  N
  C3773    1.0000 0.40926  0.37808  0.69050  Biso   1.000  C
  N154     1.0000 0.30960  0.37682  0.69083  Biso   1.000  N
  C3774    1.0000 0.40924  0.37804  0.69050  Biso   1.000  C
  C3775    1.0000 0.25683  0.33635  0.68706  Biso   1.000  C
  N155     1.0000 0.37624  0.31497  0.69593  Biso   1.000  N
  H4032    1.0000 0.42505  0.40868  0.69767  Biso   1.000  H
  C3776    1.0000 0.46584  0.38459  0.68214  Biso   1.000  C
  H4033    1.0000 0.42502  0.40864  0.69767  Biso   1.000  H
  C3777    1.0000 0.46581  0.38454  0.68214  Biso   1.000  C
  C3778    1.0000 0.19943  0.31759  0.69474  Biso   1.000  C
  C3779    1.0000 0.19941  0.31754  0.69474  Biso   1.000  C
  C3780    1.0000 0.38574  0.30917  0.70813  Biso   1.000  C
  C3781    1.0000 0.38572  0.30912  0.70813  Biso   1.000  C
  C3782    1.0000 0.45713  0.33775  0.67341  Biso   1.000  C
  C3783    1.0000 0.52352  0.43245  0.68402  Biso   1.000  C
  C3784    1.0000 0.20045  0.33729  0.70730  Biso   1.000  C
  C3785    1.0000 0.14082  0.27637  0.68938  Biso   1.000  C
  C3786    1.0000 0.20043  0.33724  0.70730  Biso   1.000  C
  C3787    1.0000 0.14080  0.27632  0.68938  Biso   1.000  C
  C3788    1.0000 0.36034  0.24685  0.71408  Biso   1.000  C
  C3789    1.0000 0.50312  0.33565  0.66666  Biso   1.000  C
  H4034    1.0000 0.41634  0.30528  0.67207  Biso   1.000  H
  H4035    1.0000 0.41631  0.30524  0.67207  Biso   1.000  H
  C3790    1.0000 0.57592  0.43254  0.67675  Biso   1.000  C
  H4036    1.0000 0.53086  0.46487  0.68967  Biso   1.000  H
  H4037    1.0000 0.53083  0.46483  0.68967  Biso   1.000  H
  C3791    1.0000 0.14471  0.31745  0.71410  Biso   1.000  C
  H4038    1.0000 0.23846  0.36419  0.71127  Biso   1.000  H
  H4039    1.0000 0.23843  0.36414  0.71127  Biso   1.000  H
  H4040    1.0000 0.13904  0.26196  0.68086  Biso   1.000  H
  C3792    1.0000 0.08585  0.25606  0.69610  Biso   1.000  C
  C3793    1.0000 0.32184  0.19206  0.70745  Biso   1.000  C
  C3794    1.0000 0.38044  0.24296  0.72682  Biso   1.000  C
  H4041    1.0000 0.49562  0.30266  0.66116  Biso   1.000  H
  C3795    1.0000 0.56034  0.38478  0.66860  Biso   1.000  C
  C3796    1.0000 0.56031  0.38473  0.66860  Biso   1.000  C
  H4042    1.0000 0.61726  0.46417  0.67786  Biso   1.000  H
  H4043    1.0000 0.61723  0.46413  0.67786  Biso   1.000  H
  C3797    1.0000 0.08725  0.27717  0.70898  Biso   1.000  C
  C3798    1.0000 0.13912  0.33546  0.72809  Biso   1.000  C
  H4044    1.0000 0.04782  0.22846  0.69217  Biso   1.000  H
  H4045    1.0000 0.30862  0.19365  0.69896  Biso   1.000  H
  C3799    1.0000 0.30252  0.13404  0.71340  Biso   1.000  C
  H4046    1.0000 0.40733  0.27965  0.73127  Biso   1.000  H
  C3800    1.0000 0.36132  0.18659  0.73276  Biso   1.000  C
  C3801    1.0000 0.36130  0.18654  0.73276  Biso   1.000  C
  H4047    1.0000 0.59264  0.38576  0.66377  Biso   1.000  H
  C3802    1.0000 0.03775  0.26538  0.71871  Biso   1.000  C
  C3803    1.0000 0.03773  0.26533  0.71871  Biso   1.000  C
  C3804    1.0000 0.17611  0.31445  0.73699  Biso   1.000  C
  C3805    1.0000 0.16603  0.40775  0.72863  Biso   1.000  C
  C3806    1.0000 0.06905  0.30065  0.73010  Biso   1.000  C
  C3807    1.0000 0.32092  0.13016  0.72606  Biso   1.000  C
  C3808    1.0000 0.26184  0.07126  0.70741  Biso   1.000  C
  H4048    1.0000 0.37484  0.18518  0.74117  Biso   1.000  H
  H4049    1.0000 0.37482  0.18514  0.74117  Biso   1.000  H
  C3809    1.0000 0.97272  0.23085  0.71848  Biso   1.000  C
  H4050    1.0000 0.21902  0.33415  0.73386  Biso   1.000  H
  H4051    1.0000 0.17694  0.32957  0.74587  Biso   1.000  H
  C3810    1.0000 0.15012  0.24465  0.73754  Biso   1.000  C
  H4052    1.0000 0.16163  0.41865  0.73757  Biso   1.000  H
  H4053    1.0000 0.21042  0.42805  0.72676  Biso   1.000  H
  C3811    1.0000 0.13823  0.43376  0.71987  Biso   1.000  C
  C3812    1.0000 0.03424  0.29766  0.74106  Biso   1.000  C
  C3813    1.0000 0.29274  0.06255  0.72947  Biso   1.000  C
  C3814    1.0000 0.25813  0.02728  0.71848  Biso   1.000  C
  C3815    1.0000 0.29395  0.06368  0.69510  Biso   1.000  C
  C3816    1.0000 0.19823  0.06438  0.70381  Biso   1.000  C
  C3817    1.0000 0.25810  0.02723  0.71848  Biso   1.000  C
  C3818    1.0000 0.29393  0.06363  0.69510  Biso   1.000  C
  C3819    1.0000 0.19821  0.06433  0.70381  Biso   1.000  C
  C3820    1.0000 0.92875  0.19056  0.70741  Biso   1.000  C
  C3821    1.0000 0.93744  0.23014  0.72947  Biso   1.000  C
  C3822    1.0000 0.19012  0.22214  0.74456  Biso   1.000  C
  H4054    1.0000 0.14313  0.22898  0.72857  Biso   1.000  H
  H4055    1.0000 0.10966  0.22589  0.74187  Biso   1.000  H
  H4056    1.0000 0.14311  0.22893  0.72857  Biso   1.000  H
  H4057    1.0000 0.10964  0.22584  0.74187  Biso   1.000  H
  H4058    1.0000 0.13824  0.41668  0.71127  Biso   1.000  H
  H4059    1.0000 0.16873  0.47807  0.71937  Biso   1.000  H
  C3823    1.0000 0.07684  0.43067  0.72085  Biso   1.000  C
  H4060    1.0000 0.13822  0.41664  0.71127  Biso   1.000  H
  H4061    1.0000 0.16871  0.47802  0.71937  Biso   1.000  H
  C3824    1.0000 0.07682  0.43063  0.72085  Biso   1.000  C
  C3825    1.0000 0.05272  0.32887  0.75427  Biso   1.000  C
  C3826    1.0000 0.96812  0.26388  0.74065  Biso   1.000  C
  C3827    1.0000 0.96810  0.26383  0.74065  Biso   1.000  C
  C3828    1.0000 0.29571  0.03186  0.74065  Biso   1.000  C
  C3829    1.0000 0.22766  0.96229  0.71871  Biso   1.000  C
  C3830    1.0000 0.22764  0.96224  0.71871  Biso   1.000  C
  C3831    1.0000 0.35444  0.07135  0.69659  Biso   1.000  C
  H4062    1.0000 0.26685  0.02227  0.69157  Biso   1.000  H
  H4063    1.0000 0.29663  0.09367  0.68857  Biso   1.000  H
  H4064    1.0000 0.26683  0.02222  0.69157  Biso   1.000  H
  H4065    1.0000 0.29661  0.09362  0.68857  Biso   1.000  H
  H4066    1.0000 0.20513  0.09647  0.69746  Biso   1.000  H
  H4067    1.0000 0.17303  0.02419  0.69956  Biso   1.000  H
  C3832    1.0000 0.16202  0.06878  0.71487  Biso   1.000  C
  H4068    1.0000 0.20510  0.09643  0.69746  Biso   1.000  H
  H4069    1.0000 0.17301  0.02414  0.69956  Biso   1.000  H
  C3833    1.0000 0.16200  0.06873  0.71487  Biso   1.000  C
  C3834    1.0000 0.86593  0.16848  0.71340  Biso   1.000  C
  C3835    1.0000 0.93633  0.23029  0.69510  Biso   1.000  C
  C3836    1.0000 0.93565  0.13386  0.70381  Biso   1.000  C
  C3837    1.0000 0.86590  0.16843  0.71340  Biso   1.000  C
  C3838    1.0000 0.93631  0.23024  0.69510  Biso   1.000  C
  C3839    1.0000 0.86981  0.19075  0.72606  Biso   1.000  C
  H4070    1.0000 0.20045  0.24165  0.75316  Biso   1.000  H
  H4071    1.0000 0.16422  0.17746  0.74596  Biso   1.000  H
  C3840    1.0000 0.24505  0.23248  0.73884  Biso   1.000  C
  C3841    1.0000 0.24503  0.23244  0.73884  Biso   1.000  C
  H4072    1.0000 0.07153  0.44265  0.72957  Biso   1.000  H
  H4073    1.0000 0.04354  0.38805  0.71926  Biso   1.000  H
  C3842    1.0000 0.07294  0.47578  0.71049  Biso   1.000  C
  C3843    1.0000 0.07291  0.47573  0.71049  Biso   1.000  C
  C3844    1.0000 0.11061  0.36774  0.76011  Biso   1.000  C
  C3845    1.0000 0.99854  0.31296  0.76110  Biso   1.000  C
  C3846    1.0000 0.93975  0.27188  0.75353  Biso   1.000  C
  C3847    1.0000 0.93972  0.27183  0.75353  Biso   1.000  C
  C3848    1.0000 0.33212  0.06026  0.75353  Biso   1.000  C
  C3849    1.0000 0.26343  0.96575  0.74106  Biso   1.000  C
  C3850    1.0000 0.23166  0.93099  0.73010  Biso   1.000  C
  C3851    1.0000 0.18994  0.91279  0.70898  Biso   1.000  C
  C3852    1.0000 0.23164  0.93094  0.73010  Biso   1.000  C
  C3853    1.0000 0.18992  0.91274  0.70898  Biso   1.000  C
  H4074    1.0000 0.35243  0.03865  0.70217  Biso   1.000  H
  H4075    1.0000 0.38214  0.11145  0.70067  Biso   1.000  H
  C3854    1.0000 0.38022  0.06798  0.68285  Biso   1.000  C
  C3855    1.0000 0.38020  0.06793  0.68285  Biso   1.000  C
  H4076    1.0000 0.18911  0.10546  0.72007  Biso   1.000  H
  H4077    1.0000 0.14804  0.03238  0.72047  Biso   1.000  H
  C3856    1.0000 0.10422  0.07327  0.71031  Biso   1.000  C
  H4078    1.0000 0.14801  0.03233  0.72047  Biso   1.000  H
  C3857    1.0000 0.10420  0.07322  0.71031  Biso   1.000  C
  C3858    1.0000 0.80792  0.12979  0.70745  Biso   1.000  C
  C3859    1.0000 0.80790  0.12974  0.70745  Biso   1.000  C
  H4079    1.0000 0.97775  0.24456  0.69157  Biso   1.000  H
  H4080    1.0000 0.90634  0.20296  0.68857  Biso   1.000  H
  C3860    1.0000 0.92865  0.28306  0.69659  Biso   1.000  C
  H4081    1.0000 0.90353  0.10869  0.69746  Biso   1.000  H
  H4082    1.0000 0.97586  0.14888  0.69956  Biso   1.000  H
  C3861    1.0000 0.93123  0.09325  0.71487  Biso   1.000  C
  H4083    1.0000 0.90351  0.10864  0.69746  Biso   1.000  H
  H4084    1.0000 0.97583  0.14883  0.69956  Biso   1.000  H
  C3862    1.0000 0.81343  0.17475  0.73276  Biso   1.000  C
  H4085    1.0000 0.26563  0.21756  0.74456  Biso   1.000  H
  H4086    1.0000 0.27175  0.27656  0.73736  Biso   1.000  H
  H4087    1.0000 0.23585  0.21068  0.73067  Biso   1.000  H
  H4088    1.0000 0.23583  0.21063  0.73067  Biso   1.000  H
  H4089    1.0000 0.10422  0.51816  0.71237  Biso   1.000  H
  H4090    1.0000 0.03224  0.47185  0.71087  Biso   1.000  H
  H4091    1.0000 0.07984  0.46487  0.70187  Biso   1.000  H
  H4092    1.0000 0.07982  0.46483  0.70187  Biso   1.000  H
  C3863    1.0000 0.11084  0.38805  0.77277  Biso   1.000  C
  H4093    1.0000 0.14773  0.37958  0.75566  Biso   1.000  H
  H4094    1.0000 0.14771  0.37954  0.75566  Biso   1.000  H
  C3864    1.0000 0.00133  0.33476  0.77381  Biso   1.000  C
  C3865    1.0000 0.90155  0.21096  0.76116  Biso   1.000  C
  C3866    1.0000 0.90341  0.30795  0.75144  Biso   1.000  C
  C3867    1.0000 0.31442  0.00145  0.76110  Biso   1.000  C
  C3868    1.0000 0.30945  0.09849  0.76116  Biso   1.000  C
  C3869    1.0000 0.40452  0.09657  0.75144  Biso   1.000  C
  C3870    1.0000 0.30943  0.09844  0.76116  Biso   1.000  C
  C3871    1.0000 0.40450  0.09652  0.75144  Biso   1.000  C
  C3872    1.0000 0.27615  0.94727  0.75427  Biso   1.000  C
  C3873    1.0000 0.27612  0.94722  0.75427  Biso   1.000  C
  C3874    1.0000 0.19631  0.86086  0.72809  Biso   1.000  C
  C3875    1.0000 0.17274  0.85529  0.71410  Biso   1.000  C
  C3876    1.0000 0.17024  0.91415  0.69610  Biso   1.000  C
  C3877    1.0000 0.17272  0.85524  0.71410  Biso   1.000  C
  C3878    1.0000 0.39332  0.12286  0.67419  Biso   1.000  C
  H4095    1.0000 0.41853  0.06648  0.68397  Biso   1.000  H
  H4096    1.0000 0.35004  0.02957  0.67857  Biso   1.000  H
  H4097    1.0000 0.41851  0.06644  0.68397  Biso   1.000  H
  H4098    1.0000 0.35001  0.02952  0.67857  Biso   1.000  H
  C3879    1.0000 0.11443  0.12675  0.70085  Biso   1.000  C
  H4099    1.0000 0.07533  0.03397  0.70606  Biso   1.000  H
  H4100    1.0000 0.08353  0.07678  0.71807  Biso   1.000  H
  H4101    1.0000 0.07531  0.03392  0.70606  Biso   1.000  H
  H4102    1.0000 0.08350  0.07673  0.71807  Biso   1.000  H
  C3880    1.0000 0.75312  0.11346  0.71408  Biso   1.000  C
  H4103    1.0000 0.80634  0.11496  0.69896  Biso   1.000  H
  H4104    1.0000 0.96133  0.31375  0.70217  Biso   1.000  H
  H4105    1.0000 0.88853  0.27066  0.70067  Biso   1.000  H
  C3881    1.0000 0.93202  0.31226  0.68285  Biso   1.000  C
  H4106    1.0000 0.89454  0.08365  0.72007  Biso   1.000  H
  H4107    1.0000 0.96763  0.11566  0.72047  Biso   1.000  H
  C3882    1.0000 0.92675  0.03097  0.71031  Biso   1.000  C
  C3883    1.0000 0.92673  0.03093  0.71031  Biso   1.000  C
  C3884    1.0000 0.75702  0.13746  0.72682  Biso   1.000  C
  H4108    1.0000 0.81485  0.18967  0.74117  Biso   1.000  H
  H4109    1.0000 0.81483  0.18963  0.74117  Biso   1.000  H
  C3885    1.0000 0.05852  0.37247  0.77963  Biso   1.000  C
  H4110    1.0000 0.14925  0.41397  0.77677  Biso   1.000  H
  C3886    1.0000 0.05850  0.37242  0.77963  Biso   1.000  C
  H4111    1.0000 0.14922  0.41392  0.77677  Biso   1.000  H
  H4112    1.0000 0.96464  0.32386  0.77836  Biso   1.000  H
  H4113    1.0000 0.89243  0.22126  0.76976  Biso   1.000  H
  H4114    1.0000 0.86192  0.18617  0.75666  Biso   1.000  H
  C3887    1.0000 0.93131  0.17105  0.76297  Biso   1.000  C
  H4115    1.0000 0.86493  0.28058  0.74677  Biso   1.000  H
  H4116    1.0000 0.89202  0.31637  0.75997  Biso   1.000  H
  C3888    1.0000 0.93664  0.36817  0.74415  Biso   1.000  C
  H4117    1.0000 0.86490  0.28053  0.74677  Biso   1.000  H
  H4118    1.0000 0.89200  0.31633  0.75997  Biso   1.000  H
  C3889    1.0000 0.33346  0.99869  0.77381  Biso   1.000  C
  C3890    1.0000 0.33344  0.99864  0.77381  Biso   1.000  C
  H4119    1.0000 0.32882  0.10756  0.76976  Biso   1.000  H
  H4120    1.0000 0.32422  0.13807  0.75666  Biso   1.000  H
  C3891    1.0000 0.23973  0.06868  0.76297  Biso   1.000  C
  H4121    1.0000 0.32420  0.13802  0.75666  Biso   1.000  H
  C3892    1.0000 0.23971  0.06864  0.76297  Biso   1.000  C
  C3893    1.0000 0.43151  0.06335  0.74415  Biso   1.000  C
  H4122    1.0000 0.41563  0.13507  0.74677  Biso   1.000  H
  H4123    1.0000 0.42433  0.10798  0.75997  Biso   1.000  H
  H4124    1.0000 0.41561  0.13503  0.74677  Biso   1.000  H
  H4125    1.0000 0.42431  0.10794  0.75997  Biso   1.000  H
  C3894    1.0000 0.25711  0.88935  0.76011  Biso   1.000  C
  C3895    1.0000 0.13834  0.82385  0.73699  Biso   1.000  C
  C3896    1.0000 0.24173  0.83395  0.72863  Biso   1.000  C
  C3897    1.0000 0.13682  0.79956  0.70730  Biso   1.000  C
  C3898    1.0000 0.13554  0.85917  0.68938  Biso   1.000  C
  H4126    1.0000 0.18063  0.95218  0.69217  Biso   1.000  H
  C3899    1.0000 0.13552  0.85912  0.68938  Biso   1.000  C
  H4127    1.0000 0.18061  0.95214  0.69217  Biso   1.000  H
  H4128    1.0000 0.35525  0.12338  0.67266  Biso   1.000  H
  H4129    1.0000 0.41014  0.11907  0.66597  Biso   1.000  H
  H4130    1.0000 0.42313  0.16109  0.67847  Biso   1.000  H
  H4131    1.0000 0.35522  0.12333  0.67266  Biso   1.000  H
  H4132    1.0000 0.41012  0.11903  0.66597  Biso   1.000  H
  H4133    1.0000 0.42311  0.16104  0.67847  Biso   1.000  H
  H4134    1.0000 0.13484  0.12455  0.69307  Biso   1.000  H
  H4135    1.0000 0.14003  0.16637  0.70506  Biso   1.000  H
  H4136    1.0000 0.07474  0.12258  0.69856  Biso   1.000  H
  H4137    1.0000 0.14001  0.16633  0.70506  Biso   1.000  H
  H4138    1.0000 0.07472  0.12253  0.69856  Biso   1.000  H
  C3900    1.0000 0.69082  0.07654  0.70813  Biso   1.000  C
  H4139    1.0000 0.93353  0.35207  0.68397  Biso   1.000  H
  H4140    1.0000 0.97043  0.32044  0.67857  Biso   1.000  H
  C3901    1.0000 0.87713  0.27048  0.67419  Biso   1.000  C
  H4141    1.0000 0.93351  0.35202  0.68397  Biso   1.000  H
  C3902    1.0000 0.87711  0.27043  0.67419  Biso   1.000  C
  C3903    1.0000 0.87324  0.98765  0.70085  Biso   1.000  C
  H4142    1.0000 0.96602  0.04136  0.70606  Biso   1.000  H
  H4143    1.0000 0.92325  0.00678  0.71807  Biso   1.000  H
  H4144    1.0000 0.92322  0.00674  0.71807  Biso   1.000  H
  H4145    1.0000 0.72032  0.12768  0.73127  Biso   1.000  H
  H4146    1.0000 0.72030  0.12763  0.73127  Biso   1.000  H
  C3904    1.0000 0.06263  0.39535  0.79337  Biso   1.000  C
  H4147    1.0000 0.97226  0.19679  0.76687  Biso   1.000  H
  H4148    1.0000 0.93774  0.15837  0.75437  Biso   1.000  H
  C3905    1.0000 0.89533  0.11294  0.77128  Biso   1.000  C
  H4149    1.0000 0.97223  0.19674  0.76687  Biso   1.000  H
  H4150    1.0000 0.93771  0.15833  0.75437  Biso   1.000  H
  H4151    1.0000 0.94474  0.35998  0.73527  Biso   1.000  H
  H4152    1.0000 0.97663  0.39507  0.74837  Biso   1.000  H
  C3906    1.0000 0.89933  0.40167  0.74365  Biso   1.000  C
  H4153    1.0000 0.94471  0.35993  0.73527  Biso   1.000  H
  H4154    1.0000 0.97660  0.39502  0.74837  Biso   1.000  H
  C3907    1.0000 0.31393  0.94147  0.77963  Biso   1.000  C
  C3908    1.0000 0.31390  0.94142  0.77963  Biso   1.000  C
  H4155    1.0000 0.35922  0.03537  0.77836  Biso   1.000  H
  H4156    1.0000 0.35919  0.03532  0.77836  Biso   1.000  H
  H4157    1.0000 0.22453  0.02774  0.76687  Biso   1.000  H
  C3909    1.0000 0.21765  0.10466  0.77128  Biso   1.000  C
  H4158    1.0000 0.22064  0.06227  0.75437  Biso   1.000  H
  H4159    1.0000 0.22062  0.06223  0.75437  Biso   1.000  H
  H4160    1.0000 0.41523  0.05526  0.73527  Biso   1.000  H
  H4161    1.0000 0.41844  0.02335  0.74837  Biso   1.000  H
  C3910    1.0000 0.50233  0.10069  0.74365  Biso   1.000  C
  C3911    1.0000 0.50230  0.10064  0.74365  Biso   1.000  C
  C3912    1.0000 0.27724  0.88916  0.77277  Biso   1.000  C
  H4162    1.0000 0.23184  0.85225  0.75566  Biso   1.000  H
  H4163    1.0000 0.11511  0.78094  0.73386  Biso   1.000  H
  H4164    1.0000 0.15261  0.82305  0.74587  Biso   1.000  H
  C3913    1.0000 0.09454  0.84986  0.73754  Biso   1.000  C
  H4165    1.0000 0.25702  0.83835  0.73757  Biso   1.000  H
  H4166    1.0000 0.21763  0.78955  0.72676  Biso   1.000  H
  C3914    1.0000 0.29554  0.86174  0.71987  Biso   1.000  C
  H4167    1.0000 0.12572  0.76157  0.71127  Biso   1.000  H
  C3915    1.0000 0.11814  0.80055  0.69474  Biso   1.000  C
  H4168    1.0000 0.12570  0.76153  0.71127  Biso   1.000  H
  H4169    1.0000 0.12294  0.86095  0.68086  Biso   1.000  H
  N156     1.0000 0.68500  0.06124  0.69593  Biso   1.000  N
  H4170    1.0000 0.87663  0.23188  0.67266  Biso   1.000  H
  H4171    1.0000 0.88094  0.29106  0.66597  Biso   1.000  H
  H4172    1.0000 0.83893  0.26205  0.67847  Biso   1.000  H
  H4173    1.0000 0.87661  0.23183  0.67266  Biso   1.000  H
  H4174    1.0000 0.83363  0.97366  0.70506  Biso   1.000  H
  H4175    1.0000 0.87743  0.95218  0.69856  Biso   1.000  H
  H4176    1.0000 0.87741  0.95214  0.69856  Biso   1.000  H
  H4177    1.0000 0.87542  0.01025  0.69307  Biso   1.000  H
  N157     1.0000 0.01624  0.38702  0.79996  Biso   1.000  N
  N158     1.0000 0.01622  0.38697  0.79996  Biso   1.000  N
  H4178    1.0000 0.85241  0.09016  0.76817  Biso   1.000  H
  H4179    1.0000 0.91344  0.08637  0.77007  Biso   1.000  H
  C3916    1.0000 0.89505  0.12487  0.78432  Biso   1.000  C
  H4180    1.0000 0.91342  0.08632  0.77007  Biso   1.000  H
  C3917    1.0000 0.89503  0.12483  0.78432  Biso   1.000  C
  H4181    1.0000 0.89112  0.41027  0.75247  Biso   1.000  H
  H4182    1.0000 0.85944  0.37528  0.73937  Biso   1.000  H
  C3918    1.0000 0.93851  0.46745  0.73553  Biso   1.000  C
  H4183    1.0000 0.89109  0.41023  0.75247  Biso   1.000  H
  H4184    1.0000 0.85941  0.37523  0.73937  Biso   1.000  H
  C3919    1.0000 0.33274  0.93735  0.79337  Biso   1.000  C
  H4185    1.0000 0.23772  0.14757  0.76817  Biso   1.000  H
  H4186    1.0000 0.17294  0.08656  0.77007  Biso   1.000  H
  C3920    1.0000 0.22984  0.10499  0.78432  Biso   1.000  C
  C3921    1.0000 0.22982  0.10494  0.78432  Biso   1.000  C
  H4187    1.0000 0.51582  0.14055  0.73937  Biso   1.000  H
  H4188    1.0000 0.51914  0.10887  0.75247  Biso   1.000  H
  C3922    1.0000 0.52896  0.06148  0.73553  Biso   1.000  C
  H4189    1.0000 0.51912  0.10883  0.75247  Biso   1.000  H
  C3923    1.0000 0.52893  0.06143  0.73553  Biso   1.000  C
  H4190    1.0000 0.26472  0.85075  0.77677  Biso   1.000  H
  H4191    1.0000 0.08585  0.85688  0.72857  Biso   1.000  H
  H4192    1.0000 0.11626  0.89038  0.74187  Biso   1.000  H
  C3924    1.0000 0.03204  0.80986  0.74456  Biso   1.000  C
  H4193    1.0000 0.08583  0.85683  0.72857  Biso   1.000  H
  H4194    1.0000 0.11624  0.89033  0.74187  Biso   1.000  H
  H4195    1.0000 0.27844  0.86174  0.71127  Biso   1.000  H
  H4196    1.0000 0.30936  0.83129  0.71937  Biso   1.000  H
  C3925    1.0000 0.35385  0.92318  0.72085  Biso   1.000  C
  H4197    1.0000 0.30934  0.83124  0.71937  Biso   1.000  H
  C3926    1.0000 0.35383  0.92313  0.72085  Biso   1.000  C
  C3927    1.0000 0.07954  0.74319  0.68706  Biso   1.000  C
  C3928    1.0000 0.07951  0.74314  0.68706  Biso   1.000  C
  C3929    1.0000 0.62194  0.03116  0.69050  Biso   1.000  C
  C3930    1.0000 0.02778  0.41285  0.81331  Biso   1.000  C
  C3931    1.0000 0.02775  0.41280  0.81331  Biso   1.000  C
  H4198    1.0000 0.93734  0.14729  0.78746  Biso   1.000  H
  H4199    1.0000 0.87214  0.08618  0.78896  Biso   1.000  H
  H4200    1.0000 0.87562  0.14986  0.78567  Biso   1.000  H
  H4201    1.0000 0.93731  0.14724  0.78746  Biso   1.000  H
  H4202    1.0000 0.87212  0.08613  0.78896  Biso   1.000  H
  H4203    1.0000 0.97633  0.49496  0.74017  Biso   1.000  H
  H4204    1.0000 0.91341  0.48696  0.73467  Biso   1.000  H
  H4205    1.0000 0.94894  0.45907  0.72697  Biso   1.000  H
  H4206    1.0000 0.94892  0.45903  0.72697  Biso   1.000  H
  N159     1.0000 0.37077  0.98376  0.79996  Biso   1.000  N
  H4207    1.0000 0.20993  0.06265  0.78746  Biso   1.000  H
  H4208    1.0000 0.27421  0.12436  0.78567  Biso   1.000  H
  H4209    1.0000 0.21402  0.12787  0.78896  Biso   1.000  H
  H4210    1.0000 0.21399  0.12782  0.78896  Biso   1.000  H
  H4211    1.0000 0.57355  0.08656  0.73467  Biso   1.000  H
  H4212    1.0000 0.51013  0.05104  0.72697  Biso   1.000  H
  H4213    1.0000 0.51864  0.02367  0.74017  Biso   1.000  H
  H4214    1.0000 0.51862  0.02363  0.74017  Biso   1.000  H
  C3932    1.0000 0.98746  0.75498  0.73884  Biso   1.000  C
  C3933    1.0000 0.98743  0.75493  0.73884  Biso   1.000  C
  H4215    1.0000 0.04123  0.79956  0.75316  Biso   1.000  H
  H4216    1.0000 0.01323  0.83578  0.74596  Biso   1.000  H
  H4217    1.0000 0.01321  0.83573  0.74596  Biso   1.000  H
  C3934    1.0000 0.40283  0.92706  0.71049  Biso   1.000  C
  H4218    1.0000 0.37112  0.92846  0.72957  Biso   1.000  H
  H4219    1.0000 0.34453  0.95649  0.71926  Biso   1.000  H
  H4220    1.0000 0.34451  0.95644  0.71926  Biso   1.000  H
  N160     1.0000 0.06722  0.69036  0.69083  Biso   1.000  N
  C3935    1.0000 0.61231  0.97455  0.68219  Biso   1.000  C
  H4221    1.0000 0.59133  0.01638  0.69767  Biso   1.000  H
  C3936    1.0000 0.61543  0.08127  0.68214  Biso   1.000  C
  H4222    1.0000 0.59131  0.01633  0.69767  Biso   1.000  H
  C3937    1.0000 0.61541  0.08122  0.68214  Biso   1.000  C
  C3938    1.0000 0.98295  0.36185  0.82261  Biso   1.000  C
  C3939    1.0000 0.98293  0.36180  0.82261  Biso   1.000  C
  H4223    1.0000 0.07074  0.42487  0.81576  Biso   1.000  H
  C3940    1.0000 0.02182  0.47054  0.81329  Biso   1.000  C
  H4224    1.0000 0.07072  0.42482  0.81576  Biso   1.000  H
  C3941    1.0000 0.02179  0.47049  0.81329  Biso   1.000  C
  C3942    1.0000 0.38505  0.97221  0.81331  Biso   1.000  C
  H4225    1.0000 0.97482  0.76415  0.73067  Biso   1.000  H
  H4226    1.0000 0.95194  0.73434  0.74456  Biso   1.000  H
  H4227    1.0000 0.00481  0.72826  0.73736  Biso   1.000  H
  H4228    1.0000 0.41392  0.89576  0.71237  Biso   1.000  H
  H4229    1.0000 0.43964  0.96776  0.71087  Biso   1.000  H
  H4230    1.0000 0.38505  0.92018  0.70187  Biso   1.000  H
  H4231    1.0000 0.38503  0.92013  0.70187  Biso   1.000  H
  C3943    1.0000 0.02545  0.63778  0.68219  Biso   1.000  C
  C3944    1.0000 0.02543  0.63773  0.68219  Biso   1.000  C
  N161     1.0000 0.62315  0.93277  0.69083  Biso   1.000  N
  H4232    1.0000 0.64312  0.98957  0.67507  Biso   1.000  H
  C3945    1.0000 0.54681  0.93876  0.67632  Biso   1.000  C
  C3946    1.0000 0.66223  0.11935  0.67341  Biso   1.000  C
  C3947    1.0000 0.56753  0.09105  0.68402  Biso   1.000  C
  N162     1.0000 0.99337  0.30804  0.82158  Biso   1.000  N
  H4233    1.0000 0.94003  0.34838  0.81986  Biso   1.000  H
  C3948    1.0000 0.98995  0.38159  0.83682  Biso   1.000  C
  H4234    1.0000 0.94001  0.34833  0.81986  Biso   1.000  H
  C3949    1.0000 0.07143  0.52794  0.81511  Biso   1.000  C
  C3950    1.0000 0.96443  0.46637  0.81105  Biso   1.000  C
  C3951    1.0000 0.96440  0.46632  0.81105  Biso   1.000  C
  H4235    1.0000 0.35413  0.92926  0.81576  Biso   1.000  H
  C3952    1.0000 0.44870  0.97820  0.81329  Biso   1.000  C
  C3953    1.0000 0.44868  0.97815  0.81329  Biso   1.000  C
  C3954    1.0000 0.37892  0.01708  0.82261  Biso   1.000  C
  C3955    1.0000 0.37890  0.01703  0.82261  Biso   1.000  C
  C3956    1.0000 0.96884  0.59076  0.69050  Biso   1.000  C
  H4236    1.0000 0.01043  0.65359  0.67507  Biso   1.000  H
  C3957    1.0000 0.06125  0.60807  0.67632  Biso   1.000  C
  H4237    1.0000 0.01040  0.65354  0.67507  Biso   1.000  H
  C3958    1.0000 0.66363  0.92046  0.68706  Biso   1.000  C
  C3959    1.0000 0.53823  0.93586  0.66304  Biso   1.000  C
  C3960    1.0000 0.49462  0.90675  0.68391  Biso   1.000  C
  H4238    1.0000 0.69472  0.11107  0.67207  Biso   1.000  H
  C3961    1.0000 0.66432  0.16745  0.66666  Biso   1.000  C
  H4239    1.0000 0.69469  0.11103  0.67207  Biso   1.000  H
  H4240    1.0000 0.53513  0.06597  0.68967  Biso   1.000  H
  C3962    1.0000 0.56742  0.14336  0.67675  Biso   1.000  C
  H4241    1.0000 0.53511  0.06592  0.68967  Biso   1.000  H
  C3963    1.0000 0.94583  0.25504  0.81977  Biso   1.000  C
  C3964    1.0000 0.94581  0.25499  0.81977  Biso   1.000  C
  C3965    1.0000 0.94353  0.38786  0.84312  Biso   1.000  C
  C3966    1.0000 0.04111  0.39025  0.84409  Biso   1.000  C
  C3967    1.0000 0.04109  0.39020  0.84409  Biso   1.000  C
  H4242    1.0000 0.11032  0.53215  0.81686  Biso   1.000  H
  C3968    1.0000 0.06583  0.58198  0.81444  Biso   1.000  C
  C3969    1.0000 0.06581  0.58194  0.81444  Biso   1.000  C
  H4243    1.0000 0.92883  0.42735  0.81007  Biso   1.000  H
  C3970    1.0000 0.95962  0.51957  0.81026  Biso   1.000  C
  C3971    1.0000 0.95960  0.51952  0.81026  Biso   1.000  C
  C3972    1.0000 0.50194  0.03556  0.81105  Biso   1.000  C
  C3973    1.0000 0.45654  0.92856  0.81511  Biso   1.000  C
  N163     1.0000 0.31471  0.00664  0.82158  Biso   1.000  N
  H4244    1.0000 0.40835  0.05998  0.81986  Biso   1.000  H
  C3974    1.0000 0.39166  0.01006  0.83682  Biso   1.000  C
  H4245    1.0000 0.40833  0.05993  0.81986  Biso   1.000  H
  C3975    1.0000 0.39164  0.01001  0.83682  Biso   1.000  C
  N164     1.0000 0.93876  0.62379  0.69593  Biso   1.000  N
  H4246    1.0000 0.98364  0.57499  0.69767  Biso   1.000  H
  C3976    1.0000 0.91876  0.53419  0.68214  Biso   1.000  C
  N165     1.0000 0.93873  0.62374  0.69593  Biso   1.000  N
  H4247    1.0000 0.98362  0.57494  0.69767  Biso   1.000  H
  C3977    1.0000 0.91873  0.53414  0.68214  Biso   1.000  C
  C3978    1.0000 0.06415  0.60236  0.66304  Biso   1.000  C
  C3979    1.0000 0.09324  0.58785  0.68391  Biso   1.000  C
  C3980    1.0000 0.68242  0.88186  0.69474  Biso   1.000  C
  H4248    1.0000 0.57262  0.95625  0.65756  Biso   1.000  H
  C3981    1.0000 0.47883  0.90287  0.65770  Biso   1.000  C
  C3982    1.0000 0.47880  0.90282  0.65770  Biso   1.000  C
  H4249    1.0000 0.49913  0.90685  0.69296  Biso   1.000  H
  C3983    1.0000 0.43582  0.87447  0.67861  Biso   1.000  C
  C3984    1.0000 0.43579  0.87442  0.67861  Biso   1.000  C
  C3985    1.0000 0.61520  0.17554  0.66860  Biso   1.000  C
  H4250    1.0000 0.69733  0.19295  0.66116  Biso   1.000  H
  H4251    1.0000 0.53586  0.15309  0.67786  Biso   1.000  H
  H4252    1.0000 0.53584  0.15304  0.67786  Biso   1.000  H
  C3986    1.0000 0.94965  0.19777  0.81900  Biso   1.000  C
  H4253    1.0000 0.90903  0.38225  0.83837  Biso   1.000  H
  C3987    1.0000 0.94704  0.40185  0.85625  Biso   1.000  C
  H4254    1.0000 0.07325  0.38726  0.84006  Biso   1.000  H
  C3988    1.0000 0.04482  0.40358  0.85750  Biso   1.000  C
  C3989    1.0000 0.04480  0.40354  0.85750  Biso   1.000  C
  C3990    1.0000 0.00842  0.57567  0.81195  Biso   1.000  C
  H4255    1.0000 0.10063  0.62128  0.81567  Biso   1.000  H
  H4256    1.0000 0.10061  0.62124  0.81567  Biso   1.000  H
  H4257    1.0000 0.92093  0.51569  0.80847  Biso   1.000  H
  H4258    1.0000 0.92091  0.51564  0.80847  Biso   1.000  H
  H4259    1.0000 0.49855  0.07116  0.81007  Biso   1.000  H
  C3991    1.0000 0.55994  0.04038  0.81026  Biso   1.000  C
  C3992    1.0000 0.55991  0.04033  0.81026  Biso   1.000  C
  H4260    1.0000 0.42182  0.88968  0.81686  Biso   1.000  H
  C3993    1.0000 0.51615  0.93417  0.81444  Biso   1.000  C
  H4261    1.0000 0.42180  0.88963  0.81686  Biso   1.000  H
  C3994    1.0000 0.51613  0.93412  0.81444  Biso   1.000  C
  C3995    1.0000 0.30922  0.05418  0.81977  Biso   1.000  C
  C3996    1.0000 0.34913  0.95887  0.84409  Biso   1.000  C
  C3997    1.0000 0.44432  0.05647  0.84312  Biso   1.000  C
  C3998    1.0000 0.44430  0.05642  0.84312  Biso   1.000  C
  C3999    1.0000 0.92343  0.61429  0.70813  Biso   1.000  C
  C4000    1.0000 0.92341  0.61424  0.70813  Biso   1.000  C
  C4001    1.0000 0.88062  0.54285  0.67341  Biso   1.000  C
  C4002    1.0000 0.90893  0.47645  0.68402  Biso   1.000  C
  H4262    1.0000 0.04371  0.61635  0.65756  Biso   1.000  H
  C4003    1.0000 0.09714  0.57597  0.65770  Biso   1.000  C
  C4004    1.0000 0.09712  0.57592  0.65770  Biso   1.000  C
  H4263    1.0000 0.09313  0.59225  0.69296  Biso   1.000  H
  C4005    1.0000 0.12554  0.56137  0.67861  Biso   1.000  C
  C4006    1.0000 0.12552  0.56133  0.67861  Biso   1.000  C
  C4007    1.0000 0.66273  0.86315  0.70730  Biso   1.000  C
  C4008    1.0000 0.72364  0.86446  0.68938  Biso   1.000  C
  H4264    1.0000 0.47425  0.90076  0.64867  Biso   1.000  H
  C4009    1.0000 0.42864  0.87438  0.66520  Biso   1.000  C
  C4010    1.0000 0.42862  0.87433  0.66520  Biso   1.000  C
  H4265    1.0000 0.40114  0.85276  0.68397  Biso   1.000  H
  H4266    1.0000 0.61424  0.20684  0.66377  Biso   1.000  H
  C4011    1.0000 0.00641  0.19824  0.81886  Biso   1.000  C
  C4012    1.0000 0.89463  0.13999  0.81889  Biso   1.000  C
  C4013    1.0000 0.99653  0.40887  0.86335  Biso   1.000  C
  H4267    1.0000 0.91564  0.40648  0.86026  Biso   1.000  H
  C4014    1.0000 0.99651  0.40882  0.86335  Biso   1.000  C
  H4268    1.0000 0.91562  0.40644  0.86026  Biso   1.000  H
  H4269    1.0000 0.07882  0.40878  0.86247  Biso   1.000  H
  H4270    1.0000 0.07880  0.40873  0.86247  Biso   1.000  H
  H4271    1.0000 0.00392  0.61076  0.81147  Biso   1.000  H
  C4015    1.0000 0.56722  0.99158  0.81195  Biso   1.000  C
  C4016    1.0000 0.56720  0.99153  0.81195  Biso   1.000  C
  H4272    1.0000 0.59472  0.07907  0.80847  Biso   1.000  H
  H4273    1.0000 0.59470  0.07902  0.80847  Biso   1.000  H
  H4274    1.0000 0.52063  0.89936  0.81567  Biso   1.000  H
  C4017    1.0000 0.24815  0.05034  0.81900  Biso   1.000  C
  C4018    1.0000 0.24812  0.05030  0.81900  Biso   1.000  C
  H4275    1.0000 0.31404  0.92678  0.84006  Biso   1.000  H
  C4019    1.0000 0.35875  0.95518  0.85750  Biso   1.000  C
  H4276    1.0000 0.31401  0.92673  0.84006  Biso   1.000  H
  C4020    1.0000 0.35872  0.95513  0.85750  Biso   1.000  C
  H4277    1.0000 0.47323  0.09095  0.83837  Biso   1.000  H
  C4021    1.0000 0.45484  0.05296  0.85625  Biso   1.000  C
  C4022    1.0000 0.88652  0.63965  0.71408  Biso   1.000  C
  H4278    1.0000 0.88890  0.58364  0.67207  Biso   1.000  H
  C4023    1.0000 0.83254  0.49685  0.66666  Biso   1.000  C
  H4279    1.0000 0.93401  0.46916  0.68967  Biso   1.000  H
  C4024    1.0000 0.85664  0.42405  0.67675  Biso   1.000  C
  H4280    1.0000 0.09924  0.57344  0.64867  Biso   1.000  H
  C4025    1.0000 0.12563  0.55426  0.66520  Biso   1.000  C
  H4281    1.0000 0.14724  0.54837  0.68397  Biso   1.000  H
  H4282    1.0000 0.63585  0.87428  0.71127  Biso   1.000  H
  C4026    1.0000 0.68251  0.82726  0.71410  Biso   1.000  C
  H4283    1.0000 0.63582  0.87424  0.71127  Biso   1.000  H
  H4284    1.0000 0.73804  0.87704  0.68086  Biso   1.000  H
  C4027    1.0000 0.74395  0.82979  0.69610  Biso   1.000  C
  C4028    1.0000 0.74392  0.82974  0.69610  Biso   1.000  C
  H4285    1.0000 0.38896  0.85459  0.66147  Biso   1.000  H
  H4286    1.0000 0.38894  0.85454  0.66147  Biso   1.000  H
  H4287    1.0000 0.04386  0.23618  0.81886  Biso   1.000  H
  C4029    1.0000 0.00756  0.14364  0.81873  Biso   1.000  C
  H4288    1.0000 0.04384  0.23613  0.81886  Biso   1.000  H
  C4030    1.0000 0.00753  0.14359  0.81873  Biso   1.000  C
  H4289    1.0000 0.85624  0.13858  0.81886  Biso   1.000  H
  C4031    1.0000 0.89590  0.08492  0.81879  Biso   1.000  C
  H4290    1.0000 0.85622  0.13854  0.81886  Biso   1.000  H
  C4032    1.0000 0.89588  0.08487  0.81879  Biso   1.000  C
  H4291    1.0000 0.99845  0.41748  0.87227  Biso   1.000  H
  H4292    1.0000 0.99842  0.41743  0.87227  Biso   1.000  H
  H4293    1.0000 0.60683  0.99607  0.81147  Biso   1.000  H
  H4294    1.0000 0.60680  0.99602  0.81147  Biso   1.000  H
  C4033    1.0000 0.24535  0.10536  0.81889  Biso   1.000  C
  C4034    1.0000 0.19185  0.99359  0.81886  Biso   1.000  C
  C4035    1.0000 0.19183  0.99354  0.81886  Biso   1.000  C
  C4036    1.0000 0.41235  0.00346  0.86335  Biso   1.000  C
  H4295    1.0000 0.32995  0.92116  0.86247  Biso   1.000  H
  H4296    1.0000 0.49084  0.08436  0.86026  Biso   1.000  H
  C4037    1.0000 0.87024  0.67815  0.70745  Biso   1.000  C
  C4038    1.0000 0.86254  0.61958  0.72682  Biso   1.000  C
  C4039    1.0000 0.86252  0.61953  0.72682  Biso   1.000  C
  C4040    1.0000 0.82446  0.43968  0.66860  Biso   1.000  C
  H4297    1.0000 0.80706  0.50439  0.66116  Biso   1.000  H
  C4041    1.0000 0.82444  0.43963  0.66860  Biso   1.000  C
  H4298    1.0000 0.80703  0.50434  0.66116  Biso   1.000  H
  H4299    1.0000 0.84694  0.38279  0.67786  Biso   1.000  H
  H4300    1.0000 0.84692  0.38274  0.67786  Biso   1.000  H
  H4301    1.0000 0.14543  0.53438  0.66147  Biso   1.000  H
  H4302    1.0000 0.14541  0.53433  0.66147  Biso   1.000  H
  C4042    1.0000 0.72281  0.81005  0.70898  Biso   1.000  C
  C4043    1.0000 0.66452  0.80368  0.72809  Biso   1.000  C
  C4044    1.0000 0.66450  0.80364  0.72809  Biso   1.000  C
  H4303    1.0000 0.77151  0.81936  0.69217  Biso   1.000  H
  C4045    1.0000 0.06496  0.13648  0.81888  Biso   1.000  C
  C4046    1.0000 0.95265  0.08520  0.81872  Biso   1.000  C
  H4304    1.0000 0.85854  0.04697  0.81876  Biso   1.000  H
  H4305    1.0000 0.85851  0.04693  0.81876  Biso   1.000  H
  C4047    1.0000 0.18900  0.10410  0.81879  Biso   1.000  C
  H4306    1.0000 0.28234  0.14378  0.81886  Biso   1.000  H
  H4307    1.0000 0.28232  0.14373  0.81886  Biso   1.000  H
  H4308    1.0000 0.19234  0.95616  0.81886  Biso   1.000  H
  C4048    1.0000 0.13610  0.99247  0.81873  Biso   1.000  C
  C4049    1.0000 0.13608  0.99242  0.81873  Biso   1.000  C
  H4309    1.0000 0.41901  0.00154  0.87227  Biso   1.000  H
  H4310    1.0000 0.88502  0.69135  0.69896  Biso   1.000  H
  C4050    1.0000 0.83156  0.69748  0.71340  Biso   1.000  C
  C4051    1.0000 0.83153  0.69743  0.71340  Biso   1.000  C
  H4311    1.0000 0.87235  0.59267  0.73127  Biso   1.000  H
  C4052    1.0000 0.82525  0.63866  0.73276  Biso   1.000  C
  H4312    1.0000 0.87233  0.59263  0.73127  Biso   1.000  H
  H4313    1.0000 0.79314  0.40735  0.66377  Biso   1.000  H
  C4053    1.0000 0.73465  0.77238  0.71871  Biso   1.000  C
  C4054    1.0000 0.73463  0.77233  0.71871  Biso   1.000  C
  C4055    1.0000 0.68553  0.86165  0.73699  Biso   1.000  C
  C4056    1.0000 0.59221  0.75825  0.72863  Biso   1.000  C
  C4057    1.0000 0.69933  0.76836  0.73010  Biso   1.000  C
  C4058    1.0000 0.10457  0.16862  0.80649  Biso   1.000  C
  C4059    1.0000 0.10194  0.16572  0.83183  Biso   1.000  C
  C4060    1.0000 0.03617  0.06578  0.81865  Biso   1.000  C
  C4061    1.0000 0.03615  0.06574  0.81865  Biso   1.000  C
  C4062    1.0000 0.96990  0.03607  0.81850  Biso   1.000  C
  C4063    1.0000 0.13255  0.04735  0.81872  Biso   1.000  C
  H4314    1.0000 0.18845  0.14148  0.81876  Biso   1.000  H
  C4064    1.0000 0.13252  0.04730  0.81872  Biso   1.000  C
  H4315    1.0000 0.18843  0.14144  0.81876  Biso   1.000  H
  C4065    1.0000 0.07154  0.93506  0.81888  Biso   1.000  C
  C4066    1.0000 0.07152  0.93501  0.81888  Biso   1.000  C
  C4067    1.0000 0.80924  0.67909  0.72606  Biso   1.000  C
  C4068    1.0000 0.80945  0.73818  0.70741  Biso   1.000  C
  C4069    1.0000 0.80921  0.67904  0.72606  Biso   1.000  C
  C4070    1.0000 0.80942  0.73813  0.70741  Biso   1.000  C
  H4316    1.0000 0.81030  0.62514  0.74117  Biso   1.000  H
  C4071    1.0000 0.76916  0.74188  0.71848  Biso   1.000  C
  C4072    1.0000 0.76913  0.74183  0.71848  Biso   1.000  C
  H4317    1.0000 0.66585  0.88486  0.73386  Biso   1.000  H
  H4318    1.0000 0.67045  0.84738  0.74587  Biso   1.000  H
  C4073    1.0000 0.75532  0.90544  0.73754  Biso   1.000  C
  H4319    1.0000 0.67043  0.84733  0.74587  Biso   1.000  H
  H4320    1.0000 0.58132  0.74295  0.73757  Biso   1.000  H
  H4321    1.0000 0.57193  0.78235  0.72676  Biso   1.000  H
  C4074    1.0000 0.56624  0.70445  0.71987  Biso   1.000  C
  C4075    1.0000 0.70233  0.73659  0.74106  Biso   1.000  C
  C4076    1.0000 0.70231  0.73654  0.74106  Biso   1.000  C
  H4322    1.0000 0.11673  0.21255  0.80666  Biso   1.000  H
  H4323    1.0000 0.14253  0.16619  0.80687  Biso   1.000  H
  C4077    1.0000 0.07262  0.14167  0.79386  Biso   1.000  C
  H4324    1.0000 0.14251  0.16614  0.80687  Biso   1.000  H
  C4078    1.0000 0.07259  0.14162  0.79386  Biso   1.000  C
  H4325    1.0000 0.13684  0.15805  0.83227  Biso   1.000  H
  H4326    1.0000 0.11916  0.21068  0.83146  Biso   1.000  H
  C4079    1.0000 0.06364  0.14097  0.84427  Biso   1.000  C
  H4327    1.0000 0.11913  0.21063  0.83146  Biso   1.000  H
  C4080    1.0000 0.06361  0.14092  0.84427  Biso   1.000  C
  C4081    1.0000 0.06618  0.03008  0.81850  Biso   1.000  C
  C4082    1.0000 0.93424  0.97043  0.81865  Biso   1.000  C
  C4083    1.0000 0.93422  0.97038  0.81865  Biso   1.000  C
  C4084    1.0000 0.06409  0.89543  0.80649  Biso   1.000  C
  C4085    1.0000 0.06377  0.89805  0.83183  Biso   1.000  C
  C4086    1.0000 0.02961  0.96383  0.81865  Biso   1.000  C
  C4087    1.0000 0.06406  0.89538  0.80649  Biso   1.000  C
  C4088    1.0000 0.06375  0.89800  0.83183  Biso   1.000  C
  C4089    1.0000 0.02958  0.96379  0.81865  Biso   1.000  C
  C4090    1.0000 0.76983  0.70725  0.72947  Biso   1.000  C
  C4091    1.0000 0.76974  0.70608  0.69510  Biso   1.000  C
  C4092    1.0000 0.86612  0.80176  0.70381  Biso   1.000  C
  C4093    1.0000 0.76971  0.70604  0.69510  Biso   1.000  C
  H4328    1.0000 0.77101  0.91415  0.72857  Biso   1.000  H
  H4329    1.0000 0.77414  0.88378  0.74187  Biso   1.000  H
  C4094    1.0000 0.77782  0.96795  0.74456  Biso   1.000  C
  H4330    1.0000 0.77412  0.88373  0.74187  Biso   1.000  H
  H4331    1.0000 0.58335  0.72157  0.71127  Biso   1.000  H
  H4332    1.0000 0.52190  0.69065  0.71937  Biso   1.000  H
  C4095    1.0000 0.56931  0.64615  0.72085  Biso   1.000  C
  H4333    1.0000 0.58333  0.72152  0.71127  Biso   1.000  H
  C4096    1.0000 0.67113  0.72386  0.75427  Biso   1.000  C
  C4097    1.0000 0.73613  0.70426  0.74065  Biso   1.000  C
  H4334    1.0000 0.03204  0.13896  0.79417  Biso   1.000  H
  H4335    1.0000 0.06515  0.09919  0.79327  Biso   1.000  H
  C4098    1.0000 0.10632  0.17667  0.78081  Biso   1.000  C
  H4336    1.0000 0.06513  0.09914  0.79327  Biso   1.000  H
  C4099    1.0000 0.10630  0.17662  0.78081  Biso   1.000  C
  H4337    1.0000 0.04701  0.09605  0.84466  Biso   1.000  H
  C4100    1.0000 0.09934  0.17016  0.85694  Biso   1.000  C
  H4338    1.0000 0.02846  0.14808  0.84377  Biso   1.000  H
  H4339    1.0000 0.02843  0.14803  0.84377  Biso   1.000  H
  C4101    1.0000 0.96392  0.93384  0.81850  Biso   1.000  C
  C4102    1.0000 0.86350  0.92846  0.81888  Biso   1.000  C
  C4103    1.0000 0.96390  0.93380  0.81850  Biso   1.000  C
  H4340    1.0000 0.09585  0.88327  0.80666  Biso   1.000  H
  H4341    1.0000 0.02364  0.85749  0.80687  Biso   1.000  H
  C4104    1.0000 0.06904  0.92739  0.79386  Biso   1.000  C
  H4342    1.0000 0.02361  0.85744  0.80687  Biso   1.000  H
  C4105    1.0000 0.06902  0.92734  0.79386  Biso   1.000  C
  H4343    1.0000 0.02124  0.86315  0.83227  Biso   1.000  H
  H4344    1.0000 0.09153  0.88088  0.83146  Biso   1.000  H
  C4106    1.0000 0.07734  0.93637  0.84427  Biso   1.000  C
  H4345    1.0000 0.09151  0.88083  0.83146  Biso   1.000  H
  C4107    1.0000 0.07732  0.93632  0.84427  Biso   1.000  C
  H4346    1.0000 0.75544  0.73317  0.69157  Biso   1.000  H
  H4347    1.0000 0.79703  0.70337  0.68857  Biso   1.000  H
  C4108    1.0000 0.71696  0.64559  0.69659  Biso   1.000  C
  H4348    1.0000 0.75542  0.73313  0.69157  Biso   1.000  H
  H4349    1.0000 0.79700  0.70332  0.68857  Biso   1.000  H
  C4109    1.0000 0.71694  0.64554  0.69659  Biso   1.000  C
  H4350    1.0000 0.89132  0.79489  0.69746  Biso   1.000  H
  H4351    1.0000 0.85113  0.82698  0.69956  Biso   1.000  H
  C4110    1.0000 0.90675  0.83798  0.71487  Biso   1.000  C
  H4352    1.0000 0.89130  0.79484  0.69746  Biso   1.000  H
  H4353    1.0000 0.85111  0.82694  0.69956  Biso   1.000  H
  C4111    1.0000 0.90673  0.83793  0.71487  Biso   1.000  C
  H4354    1.0000 0.75832  0.95878  0.75316  Biso   1.000  H
  H4355    1.0000 0.82251  0.98676  0.74596  Biso   1.000  H
  H4356    1.0000 0.75830  0.95873  0.75316  Biso   1.000  H
  C4112    1.0000 0.76756  0.01259  0.73884  Biso   1.000  C
  C4113    1.0000 0.76753  0.01254  0.73884  Biso   1.000  C
  C4114    1.0000 0.52423  0.59716  0.71049  Biso   1.000  C
  H4357    1.0000 0.55735  0.62889  0.72957  Biso   1.000  H
  H4358    1.0000 0.61193  0.65546  0.71926  Biso   1.000  H
  H4359    1.0000 0.55733  0.62884  0.72957  Biso   1.000  H
  C4115    1.0000 0.68702  0.68555  0.76110  Biso   1.000  C
  C4116    1.0000 0.63225  0.74286  0.76011  Biso   1.000  C
  C4117    1.0000 0.72814  0.66786  0.75353  Biso   1.000  C
  H4360    1.0000 0.08333  0.15126  0.77336  Biso   1.000  H
  H4361    1.0000 0.14816  0.18238  0.78057  Biso   1.000  H
  C4118    1.0000 0.11045  0.24067  0.77987  Biso   1.000  C
  H4362    1.0000 0.14813  0.18233  0.78057  Biso   1.000  H
  C4119    1.0000 0.11043  0.24062  0.77987  Biso   1.000  C
  H4363    1.0000 0.13752  0.16815  0.85717  Biso   1.000  H
  H4364    1.0000 0.11033  0.21377  0.85747  Biso   1.000  H
  C4120    1.0000 0.05346  0.13058  0.86941  Biso   1.000  C
  H4365    1.0000 0.11031  0.21372  0.85747  Biso   1.000  H
  C4121    1.0000 0.05344  0.13054  0.86941  Biso   1.000  C
  C4122    1.0000 0.91480  0.86745  0.81872  Biso   1.000  C
  C4123    1.0000 0.91478  0.86741  0.81872  Biso   1.000  C
  C4124    1.0000 0.85638  0.86390  0.81873  Biso   1.000  C
  C4125    1.0000 0.83139  0.93595  0.80649  Biso   1.000  C
  C4126    1.0000 0.83428  0.93623  0.83183  Biso   1.000  C
  C4127    1.0000 0.83136  0.93590  0.80649  Biso   1.000  C
  C4128    1.0000 0.83426  0.93618  0.83183  Biso   1.000  C
  H4366    1.0000 0.10691  0.96795  0.79417  Biso   1.000  H
  H4367    1.0000 0.03405  0.93487  0.79327  Biso   1.000  H
  C4129    1.0000 0.07033  0.89365  0.78081  Biso   1.000  C
  H4368    1.0000 0.03403  0.93483  0.79327  Biso   1.000  H
  H4369    1.0000 0.04906  0.95298  0.84466  Biso   1.000  H
  H4370    1.0000 0.11961  0.97155  0.84377  Biso   1.000  H
  C4130    1.0000 0.07084  0.90067  0.85694  Biso   1.000  C
  H4371    1.0000 0.04904  0.95293  0.84466  Biso   1.000  H
  C4131    1.0000 0.07081  0.90062  0.85694  Biso   1.000  C
  H4372    1.0000 0.68622  0.64755  0.70217  Biso   1.000  H
  H4373    1.0000 0.72930  0.61784  0.70067  Biso   1.000  H
  C4132    1.0000 0.68772  0.61976  0.68285  Biso   1.000  C
  H4374    1.0000 0.91634  0.81089  0.72007  Biso   1.000  H
  H4375    1.0000 0.88433  0.85197  0.72047  Biso   1.000  H
  C4133    1.0000 0.96903  0.89576  0.71031  Biso   1.000  C
  H4376    1.0000 0.91632  0.81084  0.72007  Biso   1.000  H
  H4377    1.0000 0.72344  0.99518  0.73736  Biso   1.000  H
  H4378    1.0000 0.72342  0.99513  0.73736  Biso   1.000  H
  H4379    1.0000 0.78933  0.02517  0.73067  Biso   1.000  H
  H4380    1.0000 0.78241  0.04805  0.74456  Biso   1.000  H
  H4381    1.0000 0.78930  0.02512  0.73067  Biso   1.000  H
  H4382    1.0000 0.48186  0.58608  0.71237  Biso   1.000  H
  H4383    1.0000 0.52811  0.56034  0.71087  Biso   1.000  H
  H4384    1.0000 0.53511  0.61494  0.70187  Biso   1.000  H
  H4385    1.0000 0.48183  0.58603  0.71237  Biso   1.000  H
  C4134    1.0000 0.66524  0.66655  0.77381  Biso   1.000  C
  C4135    1.0000 0.61196  0.72279  0.77277  Biso   1.000  C
  H4386    1.0000 0.62043  0.76817  0.75566  Biso   1.000  H
  C4136    1.0000 0.61194  0.72274  0.77277  Biso   1.000  C
  H4387    1.0000 0.62041  0.76812  0.75566  Biso   1.000  H
  C4137    1.0000 0.78904  0.69055  0.76116  Biso   1.000  C
  C4138    1.0000 0.69203  0.59548  0.75144  Biso   1.000  C
  C4139    1.0000 0.69200  0.59543  0.75144  Biso   1.000  C
  H4388    1.0000 0.06953  0.23557  0.78107  Biso   1.000  H
  H4389    1.0000 0.12643  0.25868  0.77147  Biso   1.000  H
  H4390    1.0000 0.13785  0.26767  0.78656  Biso   1.000  H
  H4391    1.0000 0.06950  0.23553  0.78107  Biso   1.000  H
  H4392    1.0000 0.12640  0.25864  0.77147  Biso   1.000  H
  H4393    1.0000 0.13782  0.26762  0.78656  Biso   1.000  H
  H4394    1.0000 0.01623  0.13376  0.86917  Biso   1.000  H
  H4395    1.0000 0.04222  0.08735  0.86877  Biso   1.000  H
  H4396    1.0000 0.07515  0.14747  0.87746  Biso   1.000  H
  H4397    1.0000 0.07513  0.14743  0.87746  Biso   1.000  H
  C4140    1.0000 0.91509  0.81098  0.81879  Biso   1.000  C
  C4141    1.0000 0.80174  0.80817  0.81886  Biso   1.000  C
  C4142    1.0000 0.80171  0.80813  0.81886  Biso   1.000  C
  H4398    1.0000 0.78742  0.90418  0.80666  Biso   1.000  H
  H4399    1.0000 0.83385  0.97637  0.80687  Biso   1.000  H
  C4143    1.0000 0.85836  0.93099  0.79386  Biso   1.000  C
  H4400    1.0000 0.78740  0.90413  0.80666  Biso   1.000  H
  H4401    1.0000 0.83383  0.97633  0.80687  Biso   1.000  H
  C4144    1.0000 0.85834  0.93094  0.79386  Biso   1.000  C
  H4402    1.0000 0.84193  0.97876  0.83227  Biso   1.000  H
  H4403    1.0000 0.78933  0.90848  0.83146  Biso   1.000  H
  C4145    1.0000 0.85902  0.92266  0.84427  Biso   1.000  C
  H4404    1.0000 0.78931  0.90844  0.83146  Biso   1.000  H
  H4405    1.0000 0.03424  0.85187  0.78057  Biso   1.000  H
  H4406    1.0000 0.06794  0.91667  0.77336  Biso   1.000  H
  C4146    1.0000 0.13025  0.88958  0.77987  Biso   1.000  C
  H4407    1.0000 0.03422  0.85183  0.78057  Biso   1.000  H
  H4408    1.0000 0.06792  0.91663  0.77336  Biso   1.000  H
  C4147    1.0000 0.13022  0.88954  0.77987  Biso   1.000  C
  H4409    1.0000 0.10343  0.88968  0.85747  Biso   1.000  H
  H4410    1.0000 0.03062  0.86245  0.85717  Biso   1.000  H
  C4148    1.0000 0.07713  0.94657  0.86941  Biso   1.000  C
  H4411    1.0000 0.10340  0.88963  0.85747  Biso   1.000  H
  C4149    1.0000 0.07711  0.94652  0.86941  Biso   1.000  C
  H4412    1.0000 0.64793  0.58144  0.68397  Biso   1.000  H
  H4413    1.0000 0.67953  0.64999  0.67857  Biso   1.000  H
  C4150    1.0000 0.72955  0.60666  0.67419  Biso   1.000  C
  H4414    1.0000 0.67951  0.64994  0.67857  Biso   1.000  H
  H4415    1.0000 0.95865  0.92467  0.70606  Biso   1.000  H
  H4416    1.0000 0.99325  0.91649  0.71807  Biso   1.000  H
  H4417    1.0000 0.95863  0.92463  0.70606  Biso   1.000  H
  H4418    1.0000 0.99323  0.91644  0.71807  Biso   1.000  H
  C4151    1.0000 0.01231  0.88556  0.70085  Biso   1.000  C
  H4419    1.0000 0.67614  0.64077  0.77836  Biso   1.000  H
  C4152    1.0000 0.62751  0.68606  0.77963  Biso   1.000  C
  H4420    1.0000 0.67612  0.64072  0.77836  Biso   1.000  H
  H4421    1.0000 0.58604  0.73528  0.77677  Biso   1.000  H
  H4422    1.0000 0.58601  0.73523  0.77677  Biso   1.000  H
  H4423    1.0000 0.77874  0.67118  0.76976  Biso   1.000  H
  H4424    1.0000 0.81382  0.67577  0.75666  Biso   1.000  H
  C4153    1.0000 0.82892  0.76026  0.76297  Biso   1.000  C
  H4425    1.0000 0.77872  0.67113  0.76976  Biso   1.000  H
  H4426    1.0000 0.71944  0.58435  0.74677  Biso   1.000  H
  H4427    1.0000 0.68363  0.57569  0.75997  Biso   1.000  H
  C4154    1.0000 0.63185  0.56848  0.74415  Biso   1.000  C
  H4428    1.0000 0.68361  0.57564  0.75997  Biso   1.000  H
  C4155    1.0000 0.63183  0.56844  0.74415  Biso   1.000  C
  C4156    1.0000 0.86002  0.75465  0.81889  Biso   1.000  C
  H4429    1.0000 0.95304  0.81159  0.81876  Biso   1.000  H
  C4157    1.0000 0.86000  0.75460  0.81889  Biso   1.000  C
  H4430    1.0000 0.95302  0.81154  0.81876  Biso   1.000  H
  C4158    1.0000 0.80220  0.75189  0.81900  Biso   1.000  C
  H4431    1.0000 0.76384  0.80766  0.81886  Biso   1.000  H
  C4159    1.0000 0.80218  0.75184  0.81900  Biso   1.000  C
  H4432    1.0000 0.86103  0.89305  0.79417  Biso   1.000  H
  H4433    1.0000 0.90086  0.96599  0.79327  Biso   1.000  H
  C4160    1.0000 0.82335  0.92968  0.78081  Biso   1.000  C
  H4434    1.0000 0.90084  0.96594  0.79327  Biso   1.000  H
  C4161    1.0000 0.82333  0.92963  0.78081  Biso   1.000  C
  H4435    1.0000 0.90393  0.95097  0.84466  Biso   1.000  H
  H4436    1.0000 0.85193  0.88037  0.84377  Biso   1.000  H
  C4162    1.0000 0.82982  0.92916  0.85694  Biso   1.000  C
  H4437    1.0000 0.90390  0.95092  0.84466  Biso   1.000  H
  H4438    1.0000 0.16605  0.93047  0.78107  Biso   1.000  H
  H4439    1.0000 0.13225  0.87358  0.77147  Biso   1.000  H
  H4440    1.0000 0.12983  0.86217  0.78656  Biso   1.000  H
  H4441    1.0000 0.16602  0.93043  0.78107  Biso   1.000  H
  H4442    1.0000 0.13223  0.87354  0.77147  Biso   1.000  H
  H4443    1.0000 0.11753  0.98376  0.86917  Biso   1.000  H
  H4444    1.0000 0.07232  0.92486  0.87746  Biso   1.000  H
  H4445    1.0000 0.04512  0.95775  0.86877  Biso   1.000  H
  H4446    1.0000 0.76812  0.64475  0.67266  Biso   1.000  H
  H4447    1.0000 0.70895  0.58987  0.66597  Biso   1.000  H
  H4448    1.0000 0.73794  0.57686  0.67847  Biso   1.000  H
  H4449    1.0000 0.98971  0.86516  0.69307  Biso   1.000  H
  H4450    1.0000 0.02634  0.85997  0.70506  Biso   1.000  H
  H4451    1.0000 0.04785  0.92528  0.69856  Biso   1.000  H
  H4452    1.0000 0.04783  0.92523  0.69856  Biso   1.000  H
  C4163    1.0000 0.60461  0.66725  0.79337  Biso   1.000  C
  H4453    1.0000 0.80325  0.77547  0.76687  Biso   1.000  H
  H4454    1.0000 0.84162  0.77935  0.75437  Biso   1.000  H
  C4164    1.0000 0.88704  0.78235  0.77128  Biso   1.000  C
  H4455    1.0000 0.80323  0.77542  0.76687  Biso   1.000  H
  H4456    1.0000 0.64003  0.58477  0.73527  Biso   1.000  H
  H4457    1.0000 0.60493  0.58158  0.74837  Biso   1.000  H
  C4165    1.0000 0.59834  0.49765  0.74365  Biso   1.000  C
  H4458    1.0000 0.60491  0.58154  0.74837  Biso   1.000  H
  H4459    1.0000 0.86144  0.71769  0.81886  Biso   1.000  H
  H4460    1.0000 0.86141  0.71764  0.81886  Biso   1.000  H
  C4166    1.0000 0.74499  0.69079  0.81977  Biso   1.000  C
  H4461    1.0000 0.81764  0.96575  0.78057  Biso   1.000  H
  H4462    1.0000 0.84873  0.93207  0.77336  Biso   1.000  H
  C4167    1.0000 0.75931  0.86975  0.77987  Biso   1.000  C
  H4463    1.0000 0.78624  0.89655  0.85747  Biso   1.000  H
  H4464    1.0000 0.83184  0.96935  0.85717  Biso   1.000  H
  C4168    1.0000 0.86941  0.92285  0.86941  Biso   1.000  C
  N166     1.0000 0.61299  0.62921  0.79996  Biso   1.000  N
  H4465    1.0000 0.90983  0.76228  0.76817  Biso   1.000  H
  H4466    1.0000 0.91362  0.82708  0.77007  Biso   1.000  H
  C4169    1.0000 0.87512  0.77018  0.78432  Biso   1.000  C
  H4467    1.0000 0.90980  0.76223  0.76817  Biso   1.000  H
  H4468    1.0000 0.91360  0.82703  0.77007  Biso   1.000  H
  C4170    1.0000 0.87510  0.77014  0.78432  Biso   1.000  C
  H4469    1.0000 0.58974  0.48085  0.75247  Biso   1.000  H
  H4470    1.0000 0.62475  0.48417  0.73937  Biso   1.000  H
  C4171    1.0000 0.53254  0.47107  0.73553  Biso   1.000  C
  H4471    1.0000 0.62472  0.48413  0.73937  Biso   1.000  H
  C4172    1.0000 0.53252  0.47103  0.73553  Biso   1.000  C
  N167     1.0000 0.69197  0.68531  0.82158  Biso   1.000  N
  N168     1.0000 0.69194  0.68526  0.82158  Biso   1.000  N
  H4472    1.0000 0.76442  0.83395  0.78107  Biso   1.000  H
  H4473    1.0000 0.74135  0.86778  0.77147  Biso   1.000  H
  H4474    1.0000 0.73233  0.87017  0.78656  Biso   1.000  H
  H4475    1.0000 0.74132  0.86773  0.77147  Biso   1.000  H
  H4476    1.0000 0.86624  0.88247  0.86917  Biso   1.000  H
  H4477    1.0000 0.85253  0.92767  0.87746  Biso   1.000  H
  H4478    1.0000 0.91264  0.95485  0.86877  Biso   1.000  H
  H4479    1.0000 0.86621  0.88242  0.86917  Biso   1.000  H
  H4480    1.0000 0.85251  0.92762  0.87746  Biso   1.000  H
  C4173    1.0000 0.58717  0.61494  0.81331  Biso   1.000  C
  H4481    1.0000 0.85273  0.79007  0.78746  Biso   1.000  H
  H4482    1.0000 0.91384  0.78595  0.78896  Biso   1.000  H
  H4483    1.0000 0.85013  0.72578  0.78567  Biso   1.000  H
  H4484    1.0000 0.85271  0.79002  0.78746  Biso   1.000  H
  H4485    1.0000 0.85010  0.72574  0.78567  Biso   1.000  H
  H4486    1.0000 0.50503  0.48137  0.74017  Biso   1.000  H
  H4487    1.0000 0.51304  0.42649  0.73467  Biso   1.000  H
  H4488    1.0000 0.54093  0.48988  0.72697  Biso   1.000  H
  H4489    1.0000 0.50500  0.48132  0.74017  Biso   1.000  H
  H4490    1.0000 0.51302  0.42644  0.73467  Biso   1.000  H
  H4491    1.0000 0.54091  0.48984  0.72697  Biso   1.000  H
  C4174    1.0000 0.63813  0.62107  0.82261  Biso   1.000  C
  H4492    1.0000 0.57512  0.64587  0.81576  Biso   1.000  H
  C4175    1.0000 0.52951  0.55131  0.81329  Biso   1.000  C
  H4493    1.0000 0.57510  0.64582  0.81576  Biso   1.000  H
  C4176    1.0000 0.52948  0.55127  0.81329  Biso   1.000  C
  H4494    1.0000 0.65162  0.59164  0.81986  Biso   1.000  H
  C4177    1.0000 0.61840  0.60835  0.83682  Biso   1.000  C
  C4178    1.0000 0.47201  0.54345  0.81511  Biso   1.000  C
  C4179    1.0000 0.53364  0.49807  0.81105  Biso   1.000  C
  C4180    1.0000 0.53361  0.49802  0.81105  Biso   1.000  C
  C4181    1.0000 0.60976  0.65088  0.84409  Biso   1.000  C
  C4182    1.0000 0.61215  0.55566  0.84312  Biso   1.000  C
  C4183    1.0000 0.60973  0.65083  0.84409  Biso   1.000  C
  H4495    1.0000 0.46785  0.57817  0.81686  Biso   1.000  H
  C4184    1.0000 0.41802  0.48385  0.81444  Biso   1.000  C
  H4496    1.0000 0.46783  0.57812  0.81686  Biso   1.000  H
  H4497    1.0000 0.57262  0.50149  0.81007  Biso   1.000  H
  C4185    1.0000 0.48044  0.44005  0.81026  Biso   1.000  C
  H4498    1.0000 0.57260  0.50144  0.81007  Biso   1.000  H
  H4499    1.0000 0.61272  0.68597  0.84006  Biso   1.000  H
  C4186    1.0000 0.59645  0.64128  0.85750  Biso   1.000  C
  C4187    1.0000 0.59643  0.64124  0.85750  Biso   1.000  C
  H4500    1.0000 0.61771  0.52675  0.83837  Biso   1.000  H
  C4188    1.0000 0.59816  0.54518  0.85625  Biso   1.000  C
  C4189    1.0000 0.59814  0.54514  0.85625  Biso   1.000  C
  H4501    1.0000 0.37874  0.47936  0.81567  Biso   1.000  H
  C4190    1.0000 0.42432  0.43276  0.81195  Biso   1.000  C
  H4502    1.0000 0.48431  0.40525  0.80847  Biso   1.000  H
  H4503    1.0000 0.59123  0.67006  0.86247  Biso   1.000  H
  C4191    1.0000 0.59112  0.58767  0.86335  Biso   1.000  C
  C4192    1.0000 0.59110  0.58762  0.86335  Biso   1.000  C
  H4504    1.0000 0.59352  0.50916  0.86026  Biso   1.000  H
  H4505    1.0000 0.38925  0.39317  0.81147  Biso   1.000  H
  H4506    1.0000 0.38923  0.39313  0.81147  Biso   1.000  H
  H4507    1.0000 0.58255  0.58098  0.87227  Biso   1.000  H
  H4508    1.0000 0.58252  0.58093  0.87227  Biso   1.000  H
  C4193    1.0000 0.27987  0.53608  0.79725  Biso   1.000  C
  C4194    1.0000 0.23399  0.49650  0.80973  Biso   1.000  C
  H4509    1.0000 0.31710  0.53290  0.79750  Biso   1.000  H
  H4510    1.0000 0.25818  0.51919  0.78920  Biso   1.000  H
  H4511    1.0000 0.29112  0.57932  0.79790  Biso   1.000  H
  C4195    1.0000 0.26970  0.52570  0.82240  Biso   1.000  C
  H4512    1.0000 0.22300  0.45290  0.80920  Biso   1.000  H
  H4513    1.0000 0.19581  0.49851  0.80950  Biso   1.000  H
  C4196    1.0000 0.23139  0.50095  0.83484  Biso   1.000  C
  H4514    1.0000 0.28632  0.57061  0.82200  Biso   1.000  H
  H4515    1.0000 0.30488  0.51859  0.82290  Biso   1.000  H
  C4197    1.0000 0.26838  0.53019  0.84778  Biso   1.000  C
  H4516    1.0000 0.19649  0.50862  0.83440  Biso   1.000  H
  H4517    1.0000 0.21418  0.45599  0.83520  Biso   1.000  H
  C4198    1.0000 0.29716  0.60088  0.84802  Biso   1.000  C
  C4199    1.0000 0.32578  0.52303  0.84794  Biso   1.000  C
  C4200    1.0000 0.22876  0.49805  0.86018  Biso   1.000  C
  C4201    1.0000 0.26716  0.63658  0.84817  Biso   1.000  C
  C4202    1.0000 0.36343  0.63059  0.84817  Biso   1.000  C
  C4203    1.0000 0.38069  0.58147  0.84795  Biso   1.000  C
  C4204    1.0000 0.32692  0.46843  0.84780  Biso   1.000  C
  H4518    1.0000 0.21660  0.45411  0.86000  Biso   1.000  H
  H4519    1.0000 0.19080  0.50048  0.85980  Biso   1.000  H
  C4205    1.0000 0.26072  0.52500  0.87281  Biso   1.000  C
  C4206    1.0000 0.20079  0.61932  0.84795  Biso   1.000  C
  C4207    1.0000 0.30373  0.70283  0.84802  Biso   1.000  C
  C4208    1.0000 0.39909  0.69624  0.84802  Biso   1.000  C
  C4209    1.0000 0.43743  0.58175  0.84787  Biso   1.000  C
  C4210    1.0000 0.38368  0.46890  0.84767  Biso   1.000  C
  H4520    1.0000 0.28947  0.43049  0.84780  Biso   1.000  H
  H4521    1.0000 0.30129  0.52771  0.87250  Biso   1.000  H
  H4522    1.0000 0.26818  0.56748  0.87340  Biso   1.000  H
  C4211    1.0000 0.22701  0.49000  0.88586  Biso   1.000  C
  C4212    1.0000 0.19723  0.67420  0.84794  Biso   1.000  C
  C4213    1.0000 0.14433  0.56257  0.84787  Biso   1.000  C
  C4214    1.0000 0.26179  0.73161  0.84778  Biso   1.000  C
  C4215    1.0000 0.36941  0.73282  0.84817  Biso   1.000  C
  C4216    1.0000 0.46983  0.73820  0.84778  Biso   1.000  C
  C4217    1.0000 0.43870  0.52668  0.84777  Biso   1.000  C
  H4523    1.0000 0.47480  0.61969  0.84790  Biso   1.000  H
  C4218    1.0000 0.38750  0.41163  0.84689  Biso   1.000  C
  H4524    1.0000 0.18518  0.48429  0.88610  Biso   1.000  H
  H4525    1.0000 0.25000  0.51540  0.89330  Biso   1.000  H
  C4219    1.0000 0.22288  0.42599  0.88679  Biso   1.000  C
  C4220    1.0000 0.14148  0.67308  0.84780  Biso   1.000  C
  C4221    1.0000 0.08799  0.56130  0.84777  Biso   1.000  C
  H4526    1.0000 0.14488  0.52518  0.84790  Biso   1.000  H
  C4222    1.0000 0.26925  0.77124  0.86018  Biso   1.000  C
  C4223    1.0000 0.26956  0.76862  0.83484  Biso   1.000  C
  C4224    1.0000 0.41853  0.79921  0.84795  Biso   1.000  C
  C4225    1.0000 0.47695  0.80277  0.84794  Biso   1.000  C
  C4226    1.0000 0.50195  0.73072  0.86018  Biso   1.000  C
  C4227    1.0000 0.49905  0.73044  0.83484  Biso   1.000  C
  H4527    1.0000 0.47709  0.52808  0.84780  Biso   1.000  H
  N169     1.0000 0.33997  0.35862  0.84509  Biso   1.000  N
  H4528    1.0000 0.26380  0.43109  0.88560  Biso   1.000  H
  H4529    1.0000 0.20691  0.40798  0.89520  Biso   1.000  H
  H4530    1.0000 0.19549  0.39900  0.88010  Biso   1.000  H
  C4228    1.0000 0.08519  0.61632  0.84767  Biso   1.000  C
  H4531    1.0000 0.14099  0.71051  0.84780  Biso   1.000  H
  H4532    1.0000 0.05099  0.52289  0.84780  Biso   1.000  H
  H4533    1.0000 0.23749  0.78340  0.86000  Biso   1.000  H
  H4534    1.0000 0.30970  0.80918  0.85980  Biso   1.000  H
  C4229    1.0000 0.26429  0.73928  0.87281  Biso   1.000  C
  H4535    1.0000 0.31209  0.80352  0.83440  Biso   1.000  H
  H4536    1.0000 0.24180  0.78579  0.83520  Biso   1.000  H
  C4230    1.0000 0.25599  0.73030  0.82240  Biso   1.000  C
  C4231    1.0000 0.41824  0.85569  0.84787  Biso   1.000  C
  C4232    1.0000 0.53160  0.85849  0.84780  Biso   1.000  C
  H4537    1.0000 0.54591  0.76249  0.86000  Biso   1.000  H
  H4538    1.0000 0.49948  0.69029  0.85980  Biso   1.000  H
  C4233    1.0000 0.47497  0.73568  0.87281  Biso   1.000  C
  H4539    1.0000 0.49140  0.68791  0.83440  Biso   1.000  H
  H4540    1.0000 0.54400  0.75818  0.83520  Biso   1.000  H
  C4234    1.0000 0.47431  0.74401  0.82240  Biso   1.000  C
  C4235    1.0000 0.35038  0.30482  0.84406  Biso   1.000  C
  C4236    1.0000 0.02411  0.61249  0.84689  Biso   1.000  C
  H4541    1.0000 0.22642  0.69872  0.87250  Biso   1.000  H
  H4542    1.0000 0.29928  0.73179  0.87340  Biso   1.000  H
  C4237    1.0000 0.26301  0.77301  0.88586  Biso   1.000  C
  H4543    1.0000 0.28427  0.71369  0.82200  Biso   1.000  H
  H4544    1.0000 0.21372  0.69511  0.82290  Biso   1.000  H
  C4238    1.0000 0.26250  0.76600  0.80973  Biso   1.000  C
  C4239    1.0000 0.47331  0.91202  0.84777  Biso   1.000  C
  H4545    1.0000 0.38029  0.85508  0.84790  Biso   1.000  H
  C4240    1.0000 0.53113  0.91478  0.84767  Biso   1.000  C
  H4546    1.0000 0.56950  0.85901  0.84780  Biso   1.000  H
  H4547    1.0000 0.47230  0.77362  0.87250  Biso   1.000  H
  H4548    1.0000 0.43247  0.70068  0.87340  Biso   1.000  H
  C4241    1.0000 0.50998  0.73699  0.88586  Biso   1.000  C
  H4549    1.0000 0.42941  0.71570  0.82200  Biso   1.000  H
  H4550    1.0000 0.48140  0.78630  0.82290  Biso   1.000  H
  C4242    1.0000 0.50352  0.73750  0.80973  Biso   1.000  C
  C4243    1.0000 0.30556  0.25382  0.85335  Biso   1.000  C
  H4551    1.0000 0.39330  0.31829  0.84680  Biso   1.000  H
  C4244    1.0000 0.34339  0.28507  0.82985  Biso   1.000  C
  N170     1.0000 0.01863  0.66002  0.84509  Biso   1.000  N
  H4552    1.0000 0.29909  0.81479  0.88610  Biso   1.000  H
  H4553    1.0000 0.26539  0.74999  0.89330  Biso   1.000  H
  C4245    1.0000 0.20309  0.77708  0.88679  Biso   1.000  C
  H4554    1.0000 0.22991  0.77699  0.80920  Biso   1.000  H
  H4555    1.0000 0.30272  0.80422  0.80950  Biso   1.000  H
  C4246    1.0000 0.25620  0.72010  0.79725  Biso   1.000  C
  H4556    1.0000 0.47190  0.94898  0.84780  Biso   1.000  H
  C4247    1.0000 0.58835  0.97588  0.84689  Biso   1.000  C
  H4557    1.0000 0.51569  0.70091  0.88610  Biso   1.000  H
  H4558    1.0000 0.48460  0.73460  0.89330  Biso   1.000  H
  C4248    1.0000 0.57403  0.79692  0.88679  Biso   1.000  C
  H4559    1.0000 0.54709  0.77011  0.80920  Biso   1.000  H
  H4560    1.0000 0.50149  0.69731  0.80950  Biso   1.000  H
  C4249    1.0000 0.46393  0.74382  0.79725  Biso   1.000  C
  N171     1.0000 0.31709  0.27965  0.86671  Biso   1.000  N
  H4561    1.0000 0.26259  0.24179  0.85090  Biso   1.000  H
  C4250    1.0000 0.31152  0.19613  0.85337  Biso   1.000  C
  C4251    1.0000 0.29222  0.27642  0.82257  Biso   1.000  C
  C4252    1.0000 0.38981  0.27880  0.82354  Biso   1.000  C
  C4253    1.0000 0.95441  0.64959  0.84406  Biso   1.000  C
  H4562    1.0000 0.16729  0.73619  0.88560  Biso   1.000  H
  H4563    1.0000 0.20108  0.79308  0.89520  Biso   1.000  H
  H4564    1.0000 0.20351  0.80450  0.88010  Biso   1.000  H
  H4565    1.0000 0.21580  0.68290  0.79750  Biso   1.000  H
  H4566    1.0000 0.26102  0.74181  0.78920  Biso   1.000  H
  H4567    1.0000 0.28821  0.70892  0.79790  Biso   1.000  H
  N172     1.0000 0.64137  0.98136  0.84509  Biso   1.000  N
  H4568    1.0000 0.56891  0.83271  0.88560  Biso   1.000  H
  H4569    1.0000 0.59199  0.79889  0.89520  Biso   1.000  H
  H4570    1.0000 0.60101  0.79650  0.88010  Biso   1.000  H
  H4571    1.0000 0.46710  0.78420  0.79750  Biso   1.000  H
  H4572    1.0000 0.48080  0.73900  0.78920  Biso   1.000  H
  H4573    1.0000 0.42070  0.71182  0.79790  Biso   1.000  H
  C4254    1.0000 0.27071  0.27132  0.87330  Biso   1.000  C
  C4255    1.0000 0.26191  0.13872  0.85156  Biso   1.000  C
  C4256    1.0000 0.36891  0.20029  0.85562  Biso   1.000  C
  H4574    1.0000 0.26009  0.27941  0.82660  Biso   1.000  H
  C4257    1.0000 0.28851  0.26308  0.80917  Biso   1.000  C
  H4575    1.0000 0.42430  0.28442  0.82830  Biso   1.000  H
  C4258    1.0000 0.38630  0.26481  0.81041  Biso   1.000  C
  C4259    1.0000 0.94828  0.69446  0.85335  Biso   1.000  C
  H4576    1.0000 0.92498  0.60669  0.84680  Biso   1.000  H
  C4260    1.0000 0.94167  0.65661  0.82985  Biso   1.000  C
  C4261    1.0000 0.69520  0.04559  0.84406  Biso   1.000  C
  C4262    1.0000 0.27481  0.29420  0.88704  Biso   1.000  C
  H4577    1.0000 0.22301  0.13451  0.84980  Biso   1.000  H
  C4263    1.0000 0.26750  0.08468  0.85223  Biso   1.000  C
  H4578    1.0000 0.40450  0.23931  0.85660  Biso   1.000  H
  C4264    1.0000 0.37371  0.14710  0.85640  Biso   1.000  C
  H4579    1.0000 0.25451  0.25789  0.80420  Biso   1.000  H
  C4265    1.0000 0.33680  0.25780  0.80331  Biso   1.000  C
  H4580    1.0000 0.41769  0.26018  0.80640  Biso   1.000  H
  N173     1.0000 0.96256  0.68290  0.86671  Biso   1.000  N
  H4581    1.0000 0.97920  0.73741  0.85090  Biso   1.000  H
  C4266    1.0000 0.88463  0.68847  0.85337  Biso   1.000  C
  C4267    1.0000 0.98420  0.70779  0.82257  Biso   1.000  C
  C4268    1.0000 0.88901  0.61019  0.82354  Biso   1.000  C
  C4269    1.0000 0.74616  0.05172  0.85335  Biso   1.000  C
  H4582    1.0000 0.68172  0.07502  0.84680  Biso   1.000  H
  C4270    1.0000 0.71494  0.05832  0.82985  Biso   1.000  C
  C4271    1.0000 0.33200  0.33191  0.89285  Biso   1.000  C
  C4272    1.0000 0.22249  0.27862  0.89389  Biso   1.000  C
  H4583    1.0000 0.23270  0.04538  0.85100  Biso   1.000  H
  C4273    1.0000 0.32492  0.09100  0.85472  Biso   1.000  C
  H4584    1.0000 0.41240  0.15098  0.85820  Biso   1.000  H
  H4585    1.0000 0.33489  0.24919  0.79440  Biso   1.000  H
  C4274    1.0000 0.00060  0.72931  0.87330  Biso   1.000  C
  C4275    1.0000 0.87679  0.73811  0.85156  Biso   1.000  C
  C4276    1.0000 0.83140  0.63111  0.85562  Biso   1.000  C
  H4586    1.0000 0.01930  0.73989  0.82660  Biso   1.000  H
  C4277    1.0000 0.97459  0.71149  0.80917  Biso   1.000  C
  H4587    1.0000 0.86010  0.57571  0.82830  Biso   1.000  H
  C4278    1.0000 0.87849  0.61370  0.81041  Biso   1.000  C
  N174     1.0000 0.72035  0.03745  0.86671  Biso   1.000  N
  H4588    1.0000 0.75821  0.02080  0.85090  Biso   1.000  H
  C4279    1.0000 0.80383  0.11535  0.85337  Biso   1.000  C
  C4280    1.0000 0.72358  0.01579  0.82257  Biso   1.000  C
  C4281    1.0000 0.72118  0.11100  0.82354  Biso   1.000  C
  H4589    1.0000 0.36869  0.34281  0.88830  Biso   1.000  H
  C4282    1.0000 0.33480  0.35371  0.90557  Biso   1.000  C
  H4590    1.0000 0.18409  0.25270  0.88990  Biso   1.000  H
  C4283    1.0000 0.22272  0.29892  0.90655  Biso   1.000  C
  H4591    1.0000 0.32941  0.05591  0.85520  Biso   1.000  H
  C4284    1.0000 0.01941  0.72520  0.88704  Biso   1.000  C
  H4592    1.0000 0.91151  0.77699  0.84980  Biso   1.000  H
  C4285    1.0000 0.81718  0.73250  0.85223  Biso   1.000  C
  H4593    1.0000 0.83479  0.59550  0.85660  Biso   1.000  H
  C4286    1.0000 0.77340  0.62629  0.85640  Biso   1.000  C
  H4594    1.0000 0.00338  0.74550  0.80420  Biso   1.000  H
  C4287    1.0000 0.92099  0.66320  0.80331  Biso   1.000  C
  H4595    1.0000 0.84249  0.58231  0.80640  Biso   1.000  H
  C4288    1.0000 0.72872  0.99941  0.87330  Biso   1.000  C
  C4289    1.0000 0.86132  0.12321  0.85156  Biso   1.000  C
  C4290    1.0000 0.79970  0.16860  0.85562  Biso   1.000  C
  H4596    1.0000 0.72062  0.98070  0.82660  Biso   1.000  H
  C4291    1.0000 0.73688  0.02538  0.80917  Biso   1.000  C
  H4597    1.0000 0.71562  0.13992  0.82830  Biso   1.000  H
  C4292    1.0000 0.73517  0.12148  0.81041  Biso   1.000  C
  C4293    1.0000 0.28061  0.33780  0.91240  Biso   1.000  C
  C4294    1.0000 0.39359  0.39479  0.91314  Biso   1.000  C
  H4598    1.0000 0.18560  0.28708  0.91100  Biso   1.000  H
  C4295    1.0000 0.05609  0.77750  0.89389  Biso   1.000  C
  C4296    1.0000 0.99989  0.66802  0.89285  Biso   1.000  C
  H4599    1.0000 0.81270  0.76731  0.85100  Biso   1.000  H
  C4297    1.0000 0.76611  0.67509  0.85472  Biso   1.000  C
  H4600    1.0000 0.73861  0.58760  0.85820  Biso   1.000  H
  H4601    1.0000 0.91433  0.66512  0.79440  Biso   1.000  H
  C4298    1.0000 0.70582  0.98061  0.88704  Biso   1.000  C
  H4602    1.0000 0.86548  0.08850  0.84980  Biso   1.000  H
  C4299    1.0000 0.91532  0.18282  0.85223  Biso   1.000  C
  H4603    1.0000 0.76071  0.16518  0.85660  Biso   1.000  H
  C4300    1.0000 0.85289  0.22661  0.85640  Biso   1.000  C
  H4604    1.0000 0.74210  0.99661  0.80420  Biso   1.000  H
  C4301    1.0000 0.74221  0.07900  0.80331  Biso   1.000  C
  H4605    1.0000 0.73982  0.15751  0.80640  Biso   1.000  H
  C4302    1.0000 0.29909  0.36901  0.92560  Biso   1.000  C
  C4303    1.0000 0.43178  0.45570  0.90550  Biso   1.000  C
  C4304    1.0000 0.36521  0.40279  0.92602  Biso   1.000  C
  C4305    1.0000 0.42992  0.35872  0.91523  Biso   1.000  C
  H4606    1.0000 0.06861  0.81592  0.88990  Biso   1.000  H
  C4306    1.0000 0.07622  0.77732  0.90655  Biso   1.000  C
  C4307    1.0000 0.01891  0.66522  0.90557  Biso   1.000  C
  H4607    1.0000 0.97412  0.63130  0.88830  Biso   1.000  H
  H4608    1.0000 0.72651  0.67060  0.85520  Biso   1.000  H
  C4308    1.0000 0.72137  0.94388  0.89389  Biso   1.000  C
  C4309    1.0000 0.66809  0.00012  0.89285  Biso   1.000  C
  H4609    1.0000 0.95460  0.18731  0.85100  Biso   1.000  H
  C4310    1.0000 0.90901  0.23391  0.85472  Biso   1.000  C
  H4610    1.0000 0.84903  0.26142  0.85820  Biso   1.000  H
  H4611    1.0000 0.75079  0.08569  0.79440  Biso   1.000  H
  C4311    1.0000 0.26429  0.36601  0.93657  Biso   1.000  C
  H4612    1.0000 0.44090  0.44541  0.89690  Biso   1.000  H
  H4613    1.0000 0.47141  0.48050  0.91000  Biso   1.000  H
  C4312    1.0000 0.40202  0.49561  0.90370  Biso   1.000  C
  C4313    1.0000 0.39589  0.43652  0.93720  Biso   1.000  C
  H4614    1.0000 0.46841  0.38609  0.91990  Biso   1.000  H
  H4615    1.0000 0.44131  0.35029  0.90670  Biso   1.000  H
  C4314    1.0000 0.39670  0.29850  0.92252  Biso   1.000  C
  C4315    1.0000 0.05719  0.71940  0.91240  Biso   1.000  C
  H4616    1.0000 0.10150  0.81442  0.91100  Biso   1.000  H
  C4316    1.0000 0.00122  0.60640  0.91314  Biso   1.000  C
  H4617    1.0000 0.74730  0.93139  0.88990  Biso   1.000  H
  C4317    1.0000 0.70109  0.92381  0.90655  Biso   1.000  C
  C4318    1.0000 0.64631  0.98112  0.90557  Biso   1.000  C
  H4618    1.0000 0.65719  0.02590  0.88830  Biso   1.000  H
  H4619    1.0000 0.94408  0.27349  0.85520  Biso   1.000  H
  C4319    1.0000 0.19421  0.33120  0.93858  Biso   1.000  C
  C4320    1.0000 0.29558  0.40129  0.94795  Biso   1.000  C
  H4620    1.0000 0.36107  0.46988  0.89980  Biso   1.000  H
  H4621    1.0000 0.39560  0.50829  0.91230  Biso   1.000  H
  C4321    1.0000 0.43800  0.55372  0.89538  Biso   1.000  C
  C4322    1.0000 0.46353  0.47592  0.94061  Biso   1.000  C
  C4323    1.0000 0.36062  0.43582  0.94819  Biso   1.000  C
  H4622    1.0000 0.38860  0.30669  0.93140  Biso   1.000  H
  H4623    1.0000 0.35671  0.27160  0.91830  Biso   1.000  H
  C4324    1.0000 0.43400  0.26500  0.92302  Biso   1.000  C
  C4325    1.0000 0.06991  0.70091  0.92560  Biso   1.000  C
  C4326    1.0000 0.02388  0.56818  0.90550  Biso   1.000  C
  C4327    1.0000 0.03762  0.63480  0.92602  Biso   1.000  C
  C4328    1.0000 0.92881  0.57010  0.91523  Biso   1.000  C
  C4329    1.0000 0.66220  0.94280  0.91240  Biso   1.000  C
  H4624    1.0000 0.71290  0.89850  0.91100  Biso   1.000  H
  C4330    1.0000 0.60520  0.99881  0.91314  Biso   1.000  C
  C4331    1.0000 0.18863  0.34922  0.95257  Biso   1.000  C
  C4332    1.0000 0.15722  0.35221  0.92967  Biso   1.000  C
  C4333    1.0000 0.16730  0.25892  0.93804  Biso   1.000  C
  C4334    1.0000 0.24609  0.38950  0.95769  Biso   1.000  C
  H4625    1.0000 0.48092  0.57651  0.89850  Biso   1.000  H
  H4626    1.0000 0.41989  0.58030  0.89660  Biso   1.000  H
  C4335    1.0000 0.43828  0.54179  0.88235  Biso   1.000  C
  C4336    1.0000 0.46741  0.49819  0.95327  Biso   1.000  C
  C4337    1.0000 0.51991  0.49192  0.93391  Biso   1.000  C
  C4338    1.0000 0.40458  0.47610  0.95926  Biso   1.000  C
  H4627    1.0000 0.44222  0.25639  0.91420  Biso   1.000  H
  H4628    1.0000 0.47390  0.29139  0.92730  Biso   1.000  H
  C4339    1.0000 0.39483  0.19922  0.93114  Biso   1.000  C
  C4340    1.0000 0.10167  0.73568  0.93657  Biso   1.000  C
  H4629    1.0000 0.00451  0.55910  0.89690  Biso   1.000  H
  H4630    1.0000 0.00911  0.52860  0.91000  Biso   1.000  H
  C4341    1.0000 0.09360  0.59798  0.90370  Biso   1.000  C
  C4342    1.0000 0.04059  0.60411  0.93720  Biso   1.000  C
  H4631    1.0000 0.91770  0.53159  0.91990  Biso   1.000  H
  H4632    1.0000 0.90900  0.55868  0.90670  Biso   1.000  H
  C4343    1.0000 0.90182  0.60332  0.92252  Biso   1.000  C
  C4344    1.0000 0.63100  0.93008  0.92560  Biso   1.000  C
  C4345    1.0000 0.54430  0.97611  0.90550  Biso   1.000  C
  C4346    1.0000 0.59721  0.96241  0.92602  Biso   1.000  C
  C4347    1.0000 0.64131  0.07119  0.91523  Biso   1.000  C
  C4348    1.0000 0.13288  0.32938  0.95937  Biso   1.000  C
  H4633    1.0000 0.11431  0.33251  0.93280  Biso   1.000  H
  H4634    1.0000 0.15639  0.33710  0.92080  Biso   1.000  H
  C4349    1.0000 0.18321  0.42202  0.92913  Biso   1.000  C
  H4635    1.0000 0.17170  0.24802  0.92910  Biso   1.000  H
  H4636    1.0000 0.12291  0.23861  0.93990  Biso   1.000  H
  C4350    1.0000 0.19510  0.23291  0.94680  Biso   1.000  C
  C4351    1.0000 0.24748  0.41060  0.97057  Biso   1.000  C
  H4637    1.0000 0.39600  0.51938  0.87920  Biso   1.000  H
  H4638    1.0000 0.46119  0.58048  0.87770  Biso   1.000  H
  H4639    1.0000 0.45772  0.51681  0.88100  Biso   1.000  H
  C4352    1.0000 0.52541  0.53688  0.95922  Biso   1.000  C
  C4353    1.0000 0.57631  0.52921  0.93984  Biso   1.000  C
  H4640    1.0000 0.51848  0.47699  0.92550  Biso   1.000  H
  C4354    1.0000 0.39700  0.43638  0.97157  Biso   1.000  C
  C4355    1.0000 0.39768  0.53281  0.96286  Biso   1.000  C
  H4641    1.0000 0.35700  0.17171  0.92650  Biso   1.000  H
  H4642    1.0000 0.41992  0.17971  0.93200  Biso   1.000  H
  H4643    1.0000 0.38439  0.20759  0.93970  Biso   1.000  H
  C4356    1.0000 0.13702  0.80581  0.93858  Biso   1.000  C
  C4357    1.0000 0.10567  0.70438  0.94795  Biso   1.000  C
  H4644    1.0000 0.10880  0.63892  0.89980  Biso   1.000  H
  H4645    1.0000 0.11269  0.60439  0.91230  Biso   1.000  H
  C4358    1.0000 0.11569  0.56200  0.89538  Biso   1.000  C
  C4359    1.0000 0.01242  0.53651  0.94061  Biso   1.000  C
  C4360    1.0000 0.07521  0.63939  0.94819  Biso   1.000  C
  H4646    1.0000 0.91810  0.61141  0.93140  Biso   1.000  H
  H4647    1.0000 0.91489  0.64332  0.91830  Biso   1.000  H
  C4361    1.0000 0.83101  0.56598  0.92302  Biso   1.000  C
  C4362    1.0000 0.63400  0.89831  0.93657  Biso   1.000  C
  H4648    1.0000 0.55459  0.99548  0.89690  Biso   1.000  H
  H4649    1.0000 0.51952  0.99090  0.91000  Biso   1.000  H
  C4363    1.0000 0.50442  0.90640  0.90370  Biso   1.000  C
  C4364    1.0000 0.56350  0.95941  0.93720  Biso   1.000  C
  H4650    1.0000 0.61389  0.08232  0.91990  Biso   1.000  H
  H4651    1.0000 0.64970  0.09098  0.90670  Biso   1.000  H
  C4365    1.0000 0.70148  0.09818  0.92252  Biso   1.000  C
  H4652    1.0000 0.09488  0.30248  0.95540  Biso   1.000  H
  C4366    1.0000 0.13390  0.34908  0.97193  Biso   1.000  C
  H4653    1.0000 0.19020  0.43769  0.93810  Biso   1.000  H
  H4654    1.0000 0.22367  0.44078  0.92480  Biso   1.000  H
  C4367    1.0000 0.14321  0.44452  0.92210  Biso   1.000  C
  H4655    1.0000 0.19509  0.24998  0.95540  Biso   1.000  H
  H4656    1.0000 0.16460  0.18860  0.94730  Biso   1.000  H
  C4368    1.0000 0.25649  0.23599  0.94582  Biso   1.000  C
  C4369    1.0000 0.19251  0.39030  0.97728  Biso   1.000  C
  H4657    1.0000 0.28551  0.43821  0.97450  Biso   1.000  H
  C4370    1.0000 0.58021  0.55321  0.95259  Biso   1.000  C
  H4658    1.0000 0.52699  0.55171  0.96770  Biso   1.000  H
  H4659    1.0000 0.61301  0.53899  0.93540  Biso   1.000  H
  H4660    1.0000 0.35559  0.42211  0.97510  Biso   1.000  H
  H4661    1.0000 0.42699  0.46370  0.97810  Biso   1.000  H
  C4371    1.0000 0.40469  0.38361  0.97008  Biso   1.000  C
  H4662    1.0000 0.42980  0.55798  0.96920  Biso   1.000  H
  H4663    1.0000 0.35748  0.51779  0.96710  Biso   1.000  H
  C4372    1.0000 0.40211  0.57342  0.95180  Biso   1.000  C
  C4373    1.0000 0.16059  0.81138  0.95257  Biso   1.000  C
  C4374    1.0000 0.19499  0.84282  0.92967  Biso   1.000  C
  C4375    1.0000 0.09160  0.83271  0.93804  Biso   1.000  C
  C4376    1.0000 0.14339  0.75388  0.95769  Biso   1.000  C
  H4664    1.0000 0.09561  0.51910  0.89850  Biso   1.000  H
  H4665    1.0000 0.16040  0.58011  0.89660  Biso   1.000  H
  C4377    1.0000 0.10349  0.56168  0.88235  Biso   1.000  C
  C4378    1.0000 0.03082  0.53262  0.95327  Biso   1.000  C
  C4379    1.0000 0.97201  0.48008  0.93391  Biso   1.000  C
  C4380    1.0000 0.07149  0.59541  0.95926  Biso   1.000  C
  H4666    1.0000 0.81419  0.55779  0.91420  Biso   1.000  H
  H4667    1.0000 0.81752  0.52612  0.92730  Biso   1.000  H
  C4381    1.0000 0.80438  0.60519  0.93114  Biso   1.000  C
  C4382    1.0000 0.66881  0.86298  0.93858  Biso   1.000  C
  C4383    1.0000 0.59868  0.89428  0.94795  Biso   1.000  C
  H4668    1.0000 0.53008  0.89120  0.89980  Biso   1.000  H
  H4669    1.0000 0.49171  0.88731  0.91230  Biso   1.000  H
  C4384    1.0000 0.44629  0.88432  0.89538  Biso   1.000  C
  C4385    1.0000 0.52410  0.98758  0.94061  Biso   1.000  C
  C4386    1.0000 0.56418  0.92479  0.94819  Biso   1.000  C
  H4670    1.0000 0.69330  0.08190  0.93140  Biso   1.000  H
  H4671    1.0000 0.72840  0.08508  0.91830  Biso   1.000  H
  C4387    1.0000 0.73499  0.16902  0.92302  Biso   1.000  C
  C4388    1.0000 0.07650  0.33032  0.97961  Biso   1.000  C
  H4672    1.0000 0.13289  0.42501  0.91350  Biso   1.000  H
  H4673    1.0000 0.16912  0.48920  0.92070  Biso   1.000  H
  C4389    1.0000 0.08828  0.43418  0.92783  Biso   1.000  C
  C4390    1.0000 0.26040  0.19089  0.95618  Biso   1.000  C
  H4674    1.0000 0.26181  0.22402  0.93710  Biso   1.000  H
  H4675    1.0000 0.28979  0.27862  0.94740  Biso   1.000  H
  H4676    1.0000 0.19429  0.40471  0.98580  Biso   1.000  H
  C4391    1.0000 0.64251  0.59012  0.95853  Biso   1.000  C
  H4677    1.0000 0.37200  0.35291  0.96450  Biso   1.000  H
  H4678    1.0000 0.44480  0.39600  0.96600  Biso   1.000  H
  C4392    1.0000 0.40131  0.35441  0.98381  Biso   1.000  C
  H4679    1.0000 0.43879  0.58301  0.94660  Biso   1.000  H
  H4680    1.0000 0.36570  0.55101  0.94620  Biso   1.000  H
  C4393    1.0000 0.40658  0.63569  0.95636  Biso   1.000  C
  C4394    1.0000 0.19652  0.86710  0.95937  Biso   1.000  C
  H4681    1.0000 0.21823  0.88572  0.93280  Biso   1.000  H
  H4682    1.0000 0.18072  0.84361  0.92080  Biso   1.000  H
  C4395    1.0000 0.23879  0.81681  0.92913  Biso   1.000  C
  H4683    1.0000 0.07631  0.82832  0.92910  Biso   1.000  H
  H4684    1.0000 0.11570  0.87711  0.93990  Biso   1.000  H
  C4396    1.0000 0.03779  0.80492  0.94680  Biso   1.000  C
  C4397    1.0000 0.16309  0.75252  0.97057  Biso   1.000  C
  H4685    1.0000 0.12340  0.60402  0.87920  Biso   1.000  H
  H4686    1.0000 0.11932  0.53880  0.87770  Biso   1.000  H
  H4687    1.0000 0.05912  0.54231  0.88100  Biso   1.000  H
  C4398    1.0000 0.01149  0.47461  0.95922  Biso   1.000  C
  C4399    1.0000 0.95290  0.42370  0.93984  Biso   1.000  C
  H4688    1.0000 0.95849  0.48148  0.92550  Biso   1.000  H
  C4400    1.0000 0.03938  0.60299  0.97157  Biso   1.000  C
  C4401    1.0000 0.13510  0.60229  0.96286  Biso   1.000  C
  H4689    1.0000 0.81469  0.64299  0.92650  Biso   1.000  H
  H4690    1.0000 0.75979  0.58011  0.93200  Biso   1.000  H
  H4691    1.0000 0.82321  0.61562  0.93970  Biso   1.000  H
  C4402    1.0000 0.65082  0.83940  0.95257  Biso   1.000  C
  C4403    1.0000 0.64781  0.80502  0.92967  Biso   1.000  C
  C4404    1.0000 0.74112  0.90841  0.93804  Biso   1.000  C
  C4405    1.0000 0.61052  0.85662  0.95769  Biso   1.000  C
  H4692    1.0000 0.42351  0.90439  0.89850  Biso   1.000  H
  H4693    1.0000 0.41971  0.83959  0.89660  Biso   1.000  H
  C4406    1.0000 0.45821  0.89648  0.88235  Biso   1.000  C
  C4407    1.0000 0.50178  0.96919  0.95327  Biso   1.000  C
  C4408    1.0000 0.50809  0.02800  0.93391  Biso   1.000  C
  C4409    1.0000 0.52389  0.92849  0.95926  Biso   1.000  C
  H4694    1.0000 0.74360  0.18581  0.91420  Biso   1.000  H
  H4695    1.0000 0.70859  0.18249  0.92730  Biso   1.000  H
  C4410    1.0000 0.80079  0.19559  0.93114  Biso   1.000  C
  N175     1.0000 0.02371  0.28980  0.97584  Biso   1.000  N
  H4696    1.0000 0.09748  0.45599  0.93600  Biso   1.000  H
  H4697    1.0000 0.06771  0.44911  0.92210  Biso   1.000  H
  H4698    1.0000 0.06159  0.39011  0.92930  Biso   1.000  H
  H4699    1.0000 0.22911  0.14850  0.95430  Biso   1.000  H
  H4700    1.0000 0.30110  0.19482  0.95580  Biso   1.000  H
  H4701    1.0000 0.25349  0.20179  0.96480  Biso   1.000  H
  N176     1.0000 0.64834  0.60542  0.97073  Biso   1.000  N
  H4702    1.0000 0.39980  0.31460  0.98270  Biso   1.000  H
  H4703    1.0000 0.36290  0.34622  0.98810  Biso   1.000  H
  C4411    1.0000 0.45620  0.39619  0.99247  Biso   1.000  C
  H4704    1.0000 0.36731  0.62531  0.96060  Biso   1.000  H
  H4705    1.0000 0.41009  0.65988  0.94860  Biso   1.000  H
  C4412    1.0000 0.46009  0.67902  0.96582  Biso   1.000  C
  H4706    1.0000 0.20761  0.90509  0.95540  Biso   1.000  H
  C4413    1.0000 0.21519  0.86612  0.97193  Biso   1.000  C
  H4707    1.0000 0.24748  0.80979  0.93810  Biso   1.000  H
  H4708    1.0000 0.21707  0.77629  0.92480  Biso   1.000  H
  C4414    1.0000 0.30130  0.85681  0.92210  Biso   1.000  C
  H4709    1.0000 0.05489  0.80492  0.95540  Biso   1.000  H
  H4710    1.0000 0.02397  0.83538  0.94730  Biso   1.000  H
  C4415    1.0000 0.97948  0.74349  0.94582  Biso   1.000  C
  C4416    1.0000 0.19779  0.80749  0.97728  Biso   1.000  C
  H4711    1.0000 0.15270  0.71448  0.97450  Biso   1.000  H
  H4712    1.0000 0.02472  0.47302  0.96770  Biso   1.000  H
  C4417    1.0000 0.97300  0.41982  0.95259  Biso   1.000  C
  H4713    1.0000 0.92601  0.38702  0.93540  Biso   1.000  H
  H4714    1.0000 0.06648  0.64440  0.97510  Biso   1.000  H
  H4715    1.0000 0.03670  0.57300  0.97810  Biso   1.000  H
  C4418    1.0000 0.97890  0.59532  0.97008  Biso   1.000  C
  H4716    1.0000 0.12821  0.57019  0.96920  Biso   1.000  H
  H4717    1.0000 0.16030  0.64248  0.96710  Biso   1.000  H
  C4419    1.0000 0.17131  0.59789  0.95180  Biso   1.000  C
  C4420    1.0000 0.67060  0.80352  0.95937  Biso   1.000  C
  H4718    1.0000 0.66748  0.78181  0.93280  Biso   1.000  H
  H4719    1.0000 0.66288  0.81929  0.92080  Biso   1.000  H
  C4421    1.0000 0.57802  0.76122  0.92913  Biso   1.000  C
  H4720    1.0000 0.75201  0.92371  0.92910  Biso   1.000  H
  H4721    1.0000 0.76141  0.88432  0.93990  Biso   1.000  H
  C4422    1.0000 0.76709  0.96222  0.94680  Biso   1.000  C
  C4423    1.0000 0.58939  0.83688  0.97057  Biso   1.000  C
  H4722    1.0000 0.48060  0.87660  0.87920  Biso   1.000  H
  H4723    1.0000 0.41949  0.88072  0.87770  Biso   1.000  H
  H4724    1.0000 0.48321  0.94088  0.88100  Biso   1.000  H
  C4424    1.0000 0.46310  0.98851  0.95922  Biso   1.000  C
  C4425    1.0000 0.47079  0.04709  0.93984  Biso   1.000  C
  H4725    1.0000 0.52303  0.04152  0.92550  Biso   1.000  H
  C4426    1.0000 0.56360  0.96058  0.97157  Biso   1.000  C
  C4427    1.0000 0.46722  0.86490  0.96286  Biso   1.000  C
  H4726    1.0000 0.82831  0.18530  0.92650  Biso   1.000  H
  H4727    1.0000 0.82029  0.24018  0.93200  Biso   1.000  H
  H4728    1.0000 0.79240  0.17678  0.93970  Biso   1.000  H
  C4428    1.0000 0.97110  0.27899  0.98448  Biso   1.000  C
  C4429    1.0000 0.71139  0.63551  0.97616  Biso   1.000  C
  H4729    1.0000 0.45670  0.43479  0.99400  Biso   1.000  H
  H4730    1.0000 0.49441  0.40461  0.98820  Biso   1.000  H
  H4731    1.0000 0.45239  0.37561  0.00070  Biso   1.000  H
  H4732    1.0000 0.49970  0.69301  0.96160  Biso   1.000  H
  H4733    1.0000 0.45590  0.71448  0.96810  Biso   1.000  H
  H4734    1.0000 0.45791  0.65642  0.97360  Biso   1.000  H
  C4430    1.0000 0.25380  0.92348  0.97961  Biso   1.000  C
  H4735    1.0000 0.29210  0.86710  0.91350  Biso   1.000  H
  H4736    1.0000 0.32010  0.83089  0.92070  Biso   1.000  H
  C4431    1.0000 0.34588  0.91169  0.92783  Biso   1.000  C
  C4432    1.0000 0.93050  0.73961  0.95618  Biso   1.000  C
  H4737    1.0000 0.96221  0.73820  0.93710  Biso   1.000  H
  H4738    1.0000 0.98880  0.71018  0.94740  Biso   1.000  H
  H4739    1.0000 0.21040  0.80572  0.98580  Biso   1.000  H
  C4433    1.0000 0.94759  0.35750  0.95853  Biso   1.000  C
  H4740    1.0000 0.98091  0.62802  0.96450  Biso   1.000  H
  H4741    1.0000 0.95119  0.55522  0.96600  Biso   1.000  H
  C4434    1.0000 0.95311  0.59869  0.98381  Biso   1.000  C
  H4742    1.0000 0.14422  0.56121  0.94660  Biso   1.000  H
  H4743    1.0000 0.18530  0.63429  0.94620  Biso   1.000  H
  C4435    1.0000 0.22911  0.59340  0.95636  Biso   1.000  C
  H4744    1.0000 0.69749  0.79238  0.95540  Biso   1.000  H
  C4436    1.0000 0.65091  0.78480  0.97193  Biso   1.000  C
  H4745    1.0000 0.56232  0.75252  0.93810  Biso   1.000  H
  H4746    1.0000 0.55919  0.78289  0.92480  Biso   1.000  H
  C4437    1.0000 0.55552  0.69872  0.92210  Biso   1.000  C
  H4747    1.0000 0.74998  0.94510  0.95540  Biso   1.000  H
  H4748    1.0000 0.81143  0.97602  0.94730  Biso   1.000  H
  C4438    1.0000 0.76403  0.02052  0.94582  Biso   1.000  C
  C4439    1.0000 0.60969  0.80221  0.97728  Biso   1.000  C
  H4749    1.0000 0.56182  0.84731  0.97450  Biso   1.000  H
  H4750    1.0000 0.44832  0.97532  0.96770  Biso   1.000  H
  C4440    1.0000 0.44682  0.02702  0.95259  Biso   1.000  C
  H4751    1.0000 0.46098  0.07399  0.93540  Biso   1.000  H
  H4752    1.0000 0.57789  0.93349  0.97510  Biso   1.000  H
  H4753    1.0000 0.53631  0.96330  0.97810  Biso   1.000  H
  C4441    1.0000 0.61637  0.02108  0.97008  Biso   1.000  C
  H4754    1.0000 0.44201  0.87178  0.96920  Biso   1.000  H
  H4755    1.0000 0.48220  0.83968  0.96710  Biso   1.000  H
  C4442    1.0000 0.42658  0.82869  0.95180  Biso   1.000  C
  H4756    1.0000 0.98692  0.30982  0.99160  Biso   1.000  H
  C4443    1.0000 0.94139  0.21349  0.99034  Biso   1.000  C
  C4444    1.0000 0.92407  0.28858  0.97616  Biso   1.000  C
  C4445    1.0000 0.72102  0.69212  0.98448  Biso   1.000  C
  H4757    1.0000 0.74200  0.65029  0.96900  Biso   1.000  H
  C4446    1.0000 0.71790  0.58540  0.98453  Biso   1.000  C
  N177     1.0000 0.26611  0.97630  0.97584  Biso   1.000  N
  H4758    1.0000 0.35851  0.90252  0.93600  Biso   1.000  H
  H4759    1.0000 0.38140  0.93232  0.92210  Biso   1.000  H
  H4760    1.0000 0.32852  0.93840  0.92930  Biso   1.000  H
  H4761    1.0000 0.91941  0.77091  0.95430  Biso   1.000  H
  H4762    1.0000 0.89370  0.69890  0.95580  Biso   1.000  H
  H4763    1.0000 0.94828  0.74648  0.96480  Biso   1.000  H
  N178     1.0000 0.95709  0.35170  0.97073  Biso   1.000  N
  H4764    1.0000 0.91480  0.60018  0.98270  Biso   1.000  H
  H4765    1.0000 0.98330  0.63710  0.98810  Biso   1.000  H
  C4447    1.0000 0.94001  0.54380  0.99247  Biso   1.000  C
  H4766    1.0000 0.25800  0.63270  0.96060  Biso   1.000  H
  H4767    1.0000 0.24981  0.58989  0.94860  Biso   1.000  H
  C4448    1.0000 0.21891  0.53992  0.96582  Biso   1.000  C
  C4449    1.0000 0.66970  0.74620  0.97961  Biso   1.000  C
  H4768    1.0000 0.57501  0.70789  0.91350  Biso   1.000  H
  H4769    1.0000 0.51082  0.67991  0.92070  Biso   1.000  H
  C4450    1.0000 0.56578  0.65408  0.92783  Biso   1.000  C
  C4451    1.0000 0.80910  0.06950  0.95618  Biso   1.000  C
  H4770    1.0000 0.77598  0.03778  0.93710  Biso   1.000  H
  H4771    1.0000 0.72140  0.01121  0.94740  Biso   1.000  H
  H4772    1.0000 0.59530  0.78962  0.98580  Biso   1.000  H
  C4452    1.0000 0.40990  0.05238  0.95853  Biso   1.000  C
  H4773    1.0000 0.64712  0.01911  0.96450  Biso   1.000  H
  H4774    1.0000 0.60403  0.04882  0.96600  Biso   1.000  H
  C4453    1.0000 0.64562  0.04690  0.98381  Biso   1.000  C
  H4775    1.0000 0.41699  0.85578  0.94660  Biso   1.000  H
  H4776    1.0000 0.44900  0.81470  0.94620  Biso   1.000  H
  C4454    1.0000 0.36430  0.77091  0.95636  Biso   1.000  C
  C4455    1.0000 0.92122  0.16132  0.98275  Biso   1.000  C
  C4456    1.0000 0.93571  0.20488  0.00362  Biso   1.000  C
  H4777    1.0000 0.90829  0.25798  0.96900  Biso   1.000  H
  C4457    1.0000 0.86750  0.28208  0.98453  Biso   1.000  C
  N179     1.0000 0.71018  0.73390  0.97584  Biso   1.000  N
  H4778    1.0000 0.69021  0.67710  0.99160  Biso   1.000  H
  C4458    1.0000 0.78652  0.72791  0.99034  Biso   1.000  C
  C4459    1.0000 0.67110  0.54731  0.99326  Biso   1.000  C
  C4460    1.0000 0.76581  0.57562  0.98265  Biso   1.000  C
  C4461    1.0000 0.30788  0.02889  0.98448  Biso   1.000  C
  H4779    1.0000 0.97809  0.54329  0.99400  Biso   1.000  H
  H4780    1.0000 0.91020  0.50558  0.98820  Biso   1.000  H
  H4781    1.0000 0.92319  0.54759  0.00070  Biso   1.000  H
  H4782    1.0000 0.19330  0.50029  0.96160  Biso   1.000  H
  H4783    1.0000 0.25859  0.54408  0.96810  Biso   1.000  H
  H4784    1.0000 0.19849  0.54212  0.97360  Biso   1.000  H
  H4785    1.0000 0.54401  0.64150  0.93600  Biso   1.000  H
  H4786    1.0000 0.55092  0.61862  0.92210  Biso   1.000  H
  H4787    1.0000 0.60989  0.67149  0.92930  Biso   1.000  H
  H4788    1.0000 0.85148  0.08059  0.95430  Biso   1.000  H
  H4789    1.0000 0.80523  0.10632  0.95580  Biso   1.000  H
  H4790    1.0000 0.79823  0.05172  0.96480  Biso   1.000  H
  N180     1.0000 0.39458  0.04288  0.97073  Biso   1.000  N
  H4791    1.0000 0.68540  0.08522  0.98270  Biso   1.000  H
  H4792    1.0000 0.65380  0.01668  0.98810  Biso   1.000  H
  C4462    1.0000 0.60379  0.06000  0.99247  Biso   1.000  C
  H4793    1.0000 0.37468  0.74199  0.96060  Biso   1.000  H
  H4794    1.0000 0.34008  0.75018  0.94860  Biso   1.000  H
  C4463    1.0000 0.32102  0.78111  0.96582  Biso   1.000  C
  H4795    1.0000 0.92561  0.16581  0.97370  Biso   1.000  H
  C4464    1.0000 0.89469  0.10251  0.98806  Biso   1.000  C
  H4796    1.0000 0.94972  0.23931  0.00910  Biso   1.000  H
  C4465    1.0000 0.90930  0.14551  0.00897  Biso   1.000  C
  C4466    1.0000 0.87621  0.32891  0.99326  Biso   1.000  C
  C4467    1.0000 0.80981  0.23422  0.98265  Biso   1.000  C
  C4468    1.0000 0.83871  0.75991  0.98275  Biso   1.000  C
  C4469    1.0000 0.79511  0.73081  0.00362  Biso   1.000  C
  H4797    1.0000 0.63862  0.55559  0.99460  Biso   1.000  H
  C4470    1.0000 0.66902  0.49922  0.00000  Biso   1.000  C
  H4798    1.0000 0.79820  0.60070  0.97700  Biso   1.000  H
  C4471    1.0000 0.76591  0.52331  0.98991  Biso   1.000  C
  H4799    1.0000 0.32291  0.01308  0.99160  Biso   1.000  H
  C4472    1.0000 0.27209  0.05860  0.99034  Biso   1.000  C
  C4473    1.0000 0.36450  0.07591  0.97616  Biso   1.000  C
  H4800    1.0000 0.56521  0.02192  0.99400  Biso   1.000  H
  H4801    1.0000 0.59539  0.08981  0.98820  Biso   1.000  H
  H4802    1.0000 0.62438  0.07680  0.00070  Biso   1.000  H
  H4803    1.0000 0.30700  0.80670  0.96160  Biso   1.000  H
  H4804    1.0000 0.28548  0.74139  0.96810  Biso   1.000  H
  H4805    1.0000 0.34362  0.80151  0.97360  Biso   1.000  H
  H4806    1.0000 0.88171  0.06779  0.98270  Biso   1.000  H
  C4474    1.0000 0.88760  0.09530  0.00146  Biso   1.000  C
  H4807    1.0000 0.90681  0.14092  0.01800  Biso   1.000  H
  H4808    1.0000 0.91700  0.36138  0.99460  Biso   1.000  H
  C4475    1.0000 0.83022  0.33102  0.00000  Biso   1.000  C
  H4809    1.0000 0.80248  0.20179  0.97700  Biso   1.000  H
  C4476    1.0000 0.75742  0.23412  0.98991  Biso   1.000  C
  H4810    1.0000 0.83420  0.75982  0.97370  Biso   1.000  H
  C4477    1.0000 0.89752  0.79220  0.98806  Biso   1.000  C
  H4811    1.0000 0.76072  0.71041  0.00910  Biso   1.000  H
  C4478    1.0000 0.85451  0.76380  0.00897  Biso   1.000  C
  C4479    1.0000 0.71813  0.49112  0.99807  Biso   1.000  C
  H4812    1.0000 0.63601  0.47372  0.00550  Biso   1.000  H
  H4813    1.0000 0.79747  0.51358  0.98880  Biso   1.000  H
  C4480    1.0000 0.24009  0.07881  0.98275  Biso   1.000  C
  C4481    1.0000 0.26919  0.06431  0.00362  Biso   1.000  C
  H4814    1.0000 0.34969  0.09168  0.96900  Biso   1.000  H
  C4482    1.0000 0.41458  0.13248  0.98453  Biso   1.000  C
  H4815    1.0000 0.86770  0.05558  0.00520  Biso   1.000  H
  C4483    1.0000 0.77300  0.28189  0.99807  Biso   1.000  C
  H4816    1.0000 0.83771  0.36400  0.00550  Biso   1.000  H
  H4817    1.0000 0.71608  0.20249  0.98880  Biso   1.000  H
  H4818    1.0000 0.93220  0.81390  0.98270  Biso   1.000  H
  C4484    1.0000 0.90469  0.79229  0.00146  Biso   1.000  C
  H4819    1.0000 0.85909  0.76590  0.01800  Biso   1.000  H
  H4820    1.0000 0.71909  0.45982  0.00290  Biso   1.000  H
  H4821    1.0000 0.24021  0.07441  0.97370  Biso   1.000  H
  C4485    1.0000 0.20779  0.10529  0.98806  Biso   1.000  C
  H4822    1.0000 0.28962  0.05032  0.00910  Biso   1.000  H
  C4486    1.0000 0.23619  0.09070  0.00897  Biso   1.000  C
  C4487    1.0000 0.45271  0.12382  0.99326  Biso   1.000  C
  C4488    1.0000 0.42440  0.19021  0.98265  Biso   1.000  C
  H4823    1.0000 0.74070  0.28091  0.00290  Biso   1.000  H
  H4824    1.0000 0.94437  0.81208  0.00520  Biso   1.000  H
  H4825    1.0000 0.18610  0.11830  0.98270  Biso   1.000  H
  C4489    1.0000 0.20770  0.11241  0.00146  Biso   1.000  C
  H4826    1.0000 0.23413  0.09322  0.01800  Biso   1.000  H
  H4827    1.0000 0.44443  0.08302  0.99460  Biso   1.000  H
  C4490    1.0000 0.50079  0.16981  0.00000  Biso   1.000  C
  H4828    1.0000 0.39932  0.19751  0.97700  Biso   1.000  H
  C4491    1.0000 0.47670  0.24261  0.98991  Biso   1.000  C
  H4829    1.0000 0.18790  0.13229  0.00520  Biso   1.000  H
  C4492    1.0000 0.50887  0.22699  0.99807  Biso   1.000  C
  H4830    1.0000 0.52628  0.16228  0.00550  Biso   1.000  H
  H4831    1.0000 0.48639  0.28388  0.98880  Biso   1.000  H
  H4832    1.0000 0.54019  0.25932  0.00290  Biso   1.000  H
  C4493    1.0000 0.66319  0.74218  0.19669  Biso   1.000  C
  C4494    1.0000 0.71148  0.73689  0.19083  Biso   1.000  C
  C4495    1.0000 0.61371  0.73521  0.18959  Biso   1.000  C
  H4833    1.0000 0.66510  0.75079  0.20560  Biso   1.000  H
  C4496    1.0000 0.70777  0.72356  0.17743  Biso   1.000  C
  H4834    1.0000 0.74548  0.74209  0.19580  Biso   1.000  H
  C4497    1.0000 0.61020  0.72122  0.17646  Biso   1.000  C
  H4835    1.0000 0.58230  0.73979  0.19360  Biso   1.000  H
  C4498    1.0000 0.65662  0.71495  0.17015  Biso   1.000  C
  H4836    1.0000 0.73992  0.72061  0.17340  Biso   1.000  H
  H4837    1.0000 0.57571  0.71561  0.17170  Biso   1.000  H
  C4499    1.0000 0.64961  0.69516  0.15594  Biso   1.000  C
  N181     1.0000 0.66004  0.64140  0.15491  Biso   1.000  N
  C4500    1.0000 0.69443  0.74616  0.14665  Biso   1.000  C
  H4838    1.0000 0.60669  0.68169  0.15320  Biso   1.000  H
  C4501    1.0000 0.61249  0.58835  0.15311  Biso   1.000  C
  N182     1.0000 0.68290  0.72033  0.13329  Biso   1.000  N
  H4839    1.0000 0.73740  0.75818  0.14910  Biso   1.000  H
  C4502    1.0000 0.68847  0.80385  0.14663  Biso   1.000  C
  C4503    1.0000 0.61633  0.53112  0.15233  Biso   1.000  C
  C4504    1.0000 0.72930  0.72871  0.12670  Biso   1.000  C
  C4505    1.0000 0.73811  0.86130  0.14844  Biso   1.000  C
  C4506    1.0000 0.63108  0.79968  0.14438  Biso   1.000  C
  C4507    1.0000 0.67309  0.53159  0.15220  Biso   1.000  C
  C4508    1.0000 0.56131  0.47334  0.15223  Biso   1.000  C
  C4509    1.0000 0.72518  0.70578  0.11296  Biso   1.000  C
  H4840    1.0000 0.77700  0.86551  0.15020  Biso   1.000  H
  C4510    1.0000 0.73248  0.91529  0.14777  Biso   1.000  C
  H4841    1.0000 0.59551  0.76071  0.14340  Biso   1.000  H
  C4511    1.0000 0.62628  0.85288  0.14360  Biso   1.000  C
  C4512    1.0000 0.67421  0.47695  0.15206  Biso   1.000  C
  H4842    1.0000 0.71051  0.56949  0.15220  Biso   1.000  H
  C4513    1.0000 0.56256  0.41823  0.15213  Biso   1.000  C
  H4843    1.0000 0.52290  0.47189  0.15220  Biso   1.000  H
  C4514    1.0000 0.66801  0.66812  0.10715  Biso   1.000  C
  C4515    1.0000 0.77752  0.72141  0.10611  Biso   1.000  C
  H4844    1.0000 0.76729  0.95459  0.14900  Biso   1.000  H
  C4516    1.0000 0.67509  0.90902  0.14528  Biso   1.000  C
  H4845    1.0000 0.58759  0.84899  0.14180  Biso   1.000  H
  C4517    1.0000 0.61933  0.41856  0.15205  Biso   1.000  C
  C4518    1.0000 0.73163  0.46983  0.15222  Biso   1.000  C
  H4846    1.0000 0.52519  0.38028  0.15210  Biso   1.000  H
  H4847    1.0000 0.63132  0.65722  0.11170  Biso   1.000  H
  C4519    1.0000 0.66522  0.64631  0.09443  Biso   1.000  C
  H4848    1.0000 0.81590  0.74728  0.11010  Biso   1.000  H
  C4520    1.0000 0.77729  0.70110  0.09345  Biso   1.000  C
  H4849    1.0000 0.67060  0.94411  0.14480  Biso   1.000  H
  C4521    1.0000 0.63658  0.36943  0.15183  Biso   1.000  C
  C4522    1.0000 0.70283  0.39909  0.15198  Biso   1.000  C
  C4523    1.0000 0.77125  0.50198  0.13982  Biso   1.000  C
  C4524    1.0000 0.76862  0.49908  0.16516  Biso   1.000  C
  C4525    1.0000 0.71940  0.66222  0.08760  Biso   1.000  C
  C4526    1.0000 0.60640  0.60519  0.08686  Biso   1.000  C
  H4850    1.0000 0.81439  0.71289  0.08900  Biso   1.000  H
  C4527    1.0000 0.60090  0.30374  0.15198  Biso   1.000  C
  C4528    1.0000 0.73285  0.36344  0.15183  Biso   1.000  C
  H4851    1.0000 0.78341  0.54591  0.14000  Biso   1.000  H
  H4852    1.0000 0.80919  0.49950  0.14020  Biso   1.000  H
  C4529    1.0000 0.73927  0.47498  0.12719  Biso   1.000  C
  H4853    1.0000 0.80352  0.49140  0.16560  Biso   1.000  H
  H4854    1.0000 0.78581  0.54399  0.16480  Biso   1.000  H
  C4530    1.0000 0.73029  0.47428  0.17760  Biso   1.000  C
  C4531    1.0000 0.70092  0.63101  0.07440  Biso   1.000  C
  C4532    1.0000 0.56823  0.54432  0.09450  Biso   1.000  C
  C4533    1.0000 0.63478  0.59719  0.07398  Biso   1.000  C
  C4534    1.0000 0.57009  0.64131  0.08477  Biso   1.000  C
  C4535    1.0000 0.53018  0.26182  0.15222  Biso   1.000  C
  C4536    1.0000 0.63058  0.26715  0.15183  Biso   1.000  C
  C4537    1.0000 0.69626  0.29714  0.15198  Biso   1.000  C
  C4538    1.0000 0.79920  0.38066  0.15205  Biso   1.000  C
  H4855    1.0000 0.69872  0.47231  0.12750  Biso   1.000  H
  H4856    1.0000 0.73181  0.43250  0.12660  Biso   1.000  H
  C4539    1.0000 0.77298  0.50998  0.11414  Biso   1.000  C
  H4857    1.0000 0.71369  0.42941  0.17800  Biso   1.000  H
  H4858    1.0000 0.69511  0.48139  0.17710  Biso   1.000  H
  C4540    1.0000 0.76602  0.50352  0.19027  Biso   1.000  C
  C4541    1.0000 0.73572  0.63401  0.06343  Biso   1.000  C
  H4859    1.0000 0.55911  0.55461  0.10310  Biso   1.000  H
  H4860    1.0000 0.52860  0.51952  0.09000  Biso   1.000  H
  C4542    1.0000 0.59799  0.50441  0.09630  Biso   1.000  C
  C4543    1.0000 0.60412  0.56350  0.06280  Biso   1.000  C
  H4861    1.0000 0.53158  0.61389  0.08010  Biso   1.000  H
  H4862    1.0000 0.55867  0.64968  0.09330  Biso   1.000  H
  C4544    1.0000 0.60331  0.70152  0.07748  Biso   1.000  C
  C4545    1.0000 0.50094  0.26954  0.16516  Biso   1.000  C
  C4546    1.0000 0.52306  0.19725  0.15206  Biso   1.000  C
  C4547    1.0000 0.49804  0.26926  0.13982  Biso   1.000  C
  C4548    1.0000 0.58146  0.20076  0.15205  Biso   1.000  C
  C4549    1.0000 0.73820  0.26837  0.15222  Biso   1.000  C
  C4550    1.0000 0.80276  0.32578  0.15206  Biso   1.000  C
  C4551    1.0000 0.85568  0.43746  0.15213  Biso   1.000  C
  H4863    1.0000 0.81481  0.51569  0.11390  Biso   1.000  H
  H4864    1.0000 0.75001  0.48462  0.10670  Biso   1.000  H
  C4552    1.0000 0.77710  0.57398  0.11321  Biso   1.000  C
  H4865    1.0000 0.77698  0.54708  0.19080  Biso   1.000  H
  H4866    1.0000 0.80420  0.50151  0.19050  Biso   1.000  H
  C4553    1.0000 0.72011  0.46389  0.20275  Biso   1.000  C
  C4554    1.0000 0.80580  0.66882  0.06142  Biso   1.000  C
  C4555    1.0000 0.70441  0.59869  0.05205  Biso   1.000  C
  H4867    1.0000 0.63891  0.53010  0.10020  Biso   1.000  H
  H4868    1.0000 0.60439  0.49168  0.08770  Biso   1.000  H
  C4556    1.0000 0.56201  0.44630  0.10462  Biso   1.000  C
  C4557    1.0000 0.53649  0.52411  0.05939  Biso   1.000  C
  C4558    1.0000 0.63939  0.56420  0.05181  Biso   1.000  C
  H4869    1.0000 0.61139  0.69329  0.06860  Biso   1.000  H
  H4870    1.0000 0.64328  0.72838  0.08170  Biso   1.000  H
  C4559    1.0000 0.56601  0.73502  0.07698  Biso   1.000  C
  C4560    1.0000 0.52570  0.25602  0.17760  Biso   1.000  C
  H4871    1.0000 0.50861  0.31212  0.16560  Biso   1.000  H
  H4872    1.0000 0.45599  0.24179  0.16480  Biso   1.000  H
  C4561    1.0000 0.46839  0.14148  0.15220  Biso   1.000  C
  H4873    1.0000 0.45408  0.23749  0.14000  Biso   1.000  H
  H4874    1.0000 0.50051  0.30968  0.14020  Biso   1.000  H
  C4562    1.0000 0.52502  0.26430  0.12719  Biso   1.000  C
  C4563    1.0000 0.58177  0.14434  0.15213  Biso   1.000  C
  C4564    1.0000 0.73074  0.22874  0.13982  Biso   1.000  C
  C4565    1.0000 0.73043  0.23136  0.16516  Biso   1.000  C
  C4566    1.0000 0.85851  0.32690  0.15220  Biso   1.000  C
  C4567    1.0000 0.91203  0.43872  0.15223  Biso   1.000  C
  H4875    1.0000 0.85510  0.47479  0.15210  Biso   1.000  H
  H4876    1.0000 0.73618  0.56888  0.11440  Biso   1.000  H
  H4877    1.0000 0.79308  0.59199  0.10480  Biso   1.000  H
  H4878    1.0000 0.80450  0.60098  0.11990  Biso   1.000  H
  H4879    1.0000 0.68291  0.46712  0.20250  Biso   1.000  H
  H4880    1.0000 0.74181  0.48078  0.21080  Biso   1.000  H
  H4881    1.0000 0.70890  0.42071  0.20210  Biso   1.000  H
  C4568    1.0000 0.81138  0.65081  0.04743  Biso   1.000  C
  C4569    1.0000 0.84279  0.64781  0.07033  Biso   1.000  C
  C4570    1.0000 0.83271  0.74110  0.06196  Biso   1.000  C
  C4571    1.0000 0.75392  0.61052  0.04231  Biso   1.000  C
  H4882    1.0000 0.51909  0.42351  0.10150  Biso   1.000  H
  H4883    1.0000 0.58010  0.41968  0.10340  Biso   1.000  H
  C4572    1.0000 0.56171  0.45818  0.11765  Biso   1.000  C
  C4573    1.0000 0.53258  0.50179  0.04673  Biso   1.000  C
  C4574    1.0000 0.48011  0.50811  0.06609  Biso   1.000  C
  C4575    1.0000 0.59543  0.52392  0.04074  Biso   1.000  C
  H4884    1.0000 0.55777  0.74358  0.08580  Biso   1.000  H
  H4885    1.0000 0.52609  0.70859  0.07270  Biso   1.000  H
  C4576    1.0000 0.60518  0.80080  0.06886  Biso   1.000  C
  C4577    1.0000 0.49650  0.26252  0.19027  Biso   1.000  C
  H4886    1.0000 0.57058  0.28428  0.17800  Biso   1.000  H
  H4887    1.0000 0.51861  0.21372  0.17710  Biso   1.000  H
  C4578    1.0000 0.46886  0.08520  0.15233  Biso   1.000  C
  H4888    1.0000 0.43052  0.14102  0.15220  Biso   1.000  H
  H4889    1.0000 0.52771  0.22640  0.12750  Biso   1.000  H
  H4890    1.0000 0.56752  0.29930  0.12660  Biso   1.000  H
  C4579    1.0000 0.49000  0.26299  0.11414  Biso   1.000  C
  C4580    1.0000 0.52668  0.08796  0.15223  Biso   1.000  C
  H4891    1.0000 0.61969  0.14490  0.15210  Biso   1.000  H
  H4892    1.0000 0.76253  0.21662  0.14000  Biso   1.000  H
  H4893    1.0000 0.69029  0.19080  0.14020  Biso   1.000  H
  C4581    1.0000 0.73570  0.26070  0.12719  Biso   1.000  C
  H4894    1.0000 0.68792  0.19650  0.16560  Biso   1.000  H
  H4895    1.0000 0.75819  0.21419  0.16480  Biso   1.000  H
  C4582    1.0000 0.74400  0.26968  0.17760  Biso   1.000  C
  C4583    1.0000 0.91480  0.38365  0.15233  Biso   1.000  C
  H4896    1.0000 0.85902  0.28952  0.15220  Biso   1.000  H
  H4897    1.0000 0.94900  0.47709  0.15220  Biso   1.000  H
  C4584    1.0000 0.86711  0.67060  0.04063  Biso   1.000  C
  H4898    1.0000 0.88570  0.66751  0.06720  Biso   1.000  H
  H4899    1.0000 0.84359  0.66288  0.07920  Biso   1.000  H
  C4585    1.0000 0.81680  0.57801  0.07087  Biso   1.000  C
  H4900    1.0000 0.82831  0.75201  0.07090  Biso   1.000  H
  H4901    1.0000 0.87710  0.76141  0.06010  Biso   1.000  H
  C4586    1.0000 0.80491  0.76712  0.05320  Biso   1.000  C
  C4587    1.0000 0.75253  0.58942  0.02943  Biso   1.000  C
  H4902    1.0000 0.60399  0.48059  0.12080  Biso   1.000  H
  H4903    1.0000 0.53880  0.41949  0.12230  Biso   1.000  H
  H4904    1.0000 0.54230  0.48322  0.11900  Biso   1.000  H
  C4588    1.0000 0.47458  0.46310  0.04078  Biso   1.000  C
  C4589    1.0000 0.42370  0.47082  0.06016  Biso   1.000  C
  H4905    1.0000 0.48151  0.52298  0.07450  Biso   1.000  H
  C4590    1.0000 0.60299  0.56359  0.02843  Biso   1.000  C
  C4591    1.0000 0.60233  0.46721  0.03714  Biso   1.000  C
  H4906    1.0000 0.64301  0.82832  0.07350  Biso   1.000  H
  H4907    1.0000 0.58009  0.82031  0.06800  Biso   1.000  H
  H4908    1.0000 0.61560  0.79238  0.06030  Biso   1.000  H
  C4592    1.0000 0.53608  0.25621  0.20275  Biso   1.000  C
  H4909    1.0000 0.45292  0.22991  0.19080  Biso   1.000  H
  H4910    1.0000 0.49852  0.30271  0.19050  Biso   1.000  H
  C4593    1.0000 0.41167  0.02414  0.15311  Biso   1.000  C
  H4911    1.0000 0.48432  0.29911  0.11390  Biso   1.000  H
  H4912    1.0000 0.51541  0.26542  0.10670  Biso   1.000  H
  C4594    1.0000 0.42598  0.20310  0.11321  Biso   1.000  C
  H4913    1.0000 0.52809  0.05100  0.15220  Biso   1.000  H
  H4914    1.0000 0.77359  0.30131  0.12750  Biso   1.000  H
  H4915    1.0000 0.70070  0.26818  0.12660  Biso   1.000  H
  C4595    1.0000 0.73701  0.22701  0.11414  Biso   1.000  C
  H4916    1.0000 0.71571  0.28629  0.17800  Biso   1.000  H
  H4917    1.0000 0.78629  0.30491  0.17710  Biso   1.000  H
  C4596    1.0000 0.73749  0.23398  0.19027  Biso   1.000  C
  C4597    1.0000 0.97590  0.38754  0.15311  Biso   1.000  C
  H4918    1.0000 0.90511  0.69750  0.04460  Biso   1.000  H
  C4598    1.0000 0.86609  0.65090  0.02807  Biso   1.000  C
  H4919    1.0000 0.80979  0.56228  0.06190  Biso   1.000  H
  H4920    1.0000 0.77632  0.55920  0.07520  Biso   1.000  H
  C4599    1.0000 0.85680  0.55550  0.07790  Biso   1.000  C
  H4921    1.0000 0.80490  0.74999  0.04460  Biso   1.000  H
  H4922    1.0000 0.83539  0.81138  0.05270  Biso   1.000  H
  C4600    1.0000 0.74350  0.76398  0.05418  Biso   1.000  C
  C4601    1.0000 0.80747  0.60968  0.02272  Biso   1.000  C
  H4923    1.0000 0.71450  0.56182  0.02550  Biso   1.000  H
  C4602    1.0000 0.41980  0.44681  0.04741  Biso   1.000  C
  H4924    1.0000 0.47302  0.44831  0.03230  Biso   1.000  H
  H4925    1.0000 0.38698  0.46099  0.06460  Biso   1.000  H
  H4926    1.0000 0.64443  0.57791  0.02490  Biso   1.000  H
  H4927    1.0000 0.57302  0.53632  0.02190  Biso   1.000  H
  C4603    1.0000 0.59532  0.61642  0.02992  Biso   1.000  C
  H4928    1.0000 0.57019  0.44200  0.03080  Biso   1.000  H
  H4929    1.0000 0.64251  0.48219  0.03290  Biso   1.000  H
  C4604    1.0000 0.59790  0.42660  0.04820  Biso   1.000  C
  H4930    1.0000 0.53289  0.21578  0.20250  Biso   1.000  H
  H4931    1.0000 0.51918  0.26098  0.21080  Biso   1.000  H
  H4932    1.0000 0.57931  0.28821  0.20210  Biso   1.000  H
  N183     1.0000 0.35862  0.01862  0.15491  Biso   1.000  N
  H4933    1.0000 0.43110  0.16731  0.11440  Biso   1.000  H
  H4934    1.0000 0.40800  0.20109  0.10480  Biso   1.000  H
  H4935    1.0000 0.39901  0.20352  0.11990  Biso   1.000  H
  H4936    1.0000 0.70090  0.18518  0.11390  Biso   1.000  H
  H4937    1.0000 0.73459  0.24998  0.10670  Biso   1.000  H
  C4605    1.0000 0.79690  0.22289  0.11321  Biso   1.000  C
  H4938    1.0000 0.77008  0.22299  0.19080  Biso   1.000  H
  H4939    1.0000 0.69729  0.19580  0.19050  Biso   1.000  H
  C4606    1.0000 0.74379  0.27988  0.20275  Biso   1.000  C
  N184     1.0000 0.98139  0.34000  0.15491  Biso   1.000  N
  C4607    1.0000 0.92351  0.66971  0.02039  Biso   1.000  C
  H4940    1.0000 0.86712  0.57501  0.08650  Biso   1.000  H
  H4941    1.0000 0.83090  0.51082  0.07930  Biso   1.000  H
  C4608    1.0000 0.91171  0.56579  0.07217  Biso   1.000  C
  C4609    1.0000 0.73959  0.80909  0.04382  Biso   1.000  C
  H4942    1.0000 0.73821  0.77601  0.06290  Biso   1.000  H
  H4943    1.0000 0.71022  0.72141  0.05260  Biso   1.000  H
  H4944    1.0000 0.80572  0.59532  0.01420  Biso   1.000  H
  C4610    1.0000 0.35750  0.40990  0.04147  Biso   1.000  C
  H4945    1.0000 0.62801  0.64711  0.03550  Biso   1.000  H
  H4946    1.0000 0.55521  0.60402  0.03400  Biso   1.000  H
  C4611    1.0000 0.59870  0.64561  0.01619  Biso   1.000  C
  H4947    1.0000 0.56122  0.41701  0.05340  Biso   1.000  H
  H4948    1.0000 0.63431  0.44901  0.05380  Biso   1.000  H
  C4612    1.0000 0.59341  0.36428  0.04364  Biso   1.000  C
  C4613    1.0000 0.30481  0.95443  0.15594  Biso   1.000  C
  H4949    1.0000 0.83270  0.26378  0.11440  Biso   1.000  H
  H4950    1.0000 0.79891  0.20689  0.10480  Biso   1.000  H
  H4951    1.0000 0.79651  0.19552  0.11990  Biso   1.000  H
  H4952    1.0000 0.78421  0.31712  0.20250  Biso   1.000  H
  H4953    1.0000 0.73899  0.25822  0.21080  Biso   1.000  H
  H4954    1.0000 0.71180  0.29111  0.20210  Biso   1.000  H
  C4614    1.0000 0.04557  0.35039  0.15594  Biso   1.000  C
  N185     1.0000 0.97628  0.71018  0.02416  Biso   1.000  N
  H4955    1.0000 0.90251  0.54399  0.06400  Biso   1.000  H
  H4956    1.0000 0.93231  0.55092  0.07790  Biso   1.000  H
  H4957    1.0000 0.93843  0.60991  0.07070  Biso   1.000  H
  H4958    1.0000 0.77090  0.85152  0.04570  Biso   1.000  H
  H4959    1.0000 0.69891  0.80520  0.04420  Biso   1.000  H
  H4960    1.0000 0.74650  0.79818  0.03520  Biso   1.000  H
  N186     1.0000 0.35168  0.39460  0.02927  Biso   1.000  N
  H4961    1.0000 0.60019  0.68538  0.01730  Biso   1.000  H
  H4962    1.0000 0.63711  0.65380  0.01190  Biso   1.000  H
  C4615    1.0000 0.54379  0.60378  0.00753  Biso   1.000  C
  H4963    1.0000 0.63270  0.37472  0.03940  Biso   1.000  H
  H4964    1.0000 0.58990  0.34009  0.05140  Biso   1.000  H
  C4616    1.0000 0.53992  0.32100  0.03418  Biso   1.000  C
  C4617    1.0000 0.25385  0.94830  0.14665  Biso   1.000  C
  H4965    1.0000 0.31829  0.92500  0.15320  Biso   1.000  H
  C4618    1.0000 0.28505  0.94166  0.17015  Biso   1.000  C
  C4619    1.0000 0.05173  0.30557  0.14665  Biso   1.000  C
  H4966    1.0000 0.07501  0.39329  0.15320  Biso   1.000  H
  C4620    1.0000 0.05831  0.34337  0.17015  Biso   1.000  C
  C4621    1.0000 0.02889  0.72099  0.01552  Biso   1.000  C
  C4622    1.0000 0.28862  0.36452  0.02384  Biso   1.000  C
  H4967    1.0000 0.54329  0.56519  0.00600  Biso   1.000  H
  H4968    1.0000 0.50561  0.59541  0.01180  Biso   1.000  H
  H4969    1.0000 0.54762  0.62442  0.99930  Biso   1.000  H
  H4970    1.0000 0.50031  0.30702  0.03840  Biso   1.000  H
  H4971    1.0000 0.54408  0.28549  0.03190  Biso   1.000  H
  H4972    1.0000 0.54210  0.34360  0.02640  Biso   1.000  H
  N187     1.0000 0.27966  0.96257  0.13329  Biso   1.000  N
  H4973    1.0000 0.24178  0.97918  0.14910  Biso   1.000  H
  C4623    1.0000 0.19616  0.88462  0.14663  Biso   1.000  C
  C4624    1.0000 0.27641  0.98419  0.17743  Biso   1.000  C
  C4625    1.0000 0.27883  0.88902  0.17646  Biso   1.000  C
  N188     1.0000 0.03745  0.31712  0.13329  Biso   1.000  N
  H4974    1.0000 0.02081  0.26261  0.14910  Biso   1.000  H
  C4626    1.0000 0.11536  0.31151  0.14663  Biso   1.000  C
  C4627    1.0000 0.01581  0.29223  0.17743  Biso   1.000  C
  C4628    1.0000 0.11098  0.38978  0.17646  Biso   1.000  C
  H4975    1.0000 0.01309  0.69020  0.00840  Biso   1.000  H
  C4629    1.0000 0.05860  0.78649  0.00966  Biso   1.000  C
  C4630    1.0000 0.07592  0.71139  0.02384  Biso   1.000  C
  C4631    1.0000 0.27899  0.30790  0.01552  Biso   1.000  C
  H4976    1.0000 0.25799  0.34969  0.03100  Biso   1.000  H
  C4632    1.0000 0.28209  0.41458  0.01547  Biso   1.000  C
  C4633    1.0000 0.27129  0.00061  0.12670  Biso   1.000  C
  C4634    1.0000 0.13869  0.87681  0.14844  Biso   1.000  C
  C4635    1.0000 0.20029  0.83138  0.14438  Biso   1.000  C
  H4977    1.0000 0.27939  0.01932  0.17340  Biso   1.000  H
  C4636    1.0000 0.26311  0.97459  0.19083  Biso   1.000  C
  H4978    1.0000 0.28439  0.86011  0.17170  Biso   1.000  H
  C4637    1.0000 0.26481  0.87849  0.18959  Biso   1.000  C
  C4638    1.0000 0.99941  0.27071  0.12670  Biso   1.000  C
  C4639    1.0000 0.12322  0.26191  0.14844  Biso   1.000  C
  C4640    1.0000 0.16861  0.36891  0.14438  Biso   1.000  C
  H4979    1.0000 0.98069  0.26009  0.17340  Biso   1.000  H
  C4641    1.0000 0.02540  0.28849  0.19083  Biso   1.000  C
  H4980    1.0000 0.13991  0.42431  0.17170  Biso   1.000  H
  C4642    1.0000 0.12152  0.38632  0.18959  Biso   1.000  C
  C4643    1.0000 0.06428  0.79510  0.99638  Biso   1.000  C
  C4644    1.0000 0.07879  0.83870  0.01725  Biso   1.000  C
  N189     1.0000 0.04292  0.64833  0.02927  Biso   1.000  N
  H4981    1.0000 0.09170  0.74199  0.03100  Biso   1.000  H
  C4645    1.0000 0.13249  0.71790  0.01547  Biso   1.000  C
  N190     1.0000 0.28983  0.26612  0.02416  Biso   1.000  N
  H4982    1.0000 0.30980  0.32292  0.00840  Biso   1.000  H
  C4646    1.0000 0.21349  0.27211  0.00966  Biso   1.000  C
  C4647    1.0000 0.32891  0.45271  0.00674  Biso   1.000  C
  C4648    1.0000 0.23420  0.42440  0.01735  Biso   1.000  C
  C4649    1.0000 0.29419  0.01942  0.11296  Biso   1.000  C
  H4983    1.0000 0.13451  0.91148  0.15020  Biso   1.000  H
  C4650    1.0000 0.08470  0.81720  0.14777  Biso   1.000  C
  H4984    1.0000 0.23928  0.83480  0.14340  Biso   1.000  H
  C4651    1.0000 0.14712  0.77341  0.14360  Biso   1.000  C
  H4985    1.0000 0.25791  0.00342  0.19580  Biso   1.000  H
  C4652    1.0000 0.25777  0.92098  0.19669  Biso   1.000  C
  H4986    1.0000 0.26020  0.84252  0.19360  Biso   1.000  H
  C4653    1.0000 0.98058  0.27478  0.11296  Biso   1.000  C
  H4987    1.0000 0.08848  0.22299  0.15020  Biso   1.000  H
  C4654    1.0000 0.18281  0.26748  0.14777  Biso   1.000  C
  H4988    1.0000 0.16523  0.40452  0.14340  Biso   1.000  H
  C4655    1.0000 0.22659  0.37369  0.14360  Biso   1.000  C
  H4989    1.0000 0.99663  0.25452  0.19580  Biso   1.000  H
  C4656    1.0000 0.07903  0.33682  0.19669  Biso   1.000  C
  H4990    1.0000 0.15752  0.41771  0.19360  Biso   1.000  H
  H4991    1.0000 0.05029  0.76071  0.99090  Biso   1.000  H
  C4657    1.0000 0.09071  0.85452  0.99103  Biso   1.000  C
  H4992    1.0000 0.07440  0.83421  0.02630  Biso   1.000  H
  C4658    1.0000 0.10532  0.89751  0.01194  Biso   1.000  C
  C4659    1.0000 0.05240  0.64248  0.04147  Biso   1.000  C
  C4660    1.0000 0.12381  0.67111  0.00674  Biso   1.000  C
  C4661    1.0000 0.19020  0.76581  0.01735  Biso   1.000  C
  C4662    1.0000 0.33031  0.25382  0.02039  Biso   1.000  C
  C4663    1.0000 0.16130  0.24011  0.01725  Biso   1.000  C
  C4664    1.0000 0.20491  0.26921  0.99638  Biso   1.000  C
  H4993    1.0000 0.36137  0.44438  0.00540  Biso   1.000  H
  C4665    1.0000 0.33100  0.50081  0.00000  Biso   1.000  C
  H4994    1.0000 0.20179  0.39928  0.02300  Biso   1.000  H
  C4666    1.0000 0.23410  0.47671  0.01009  Biso   1.000  C
  C4667    1.0000 0.27862  0.05610  0.10611  Biso   1.000  C
  C4668    1.0000 0.33192  0.99991  0.10715  Biso   1.000  C
  H4995    1.0000 0.04542  0.81271  0.14900  Biso   1.000  H
  C4669    1.0000 0.09100  0.76611  0.14528  Biso   1.000  C
  H4996    1.0000 0.15099  0.73860  0.14180  Biso   1.000  H
  H4997    1.0000 0.24920  0.91429  0.20560  Biso   1.000  H
  C4670    1.0000 0.94392  0.22252  0.10611  Biso   1.000  C
  C4671    1.0000 0.00012  0.33200  0.10715  Biso   1.000  C
  H4998    1.0000 0.18731  0.23272  0.14900  Biso   1.000  H
  C4672    1.0000 0.23388  0.32489  0.14528  Biso   1.000  C
  H4999    1.0000 0.26138  0.41238  0.14180  Biso   1.000  H
  H5000    1.0000 0.08568  0.33490  0.20560  Biso   1.000  H
  H5001    1.0000 0.09321  0.85910  0.98200  Biso   1.000  H
  C4673    1.0000 0.11241  0.90472  0.99854  Biso   1.000  C
  H5002    1.0000 0.11828  0.93218  0.01730  Biso   1.000  H
  C4674    1.0000 0.02701  0.58020  0.04741  Biso   1.000  C
  H5003    1.0000 0.08299  0.63859  0.00540  Biso   1.000  H
  C4675    1.0000 0.16979  0.66901  0.00000  Biso   1.000  C
  H5004    1.0000 0.19751  0.79818  0.02300  Biso   1.000  H
  C4676    1.0000 0.24259  0.76590  0.01009  Biso   1.000  C
  C4677    1.0000 0.34910  0.21522  0.02807  Biso   1.000  C
  H5005    1.0000 0.16581  0.24020  0.02630  Biso   1.000  H
  C4678    1.0000 0.10247  0.20778  0.01194  Biso   1.000  C
  H5006    1.0000 0.23929  0.28961  0.99090  Biso   1.000  H
  C4679    1.0000 0.14548  0.23618  0.99103  Biso   1.000  C
  C4680    1.0000 0.28188  0.50890  0.00193  Biso   1.000  C
  H5007    1.0000 0.36400  0.52631  0.99450  Biso   1.000  H
  H5008    1.0000 0.20252  0.48640  0.01120  Biso   1.000  H
  H5009    1.0000 0.25269  0.06859  0.11010  Biso   1.000  H
  C4681    1.0000 0.29893  0.07622  0.09345  Biso   1.000  C
  C4682    1.0000 0.35370  0.01890  0.09443  Biso   1.000  C
  H5010    1.0000 0.34279  0.97408  0.11170  Biso   1.000  H
  H5011    1.0000 0.05591  0.72648  0.14480  Biso   1.000  H
  H5012    1.0000 0.93140  0.18411  0.11010  Biso   1.000  H
  C4683    1.0000 0.92379  0.22271  0.09345  Biso   1.000  C
  C4684    1.0000 0.98110  0.33481  0.09443  Biso   1.000  C
  H5013    1.0000 0.02587  0.36868  0.11170  Biso   1.000  H
  H5014    1.0000 0.27348  0.32938  0.14480  Biso   1.000  H
  H5015    1.0000 0.13229  0.94439  0.99480  Biso   1.000  H
  C4685    1.0000 0.98852  0.52542  0.04078  Biso   1.000  C
  C4686    1.0000 0.04712  0.57632  0.06016  Biso   1.000  C
  H5016    1.0000 0.16230  0.63602  0.99450  Biso   1.000  H
  C4687    1.0000 0.22699  0.71809  0.00193  Biso   1.000  C
  H5017    1.0000 0.28391  0.79748  0.01120  Biso   1.000  H
  C4688    1.0000 0.32941  0.19650  0.04063  Biso   1.000  C
  C4689    1.0000 0.39032  0.19781  0.02272  Biso   1.000  C
  H5018    1.0000 0.06782  0.18612  0.01730  Biso   1.000  H
  C4690    1.0000 0.09529  0.20769  0.99854  Biso   1.000  C
  H5019    1.0000 0.14093  0.23412  0.98200  Biso   1.000  H
  H5020    1.0000 0.28092  0.54020  0.99710  Biso   1.000  H
  C4691    1.0000 0.33781  0.05722  0.08760  Biso   1.000  C
  H5021    1.0000 0.28709  0.10148  0.08900  Biso   1.000  H
  C4692    1.0000 0.39481  0.00122  0.08686  Biso   1.000  C
  C4693    1.0000 0.94280  0.28058  0.08760  Biso   1.000  C
  H5022    1.0000 0.89851  0.18560  0.08900  Biso   1.000  H
  C4694    1.0000 0.99879  0.39362  0.08686  Biso   1.000  C
  C4695    1.0000 0.96919  0.46740  0.04673  Biso   1.000  C
  H5023    1.0000 0.97529  0.52701  0.03230  Biso   1.000  H
  C4696    1.0000 0.02798  0.51990  0.06609  Biso   1.000  C
  H5024    1.0000 0.07400  0.61300  0.06460  Biso   1.000  H
  H5025    1.0000 0.25931  0.71911  0.99710  Biso   1.000  H
  C4697    1.0000 0.34919  0.16062  0.04743  Biso   1.000  C
  H5026    1.0000 0.30250  0.20759  0.04460  Biso   1.000  H
  C4698    1.0000 0.41060  0.16310  0.02943  Biso   1.000  C
  H5027    1.0000 0.40471  0.21040  0.01420  Biso   1.000  H
  H5028    1.0000 0.05562  0.18790  0.99480  Biso   1.000  H
  C4699    1.0000 0.36899  0.06990  0.07440  Biso   1.000  C
  C4700    1.0000 0.45571  0.02391  0.09450  Biso   1.000  C
  C4701    1.0000 0.40280  0.03762  0.07398  Biso   1.000  C
  C4702    1.0000 0.35868  0.92879  0.08477  Biso   1.000  C
  C4703    1.0000 0.93011  0.29911  0.07440  Biso   1.000  C
  C4704    1.0000 0.97611  0.43180  0.09450  Biso   1.000  C
  C4705    1.0000 0.96239  0.36522  0.07398  Biso   1.000  C
  C4706    1.0000 0.07118  0.42988  0.08477  Biso   1.000  C
  C4707    1.0000 0.98759  0.46352  0.05939  Biso   1.000  C
  C4708    1.0000 0.92852  0.40461  0.04074  Biso   1.000  C
  H5029    1.0000 0.04150  0.51849  0.07450  Biso   1.000  H
  C4709    1.0000 0.33118  0.13699  0.06142  Biso   1.000  C
  C4710    1.0000 0.38949  0.14340  0.04231  Biso   1.000  C
  H5030    1.0000 0.43819  0.15271  0.02550  Biso   1.000  H
  C4711    1.0000 0.36601  0.10171  0.06343  Biso   1.000  C
  H5031    1.0000 0.44540  0.00449  0.10310  Biso   1.000  H
  H5032    1.0000 0.48047  0.00908  0.09000  Biso   1.000  H
  C4712    1.0000 0.49559  0.09362  0.09630  Biso   1.000  C
  C4713    1.0000 0.43651  0.04061  0.06280  Biso   1.000  C
  H5033    1.0000 0.38612  0.91770  0.08010  Biso   1.000  H
  H5034    1.0000 0.35029  0.90900  0.09330  Biso   1.000  H
  C4714    1.0000 0.29851  0.90179  0.07748  Biso   1.000  C
  C4715    1.0000 0.89832  0.26430  0.06343  Biso   1.000  C
  H5035    1.0000 0.99550  0.44092  0.10310  Biso   1.000  H
  H5036    1.0000 0.99088  0.47138  0.09000  Biso   1.000  H
  C4716    1.0000 0.90639  0.40199  0.09630  Biso   1.000  C
  C4717    1.0000 0.95942  0.39591  0.06280  Biso   1.000  C
  H5037    1.0000 0.08229  0.46838  0.08010  Biso   1.000  H
  H5038    1.0000 0.09099  0.44129  0.09330  Biso   1.000  H
  C4718    1.0000 0.09819  0.39671  0.07748  Biso   1.000  C
  C4719    1.0000 0.92478  0.36059  0.05181  Biso   1.000  C
  C4720    1.0000 0.96061  0.39699  0.02843  Biso   1.000  C
  C4721    1.0000 0.86489  0.39769  0.03714  Biso   1.000  C
  C4722    1.0000 0.35220  0.19501  0.07033  Biso   1.000  C
  C4723    1.0000 0.25889  0.09161  0.06196  Biso   1.000  C
  C4724    1.0000 0.40131  0.10569  0.05205  Biso   1.000  C
  H5039    1.0000 0.46991  0.10878  0.10020  Biso   1.000  H
  H5040    1.0000 0.50830  0.11271  0.08770  Biso   1.000  H
  C4725    1.0000 0.55372  0.11570  0.10462  Biso   1.000  C
  C4726    1.0000 0.47589  0.01240  0.05939  Biso   1.000  C
  C4727    1.0000 0.43581  0.07519  0.05181  Biso   1.000  C
  H5041    1.0000 0.30671  0.91812  0.06860  Biso   1.000  H
  H5042    1.0000 0.27159  0.91489  0.08170  Biso   1.000  H
  C4728    1.0000 0.26502  0.83101  0.07698  Biso   1.000  C
  C4729    1.0000 0.86299  0.19421  0.06142  Biso   1.000  C
  C4730    1.0000 0.89432  0.29560  0.05205  Biso   1.000  C
  H5043    1.0000 0.89121  0.36110  0.10020  Biso   1.000  H
  H5044    1.0000 0.88730  0.39558  0.08770  Biso   1.000  H
  C4731    1.0000 0.88433  0.43802  0.10462  Biso   1.000  C
  H5045    1.0000 0.08191  0.38861  0.06860  Biso   1.000  H
  H5046    1.0000 0.08512  0.35670  0.08170  Biso   1.000  H
  C4732    1.0000 0.16898  0.43400  0.07698  Biso   1.000  C
  H5047    1.0000 0.93350  0.35558  0.02490  Biso   1.000  H
  H5048    1.0000 0.96329  0.42698  0.02190  Biso   1.000  H
  C4733    1.0000 0.02111  0.40471  0.02992  Biso   1.000  C
  H5049    1.0000 0.87178  0.42978  0.03080  Biso   1.000  H
  H5050    1.0000 0.83969  0.35750  0.03290  Biso   1.000  H
  C4734    1.0000 0.82868  0.40209  0.04820  Biso   1.000  C
  H5051    1.0000 0.33253  0.21821  0.06720  Biso   1.000  H
  H5052    1.0000 0.33710  0.18069  0.07920  Biso   1.000  H
  C4735    1.0000 0.42199  0.23880  0.07087  Biso   1.000  C
  H5053    1.0000 0.24800  0.07631  0.07090  Biso   1.000  H
  H5054    1.0000 0.23861  0.11570  0.06010  Biso   1.000  H
  C4736    1.0000 0.23292  0.03780  0.05320  Biso   1.000  C
  H5055    1.0000 0.57648  0.09559  0.10150  Biso   1.000  H
  H5056    1.0000 0.58027  0.16039  0.10340  Biso   1.000  H
  C4737    1.0000 0.54178  0.10349  0.11765  Biso   1.000  C
  C4738    1.0000 0.49821  0.03079  0.04673  Biso   1.000  C
  C4739    1.0000 0.49193  0.97202  0.06609  Biso   1.000  C
  C4740    1.0000 0.47610  0.07149  0.04074  Biso   1.000  C
  H5057    1.0000 0.25642  0.81421  0.08580  Biso   1.000  H
  H5058    1.0000 0.29140  0.81748  0.07270  Biso   1.000  H
  C4741    1.0000 0.19919  0.80438  0.06886  Biso   1.000  C
  C4742    1.0000 0.83940  0.18860  0.04743  Biso   1.000  C
  C4743    1.0000 0.80502  0.15720  0.07033  Biso   1.000  C
  C4744    1.0000 0.90841  0.16731  0.06196  Biso   1.000  C
  C4745    1.0000 0.85660  0.24610  0.04231  Biso   1.000  C
  H5059    1.0000 0.90440  0.48092  0.10150  Biso   1.000  H
  H5060    1.0000 0.83962  0.41991  0.10340  Biso   1.000  H
  C4746    1.0000 0.89650  0.43830  0.11765  Biso   1.000  C
  H5061    1.0000 0.18580  0.44218  0.08580  Biso   1.000  H
  H5062    1.0000 0.18250  0.47390  0.07270  Biso   1.000  H
  C4747    1.0000 0.19561  0.39479  0.06886  Biso   1.000  C
  H5063    1.0000 0.01911  0.37200  0.03550  Biso   1.000  H
  H5064    1.0000 0.04882  0.44480  0.03400  Biso   1.000  H
  C4748    1.0000 0.04688  0.40129  0.01619  Biso   1.000  C
  H5065    1.0000 0.85579  0.43881  0.05340  Biso   1.000  H
  H5066    1.0000 0.81469  0.36569  0.05380  Biso   1.000  H
  C4749    1.0000 0.77087  0.40658  0.04364  Biso   1.000  C
  H5067    1.0000 0.43769  0.24750  0.06190  Biso   1.000  H
  H5068    1.0000 0.44080  0.21709  0.07520  Biso   1.000  H
  C4750    1.0000 0.44449  0.30131  0.07790  Biso   1.000  C
  H5069    1.0000 0.25001  0.05488  0.04460  Biso   1.000  H
  H5070    1.0000 0.18858  0.02400  0.05270  Biso   1.000  H
  C4751    1.0000 0.23599  0.97951  0.05418  Biso   1.000  C
  H5071    1.0000 0.51939  0.12338  0.12080  Biso   1.000  H
  H5072    1.0000 0.58052  0.11931  0.12230  Biso   1.000  H
  H5073    1.0000 0.51678  0.05909  0.11900  Biso   1.000  H
  C4752    1.0000 0.53691  0.01151  0.04078  Biso   1.000  C
  C4753    1.0000 0.52920  0.95289  0.06016  Biso   1.000  C
  H5074    1.0000 0.47698  0.95850  0.07450  Biso   1.000  H
  C4754    1.0000 0.43639  0.03939  0.02843  Biso   1.000  C
  C4755    1.0000 0.53280  0.13512  0.03714  Biso   1.000  C
  H5075    1.0000 0.17168  0.81468  0.07350  Biso   1.000  H
  H5076    1.0000 0.17970  0.75980  0.06800  Biso   1.000  H
  H5077    1.0000 0.20758  0.82319  0.06030  Biso   1.000  H
  C4756    1.0000 0.80349  0.13292  0.04063  Biso   1.000  C
  H5078    1.0000 0.78179  0.11430  0.06720  Biso   1.000  H
  H5079    1.0000 0.81929  0.15641  0.07920  Biso   1.000  H
  C4757    1.0000 0.76122  0.18322  0.07087  Biso   1.000  C
  H5080    1.0000 0.92370  0.17171  0.07090  Biso   1.000  H
  H5081    1.0000 0.88431  0.12291  0.06010  Biso   1.000  H
  C4758    1.0000 0.96222  0.19510  0.05320  Biso   1.000  C
  C4759    1.0000 0.83692  0.24750  0.02943  Biso   1.000  C
  H5082    1.0000 0.87661  0.39600  0.12080  Biso   1.000  H
  H5083    1.0000 0.88067  0.46118  0.12230  Biso   1.000  H
  H5084    1.0000 0.94089  0.45772  0.11900  Biso   1.000  H
  H5085    1.0000 0.18530  0.35698  0.07350  Biso   1.000  H
  H5086    1.0000 0.24022  0.41991  0.06800  Biso   1.000  H
  H5087    1.0000 0.17680  0.38440  0.06030  Biso   1.000  H
  H5088    1.0000 0.08519  0.39979  0.01730  Biso   1.000  H
  H5089    1.0000 0.01669  0.36288  0.01190  Biso   1.000  H
  C4760    1.0000 0.06000  0.45622  0.00753  Biso   1.000  C
  H5090    1.0000 0.74199  0.36728  0.03940  Biso   1.000  H
  H5091    1.0000 0.75018  0.41009  0.05140  Biso   1.000  H
  C4761    1.0000 0.78110  0.46010  0.03418  Biso   1.000  C
  H5092    1.0000 0.42498  0.29209  0.08650  Biso   1.000  H
  H5093    1.0000 0.48919  0.32012  0.07930  Biso   1.000  H
  C4762    1.0000 0.43421  0.34590  0.07217  Biso   1.000  C
  C4763    1.0000 0.19091  0.93052  0.04382  Biso   1.000  C
  H5094    1.0000 0.22401  0.96220  0.06290  Biso   1.000  H
  H5095    1.0000 0.27861  0.98882  0.05260  Biso   1.000  H
  H5096    1.0000 0.55170  0.02470  0.03230  Biso   1.000  H
  C4764    1.0000 0.55320  0.97300  0.04741  Biso   1.000  C
  H5097    1.0000 0.53900  0.92598  0.06460  Biso   1.000  H
  H5098    1.0000 0.42210  0.06648  0.02490  Biso   1.000  H
  H5099    1.0000 0.46368  0.03668  0.02190  Biso   1.000  H
  C4765    1.0000 0.38361  0.97890  0.02992  Biso   1.000  C
  H5100    1.0000 0.55798  0.12820  0.03080  Biso   1.000  H
  H5101    1.0000 0.51779  0.16029  0.03290  Biso   1.000  H
  C4766    1.0000 0.57341  0.17129  0.04820  Biso   1.000  C
  H5102    1.0000 0.79238  0.09488  0.04460  Biso   1.000  H
  C4767    1.0000 0.78482  0.13390  0.02807  Biso   1.000  C
  H5103    1.0000 0.75251  0.19019  0.06190  Biso   1.000  H
  H5104    1.0000 0.78291  0.22369  0.07520  Biso   1.000  H
  C4768    1.0000 0.69871  0.14321  0.07790  Biso   1.000  C
  H5105    1.0000 0.94512  0.19510  0.04460  Biso   1.000  H
  H5106    1.0000 0.97602  0.16460  0.05270  Biso   1.000  H
  C4769    1.0000 0.02050  0.25649  0.05418  Biso   1.000  C
  C4770    1.0000 0.80220  0.19248  0.02272  Biso   1.000  C
  H5107    1.0000 0.84728  0.28549  0.02550  Biso   1.000  H
  H5108    1.0000 0.07680  0.45238  0.99930  Biso   1.000  H
  H5109    1.0000 0.02190  0.45669  0.00600  Biso   1.000  H
  H5110    1.0000 0.08978  0.49440  0.01180  Biso   1.000  H
  H5111    1.0000 0.80669  0.49968  0.03840  Biso   1.000  H
  H5112    1.0000 0.74140  0.45589  0.03190  Biso   1.000  H
  H5113    1.0000 0.80152  0.45790  0.02640  Biso   1.000  H
  H5114    1.0000 0.45598  0.35848  0.06400  Biso   1.000  H
  H5115    1.0000 0.44909  0.38141  0.07790  Biso   1.000  H
  H5116    1.0000 0.39010  0.32849  0.07070  Biso   1.000  H
  H5117    1.0000 0.14851  0.91939  0.04570  Biso   1.000  H
  H5118    1.0000 0.19478  0.89370  0.04420  Biso   1.000  H
  H5119    1.0000 0.20178  0.94830  0.03520  Biso   1.000  H
  C4771    1.0000 0.59009  0.94760  0.04147  Biso   1.000  C
  H5120    1.0000 0.35289  0.98091  0.03550  Biso   1.000  H
  H5121    1.0000 0.39598  0.95120  0.03400  Biso   1.000  H
  C4772    1.0000 0.35440  0.95312  0.01619  Biso   1.000  C
  H5122    1.0000 0.58300  0.14420  0.05340  Biso   1.000  H
  H5123    1.0000 0.55101  0.18532  0.05380  Biso   1.000  H
  C4773    1.0000 0.63571  0.22912  0.04364  Biso   1.000  C
  C4774    1.0000 0.74619  0.07650  0.02039  Biso   1.000  C
  H5124    1.0000 0.70791  0.13292  0.08650  Biso   1.000  H
  H5125    1.0000 0.67988  0.16909  0.07930  Biso   1.000  H
  C4775    1.0000 0.65411  0.08829  0.07217  Biso   1.000  C
  C4776    1.0000 0.06951  0.26042  0.04382  Biso   1.000  C
  H5126    1.0000 0.03780  0.26182  0.06290  Biso   1.000  H
  H5127    1.0000 0.01119  0.28980  0.05260  Biso   1.000  H
  H5128    1.0000 0.78962  0.19431  0.01420  Biso   1.000  H
  N191     1.0000 0.60541  0.95710  0.02927  Biso   1.000  N
  H5129    1.0000 0.31461  0.91480  0.01730  Biso   1.000  H
  H5130    1.0000 0.34619  0.98330  0.01190  Biso   1.000  H
  C4777    1.0000 0.39623  0.94002  0.00753  Biso   1.000  C
  H5131    1.0000 0.62530  0.25798  0.03940  Biso   1.000  H
  H5132    1.0000 0.65991  0.24980  0.05140  Biso   1.000  H
  C4778    1.0000 0.67899  0.21892  0.03418  Biso   1.000  C
  N192     1.0000 0.73390  0.02372  0.02416  Biso   1.000  N
  H5133    1.0000 0.64150  0.09750  0.06400  Biso   1.000  H
  H5134    1.0000 0.61862  0.06770  0.07790  Biso   1.000  H
  H5135    1.0000 0.67149  0.06162  0.07070  Biso   1.000  H
  H5136    1.0000 0.08060  0.22912  0.04570  Biso   1.000  H
  H5137    1.0000 0.10631  0.30112  0.04420  Biso   1.000  H
  H5138    1.0000 0.05171  0.25349  0.03520  Biso   1.000  H
  C4779    1.0000 0.63552  0.92411  0.02384  Biso   1.000  C
  H5139    1.0000 0.37563  0.92322  0.99930  Biso   1.000  H
  H5140    1.0000 0.43480  0.97810  0.00600  Biso   1.000  H
  H5141    1.0000 0.40462  0.91022  0.01180  Biso   1.000  H
  H5142    1.0000 0.69299  0.19328  0.03840  Biso   1.000  H
  H5143    1.0000 0.71451  0.25859  0.03190  Biso   1.000  H
  H5144    1.0000 0.65639  0.19852  0.02640  Biso   1.000  H
  C4780    1.0000 0.69211  0.97109  0.01552  Biso   1.000  C
  H5145    1.0000 0.65030  0.90830  0.03100  Biso   1.000  H
  C4781    1.0000 0.58541  0.86750  0.01547  Biso   1.000  C
  H5146    1.0000 0.67708  0.98690  0.00840  Biso   1.000  H
  C4782    1.0000 0.72792  0.94142  0.00966  Biso   1.000  C
  C4783    1.0000 0.54730  0.87620  0.00674  Biso   1.000  C
  C4784    1.0000 0.57561  0.80981  0.01735  Biso   1.000  C
  C4785    1.0000 0.73082  0.93571  0.99638  Biso   1.000  C
  C4786    1.0000 0.75992  0.92121  0.01725  Biso   1.000  C
  H5147    1.0000 0.55558  0.91700  0.00540  Biso   1.000  H
  C4787    1.0000 0.49922  0.83021  0.00000  Biso   1.000  C
  H5148    1.0000 0.60069  0.80251  0.02300  Biso   1.000  H
  C4788    1.0000 0.52332  0.75741  0.01009  Biso   1.000  C
  H5149    1.0000 0.71039  0.94970  0.99090  Biso   1.000  H
  C4789    1.0000 0.76380  0.90928  0.99103  Biso   1.000  C
  H5150    1.0000 0.75981  0.92561  0.02630  Biso   1.000  H
  C4790    1.0000 0.79220  0.89468  0.01194  Biso   1.000  C
  H5151    1.0000 0.47371  0.83770  0.99450  Biso   1.000  H
  C4791    1.0000 0.49111  0.77299  0.00193  Biso   1.000  C
  H5152    1.0000 0.51360  0.71610  0.01120  Biso   1.000  H
  H5153    1.0000 0.76592  0.90680  0.98200  Biso   1.000  H
  C4792    1.0000 0.79231  0.88762  0.99854  Biso   1.000  C
  H5154    1.0000 0.81392  0.88172  0.01730  Biso   1.000  H
  H5155    1.0000 0.45982  0.74071  0.99710  Biso   1.000  H
  H5156    1.0000 0.81208  0.86769  0.99480  Biso   1.000  H
