data_image0
_cell_length_a       15.13
_cell_length_b       19.077
_cell_length_c       20.017
_cell_angle_alpha    72.74
_cell_angle_beta     87.6
_cell_angle_gamma    88.87

_symmetry_space_group_name_H-M    "P 1"
_symmetry_int_tables_number       1

loop_
  _symmetry_equiv_pos_as_xyz
  'x, y, z'

loop_
  _atom_site_label
  _atom_site_occupancy
  _atom_site_fract_x
  _atom_site_fract_y
  _atom_site_fract_z
  _atom_site_thermal_displace_type
  _atom_site_B_iso_or_equiv
  _atom_site_type_symbol
  O1       1.0000 0.20669  0.33008  0.04732  Biso   1.000  O
  C1       1.0000 0.14679  0.30367  0.10601  Biso   1.000  C
  C2       1.0000 0.14679  0.30372  0.10601  Biso   1.000  C
  C3       1.0000 0.14685  0.30372  0.10601  Biso   1.000  C
  H1       1.0000 0.26278  0.33879  0.06282  Biso   1.000  H
  H2       1.0000 0.26285  0.33879  0.06282  Biso   1.000  H
  C4       1.0000 0.19325  0.29860  0.17281  Biso   1.000  C
  C5       1.0000 0.19318  0.29860  0.17281  Biso   1.000  C
  C6       1.0000 0.06399  0.35039  0.10261  Biso   1.000  C
  H3       1.0000 0.12890  0.25411  0.10758  Biso   1.000  H
  O2       1.0000 0.20668  0.33013  0.04732  Biso   1.000  O
  O3       1.0000 0.20675  0.33008  0.04732  Biso   1.000  O
  C7       1.0000 0.06406  0.35039  0.10261  Biso   1.000  C
  C8       1.0000 0.12980  0.27219  0.23710  Biso   1.000  C
  O4       1.0000 0.22299  0.36951  0.17072  Biso   1.000  O
  H4       1.0000 0.24379  0.26479  0.17752  Biso   1.000  H
  C9       1.0000 0.12980  0.27224  0.23710  Biso   1.000  C
  O5       1.0000 0.22306  0.36951  0.17072  Biso   1.000  O
  H5       1.0000 0.24386  0.26479  0.17752  Biso   1.000  H
  C10      1.0000 0.00661  0.32452  0.16920  Biso   1.000  C
  C11      1.0000 0.00662  0.32447  0.16920  Biso   1.000  C
  O6       1.0000 0.01119  0.34012  0.04623  Biso   1.000  O
  H6       1.0000 0.07929  0.40219  0.09318  Biso   1.000  H
  O7       1.0000 0.01119  0.34008  0.04617  Biso   1.000  O
  H7       1.0000 0.07928  0.40224  0.09318  Biso   1.000  H
  O8       1.0000 0.01126  0.34013  0.04617  Biso   1.000  O
  H8       1.0000 0.07935  0.40219  0.09318  Biso   1.000  H
  O9       1.0000 0.10438  0.19779  0.24249  Biso   1.000  O
  O10      1.0000 0.05589  0.31791  0.22998  Biso   1.000  O
  H9       1.0000 0.16051  0.27238  0.27919  Biso   1.000  H
  O11      1.0000 0.10438  0.19784  0.24249  Biso   1.000  O
  H10      1.0000 0.16051  0.27243  0.27919  Biso   1.000  H
  O12      1.0000 0.10445  0.19779  0.24249  Biso   1.000  O
  O13      1.0000 0.05596  0.31791  0.22998  Biso   1.000  O
  H11      1.0000 0.25173  0.36730  0.21260  Biso   1.000  H
  C12      1.0000 0.93271  0.37622  0.17239  Biso   1.000  C
  H12      1.0000 0.98193  0.27651  0.17218  Biso   1.000  H
  C13      1.0000 0.93271  0.37617  0.17239  Biso   1.000  C
  C14      1.0000 0.98413  0.40660  0.99660  Biso   1.000  C
  C15      1.0000 0.06778  0.15511  0.30918  Biso   1.000  C
  C16      1.0000 0.06784  0.15511  0.30918  Biso   1.000  C
  H13      1.0000 0.89868  0.35719  0.21542  Biso   1.000  H
  H14      1.0000 0.89547  0.38151  0.13360  Biso   1.000  H
  H15      1.0000 0.95637  0.42310  0.17051  Biso   1.000  H
  H16      1.0000 0.89554  0.38151  0.13360  Biso   1.000  H
  H17      1.0000 0.95644  0.42310  0.17051  Biso   1.000  H
  H18      1.0000 0.89875  0.35719  0.21542  Biso   1.000  H
  C17      1.0000 0.91498  0.38712  0.95550  Biso   1.000  C
  C18      1.0000 0.91505  0.38706  0.95550  Biso   1.000  C
  C19      1.0000 0.91505  0.38712  0.95550  Biso   1.000  C
  H19      1.0000 0.95812  0.43908  0.02199  Biso   1.000  H
  H20      1.0000 0.95812  0.43914  0.02199  Biso   1.000  H
  O14      1.0000 0.05647  0.44332  0.95330  Biso   1.000  O
  O15      1.0000 0.05654  0.44327  0.95330  Biso   1.000  O
  O16      1.0000 0.05653  0.44332  0.95330  Biso   1.000  O
  C20      1.0000 0.13552  0.09672  0.34138  Biso   1.000  C
  H21      1.0000 0.05633  0.18662  0.33939  Biso   1.000  H
  H22      1.0000 0.05633  0.18657  0.33939  Biso   1.000  H
  C21      1.0000 0.98450  0.11953  0.30018  Biso   1.000  C
  C22      1.0000 0.98450  0.11948  0.30018  Biso   1.000  C
  C23      1.0000 0.98456  0.11953  0.30018  Biso   1.000  C
  O17      1.0000 0.86761  0.45188  0.91781  Biso   1.000  O
  C24      1.0000 0.95511  0.34622  0.90572  Biso   1.000  C
  H23      1.0000 0.87301  0.35431  0.98822  Biso   1.000  H
  C25      1.0000 0.95511  0.34617  0.90572  Biso   1.000  C
  O18      1.0000 0.86761  0.45193  0.91781  Biso   1.000  O
  C26      1.0000 0.09480  0.40162  0.90881  Biso   1.000  C
  C27      1.0000 0.09480  0.40157  0.90881  Biso   1.000  C
  O19      1.0000 0.10058  0.04682  0.40870  Biso   1.000  O
  C28      1.0000 0.21998  0.12470  0.35881  Biso   1.000  C
  H24      1.0000 0.14880  0.06780  0.30908  Biso   1.000  H
  H25      1.0000 0.14880  0.06785  0.30908  Biso   1.000  H
  O20      1.0000 0.10065  0.04682  0.40870  Biso   1.000  O
  C29      1.0000 0.22005  0.12470  0.35881  Biso   1.000  C
  C30      1.0000 0.94982  0.06792  0.36708  Biso   1.000  C
  O21      1.0000 0.91893  0.17440  0.27442  Biso   1.000  O
  H26      1.0000 0.99572  0.09231  0.26610  Biso   1.000  H
  H27      1.0000 0.81801  0.47370  0.93482  Biso   1.000  H
  O22      1.0000 0.88209  0.33080  0.86588  Biso   1.000  O
  H28      1.0000 0.98098  0.29969  0.93331  Biso   1.000  H
  H29      1.0000 0.98104  0.29969  0.93331  Biso   1.000  H
  O23      1.0000 0.88215  0.33080  0.86588  Biso   1.000  O
  C31      1.0000 0.02441  0.39130  0.86101  Biso   1.000  C
  C32      1.0000 0.17400  0.44102  0.87530  Biso   1.000  C
  H30      1.0000 0.11259  0.35322  0.93870  Biso   1.000  H
  C33      1.0000 0.17400  0.44097  0.87530  Biso   1.000  C
  H31      1.0000 0.11259  0.35317  0.93870  Biso   1.000  H
  H32      1.0000 0.11266  0.35322  0.93870  Biso   1.000  H
  C34      1.0000 0.02018  0.01242  0.39959  Biso   1.000  C
  C35      1.0000 0.02025  0.01242  0.39959  Biso   1.000  C
  H33      1.0000 0.25867  0.08412  0.37891  Biso   1.000  H
  H34      1.0000 0.20810  0.15172  0.39169  Biso   1.000  H
  H35      1.0000 0.24769  0.15623  0.31688  Biso   1.000  H
  H36      1.0000 0.25874  0.08406  0.37891  Biso   1.000  H
  H37      1.0000 0.24770  0.15618  0.31688  Biso   1.000  H
  H38      1.0000 0.25874  0.08412  0.37891  Biso   1.000  H
  H39      1.0000 0.24776  0.15623  0.31688  Biso   1.000  H
  O24      1.0000 0.92401  0.10649  0.41593  Biso   1.000  O
  H40      1.0000 0.89850  0.04210  0.35771  Biso   1.000  H
  H41      1.0000 0.90159  0.17561  0.22898  Biso   1.000  H
  H42      1.0000 0.90165  0.17561  0.22898  Biso   1.000  H
  H43      1.0000 0.89821  0.28331  0.86331  Biso   1.000  H
  H44      1.0000 0.99988  0.43900  0.83489  Biso   1.000  H
  H45      1.0000 0.99995  0.43900  0.83489  Biso   1.000  H
  O25      1.0000 0.05957  0.35369  0.81347  Biso   1.000  O
  O26      1.0000 0.05964  0.35369  0.81347  Biso   1.000  O
  O27      1.0000 0.05963  0.35374  0.81347  Biso   1.000  O
  H46      1.0000 0.21361  0.44420  0.91048  Biso   1.000  H
  H47      1.0000 0.15787  0.48952  0.84761  Biso   1.000  H
  H48      1.0000 0.20271  0.41532  0.84578  Biso   1.000  H
  H49      1.0000 0.15794  0.48947  0.84761  Biso   1.000  H
  H50      1.0000 0.15794  0.48952  0.84761  Biso   1.000  H
  H51      1.0000 0.99747  0.98439  0.44629  Biso   1.000  H
  H52      1.0000 0.99754  0.98439  0.44629  Biso   1.000  H
  H53      1.0000 0.99754  0.98444  0.44629  Biso   1.000  H
  O28      1.0000 0.03417  0.96321  0.36122  Biso   1.000  O
  O29      1.0000 0.03424  0.96321  0.36122  Biso   1.000  O
  H54      1.0000 0.93511  0.15740  0.39551  Biso   1.000  H
  C36      1.0000 0.07677  0.40039  0.74448  Biso   1.000  C
  C37      1.0000 0.07684  0.40039  0.74448  Biso   1.000  C
  C38      1.0000 0.07684  0.40044  0.74448  Biso   1.000  C
  C39      1.0000 0.06609  0.89078  0.39860  Biso   1.000  C
  C40      1.0000 0.06609  0.89083  0.39860  Biso   1.000  C
  C41      1.0000 0.06616  0.89083  0.39860  Biso   1.000  C
  C42      1.0000 0.13930  0.35731  0.70642  Biso   1.000  C
  O30      1.0000 0.00429  0.42649  0.70720  Biso   1.000  O
  H55      1.0000 0.10961  0.44272  0.74830  Biso   1.000  H
  C43      1.0000 0.13930  0.35726  0.70642  Biso   1.000  C
  O31      1.0000 0.00429  0.42654  0.70720  Biso   1.000  O
  O32      1.0000 0.00436  0.42649  0.70720  Biso   1.000  O
  C44      1.0000 0.98788  0.83820  0.41310  Biso   1.000  C
  C45      1.0000 0.98794  0.83820  0.41310  Biso   1.000  C
  C46      1.0000 0.13981  0.86751  0.35619  Biso   1.000  C
  H56      1.0000 0.08903  0.89210  0.44330  Biso   1.000  H
  O33      1.0000 0.16890  0.40681  0.64260  Biso   1.000  O
  C47      1.0000 0.08802  0.29378  0.69658  Biso   1.000  C
  H57      1.0000 0.19012  0.33819  0.73542  Biso   1.000  H
  C48      1.0000 0.08802  0.29384  0.69658  Biso   1.000  C
  C49      1.0000 0.95033  0.36868  0.69919  Biso   1.000  C
  C50      1.0000 0.95033  0.36873  0.69919  Biso   1.000  C
  C51      1.0000 0.91692  0.85329  0.46189  Biso   1.000  C
  H58      1.0000 0.96133  0.84120  0.36850  Biso   1.000  H
  O34      1.0000 0.01857  0.76402  0.44362  Biso   1.000  O
  O35      1.0000 0.01863  0.76397  0.44362  Biso   1.000  O
  O36      1.0000 0.01863  0.76402  0.44362  Biso   1.000  O
  C52      1.0000 0.16503  0.78713  0.39268  Biso   1.000  C
  O37      1.0000 0.21298  0.91409  0.34462  Biso   1.000  O
  H59      1.0000 0.11690  0.86991  0.31049  Biso   1.000  H
  C53      1.0000 0.16503  0.78708  0.39268  Biso   1.000  C
  O38      1.0000 0.21305  0.91409  0.34462  Biso   1.000  O
  H60      1.0000 0.13662  0.44000  0.60679  Biso   1.000  H
  O39      1.0000 0.14163  0.25478  0.65909  Biso   1.000  O
  C54      1.0000 0.00491  0.32248  0.66040  Biso   1.000  C
  H61      1.0000 0.07221  0.26021  0.74291  Biso   1.000  H
  O40      1.0000 0.14163  0.25483  0.65909  Biso   1.000  O
  C55      1.0000 0.00491  0.32253  0.66040  Biso   1.000  C
  C56      1.0000 0.87131  0.40668  0.65888  Biso   1.000  C
  H62      1.0000 0.93017  0.33739  0.74542  Biso   1.000  H
  H63      1.0000 0.93024  0.33739  0.74542  Biso   1.000  H
  C57      1.0000 0.87131  0.40673  0.65888  Biso   1.000  C
  H64      1.0000 0.87038  0.81809  0.46838  Biso   1.000  H
  H65      1.0000 0.89341  0.90182  0.44221  Biso   1.000  H
  H66      1.0000 0.94159  0.84961  0.50618  Biso   1.000  H
  H67      1.0000 0.87044  0.81809  0.46838  Biso   1.000  H
  H68      1.0000 0.89341  0.90177  0.44221  Biso   1.000  H
  H69      1.0000 0.87044  0.81814  0.46838  Biso   1.000  H
  H70      1.0000 0.94166  0.84961  0.50618  Biso   1.000  H
  C58      1.0000 0.08400  0.73958  0.40331  Biso   1.000  C
  C59      1.0000 0.08400  0.73963  0.40331  Biso   1.000  C
  O41      1.0000 0.20121  0.78132  0.45561  Biso   1.000  O
  H71      1.0000 0.20873  0.77069  0.36289  Biso   1.000  H
  O42      1.0000 0.20122  0.78127  0.45561  Biso   1.000  O
  H72      1.0000 0.20873  0.77074  0.36289  Biso   1.000  H
  H73      1.0000 0.21587  0.95020  0.30013  Biso   1.000  H
  H74      1.0000 0.21594  0.95021  0.30007  Biso   1.000  H
  H75      1.0000 0.21594  0.95020  0.30013  Biso   1.000  H
  H76      1.0000 0.15822  0.27668  0.61119  Biso   1.000  H
  H77      1.0000 0.15822  0.27673  0.61119  Biso   1.000  H
  O43      1.0000 0.94532  0.26192  0.66093  Biso   1.000  O
  O44      1.0000 0.94532  0.26186  0.66093  Biso   1.000  O
  H78      1.0000 0.01882  0.35201  0.61208  Biso   1.000  H
  H79      1.0000 0.83981  0.43457  0.68522  Biso   1.000  H
  H80      1.0000 0.83270  0.37063  0.65140  Biso   1.000  H
  H81      1.0000 0.89141  0.43903  0.61449  Biso   1.000  H
  H82      1.0000 0.83270  0.37057  0.65140  Biso   1.000  H
  H83      1.0000 0.89141  0.43897  0.61449  Biso   1.000  H
  H84      1.0000 0.83981  0.43462  0.68522  Biso   1.000  H
  O45      1.0000 0.05468  0.73808  0.33907  Biso   1.000  O
  H85      1.0000 0.10110  0.68952  0.42959  Biso   1.000  H
  O46      1.0000 0.05475  0.73808  0.33907  Biso   1.000  O
  H86      1.0000 0.10111  0.68947  0.42959  Biso   1.000  H
  O47      1.0000 0.05475  0.73814  0.33907  Biso   1.000  O
  H87      1.0000 0.24749  0.77669  0.48738  Biso   1.000  H
  H88      1.0000 0.24755  0.77669  0.48738  Biso   1.000  H
  C60      1.0000 0.91600  0.26042  0.59669  Biso   1.000  C
  C61      1.0000 0.91600  0.26037  0.59669  Biso   1.000  C
  C62      1.0000 0.99509  0.67752  0.33960  Biso   1.000  C
  C63      1.0000 0.99509  0.67747  0.33960  Biso   1.000  C
  C64      1.0000 0.99515  0.67752  0.33960  Biso   1.000  C
  C65      1.0000 0.83497  0.21287  0.60732  Biso   1.000  C
  O48      1.0000 0.98143  0.23598  0.55638  Biso   1.000  O
  H89      1.0000 0.89890  0.31048  0.57041  Biso   1.000  H
  C66      1.0000 0.83503  0.21287  0.60732  Biso   1.000  C
  C67      1.0000 0.83503  0.21292  0.60732  Biso   1.000  C
  O49      1.0000 0.98143  0.23603  0.55638  Biso   1.000  O
  H90      1.0000 0.89889  0.31053  0.57041  Biso   1.000  H
  H91      1.0000 0.89896  0.31048  0.57041  Biso   1.000  H
  C68      1.0000 0.91198  0.70622  0.30342  Biso   1.000  C
  H92      1.0000 0.98118  0.64799  0.38792  Biso   1.000  H
  C69      1.0000 0.91204  0.70616  0.30342  Biso   1.000  C
  H93      1.0000 0.98125  0.64799  0.38792  Biso   1.000  H
  C70      1.0000 0.91204  0.70622  0.30342  Biso   1.000  C
  C71      1.0000 0.04967  0.63132  0.30081  Biso   1.000  C
  C72      1.0000 0.04974  0.63127  0.30081  Biso   1.000  C
  C73      1.0000 0.04974  0.63132  0.30081  Biso   1.000  C
  O50      1.0000 0.79879  0.21868  0.54439  Biso   1.000  O
  C74      1.0000 0.86019  0.13249  0.64381  Biso   1.000  C
  H94      1.0000 0.79127  0.22931  0.63711  Biso   1.000  H
  H95      1.0000 0.79134  0.22931  0.63711  Biso   1.000  H
  O51      1.0000 0.79878  0.21873  0.54439  Biso   1.000  O
  O52      1.0000 0.79885  0.21873  0.54439  Biso   1.000  O
  C75      1.0000 0.86026  0.13249  0.64381  Biso   1.000  C
  C76      1.0000 0.01212  0.16180  0.58690  Biso   1.000  C
  C77      1.0000 0.86070  0.64269  0.29358  Biso   1.000  C
  O53      1.0000 0.85837  0.74522  0.34091  Biso   1.000  O
  H96      1.0000 0.92779  0.73979  0.25709  Biso   1.000  H
  O54      1.0000 0.85843  0.74517  0.34091  Biso   1.000  O
  C78      1.0000 0.86070  0.64274  0.29358  Biso   1.000  C
  O55      1.0000 0.85843  0.74522  0.34091  Biso   1.000  O
  C79      1.0000 0.86076  0.64269  0.29358  Biso   1.000  C
  H97      1.0000 0.92785  0.73979  0.25709  Biso   1.000  H
  O56      1.0000 0.99571  0.57351  0.29280  Biso   1.000  O
  C80      1.0000 0.12869  0.59332  0.34112  Biso   1.000  C
  H98      1.0000 0.06983  0.66261  0.25458  Biso   1.000  H
  C81      1.0000 0.12869  0.59327  0.34112  Biso   1.000  C
  C82      1.0000 0.12876  0.59332  0.34112  Biso   1.000  C
  H99      1.0000 0.75251  0.22331  0.51262  Biso   1.000  H
  O57      1.0000 0.78702  0.08591  0.65538  Biso   1.000  O
  C83      1.0000 0.93391  0.10922  0.60140  Biso   1.000  C
  H100     1.0000 0.88310  0.13009  0.68951  Biso   1.000  H
  C84      1.0000 0.93391  0.10917  0.60140  Biso   1.000  C
  C85      1.0000 0.08308  0.14671  0.53811  Biso   1.000  C
  H101     1.0000 0.03867  0.15880  0.63150  Biso   1.000  H
  C86      1.0000 0.08314  0.14671  0.53811  Biso   1.000  C
  H102     1.0000 0.03874  0.15880  0.63150  Biso   1.000  H
  C87      1.0000 0.92323  0.59961  0.25552  Biso   1.000  C
  O58      1.0000 0.83110  0.59319  0.35740  Biso   1.000  O
  H103     1.0000 0.80988  0.66181  0.26458  Biso   1.000  H
  C88      1.0000 0.92323  0.59956  0.25552  Biso   1.000  C
  H104     1.0000 0.80994  0.66181  0.26458  Biso   1.000  H
  O59      1.0000 0.83116  0.59319  0.35740  Biso   1.000  O
  H105     1.0000 0.84178  0.72332  0.38881  Biso   1.000  H
  H106     1.0000 0.84178  0.72327  0.38881  Biso   1.000  H
  H107     1.0000 0.84185  0.72332  0.38881  Biso   1.000  H
  H108     1.0000 0.16019  0.56543  0.31478  Biso   1.000  H
  H109     1.0000 0.16730  0.62937  0.34860  Biso   1.000  H
  H110     1.0000 0.10859  0.56097  0.38551  Biso   1.000  H
  H111     1.0000 0.16019  0.56538  0.31478  Biso   1.000  H
  H112     1.0000 0.16730  0.62943  0.34860  Biso   1.000  H
  H113     1.0000 0.10859  0.56103  0.38551  Biso   1.000  H
  H114     1.0000 0.16025  0.56543  0.31478  Biso   1.000  H
  H115     1.0000 0.10866  0.56103  0.38551  Biso   1.000  H
  H116     1.0000 0.78413  0.04980  0.69987  Biso   1.000  H
  O60      1.0000 0.96583  0.03679  0.63878  Biso   1.000  O
  H117     1.0000 0.91097  0.10790  0.55670  Biso   1.000  H
  H118     1.0000 0.91104  0.10790  0.55670  Biso   1.000  H
  H119     1.0000 0.12962  0.18191  0.53162  Biso   1.000  H
  H120     1.0000 0.10659  0.09818  0.55779  Biso   1.000  H
  H121     1.0000 0.05841  0.15039  0.49382  Biso   1.000  H
  H122     1.0000 0.10659  0.09823  0.55779  Biso   1.000  H
  H123     1.0000 0.10666  0.09823  0.55779  Biso   1.000  H
  O61      1.0000 0.94043  0.64631  0.18653  Biso   1.000  O
  H124     1.0000 0.89039  0.55728  0.25170  Biso   1.000  H
  O62      1.0000 0.94043  0.64626  0.18653  Biso   1.000  O
  H125     1.0000 0.89039  0.55734  0.25170  Biso   1.000  H
  H126     1.0000 0.89045  0.55728  0.25170  Biso   1.000  H
  H127     1.0000 0.86338  0.56000  0.39321  Biso   1.000  H
  H128     1.0000 0.86345  0.56000  0.39321  Biso   1.000  H
  C89      1.0000 0.97982  0.98758  0.60041  Biso   1.000  C
  C90      1.0000 0.97981  0.98763  0.60041  Biso   1.000  C
  C91      1.0000 0.97559  0.60870  0.13899  Biso   1.000  C
  C92      1.0000 0.97566  0.60870  0.13899  Biso   1.000  C
  O63      1.0000 0.89942  0.95318  0.59130  Biso   1.000  O
  O64      1.0000 0.89942  0.95324  0.59130  Biso   1.000  O
  C93      1.0000 0.05018  0.93208  0.63292  Biso   1.000  C
  C94      1.0000 0.05018  0.93213  0.63292  Biso   1.000  C
  C95      1.0000 0.05025  0.93208  0.63292  Biso   1.000  C
  H129     1.0000 0.00253  0.01561  0.55371  Biso   1.000  H
  C96      1.0000 0.90520  0.59838  0.09119  Biso   1.000  C
  C97      1.0000 0.90520  0.59843  0.09119  Biso   1.000  C
  C98      1.0000 0.04489  0.65378  0.09428  Biso   1.000  C
  H130     1.0000 0.00012  0.56100  0.16511  Biso   1.000  H
  C99      1.0000 0.04489  0.65383  0.09428  Biso   1.000  C
  C100     1.0000 0.04496  0.65383  0.09428  Biso   1.000  C
  C101     1.0000 0.86448  0.90328  0.65862  Biso   1.000  C
  C102     1.0000 0.86454  0.90328  0.65862  Biso   1.000  C
  C103     1.0000 0.86454  0.90333  0.65862  Biso   1.000  C
  O65      1.0000 0.07599  0.89351  0.58407  Biso   1.000  O
  C104     1.0000 0.01550  0.88047  0.69982  Biso   1.000  C
  H131     1.0000 0.10150  0.95790  0.64229  Biso   1.000  H
  C105     1.0000 0.01550  0.88052  0.69982  Biso   1.000  C
  O66      1.0000 0.07605  0.89351  0.58407  Biso   1.000  O
  O67      1.0000 0.94353  0.55668  0.04670  Biso   1.000  O
  C106     1.0000 0.82600  0.55898  0.12470  Biso   1.000  C
  H132     1.0000 0.88741  0.64678  0.06130  Biso   1.000  H
  O68      1.0000 0.94353  0.55673  0.04670  Biso   1.000  O
  C107     1.0000 0.82600  0.55903  0.12470  Biso   1.000  C
  H133     1.0000 0.88741  0.64683  0.06130  Biso   1.000  H
  C108     1.0000 0.08502  0.61288  0.04450  Biso   1.000  C
  O69      1.0000 0.11791  0.66920  0.13412  Biso   1.000  O
  H134     1.0000 0.01902  0.70031  0.06669  Biso   1.000  H
  C109     1.0000 0.08502  0.61294  0.04450  Biso   1.000  C
  C110     1.0000 0.93222  0.84489  0.69082  Biso   1.000  C
  C111     1.0000 0.78002  0.87530  0.64119  Biso   1.000  C
  H135     1.0000 0.85120  0.93220  0.69092  Biso   1.000  H
  H136     1.0000 0.06489  0.84260  0.60449  Biso   1.000  H
  H137     1.0000 0.06495  0.84260  0.60449  Biso   1.000  H
  O70      1.0000 0.08107  0.82560  0.72558  Biso   1.000  O
  H138     1.0000 0.00428  0.90769  0.73390  Biso   1.000  H
  O71      1.0000 0.08114  0.82560  0.72558  Biso   1.000  O
  H139     1.0000 0.00435  0.90769  0.73390  Biso   1.000  H
  C112     1.0000 0.01587  0.59340  0.00340  Biso   1.000  C
  C113     1.0000 0.01594  0.59340  0.00340  Biso   1.000  C
  H140     1.0000 0.78639  0.55580  0.08952  Biso   1.000  H
  H141     1.0000 0.84213  0.51048  0.15239  Biso   1.000  H
  H142     1.0000 0.79729  0.58468  0.15422  Biso   1.000  H
  H143     1.0000 0.84213  0.51053  0.15239  Biso   1.000  H
  H144     1.0000 0.79729  0.58473  0.15422  Biso   1.000  H
  H145     1.0000 0.78646  0.55580  0.08952  Biso   1.000  H
  H146     1.0000 0.79735  0.58468  0.15422  Biso   1.000  H
  O72      1.0000 0.13239  0.54812  0.08219  Biso   1.000  O
  H147     1.0000 0.12699  0.64569  0.01178  Biso   1.000  H
  H148     1.0000 0.12699  0.64575  0.01178  Biso   1.000  H
  O73      1.0000 0.13246  0.54812  0.08219  Biso   1.000  O
  H149     1.0000 0.12706  0.64569  0.01178  Biso   1.000  H
  H150     1.0000 0.10179  0.71669  0.13669  Biso   1.000  H
  H151     1.0000 0.10178  0.71674  0.13669  Biso   1.000  H
  H152     1.0000 0.10185  0.71669  0.13669  Biso   1.000  H
  O74      1.0000 0.89562  0.80221  0.75751  Biso   1.000  O
  H153     1.0000 0.94367  0.81338  0.66061  Biso   1.000  H
  H154     1.0000 0.94373  0.81338  0.66061  Biso   1.000  H
  H155     1.0000 0.94373  0.81343  0.66061  Biso   1.000  H
  H156     1.0000 0.74133  0.91588  0.62109  Biso   1.000  H
  H157     1.0000 0.79190  0.84828  0.60831  Biso   1.000  H
  H158     1.0000 0.75231  0.84377  0.68312  Biso   1.000  H
  H159     1.0000 0.74132  0.91594  0.62109  Biso   1.000  H
  H160     1.0000 0.79190  0.84834  0.60831  Biso   1.000  H
  H161     1.0000 0.75230  0.84382  0.68312  Biso   1.000  H
  H162     1.0000 0.09841  0.82439  0.77102  Biso   1.000  H
  O75      1.0000 0.98881  0.65988  0.95377  Biso   1.000  O
  O76      1.0000 0.98881  0.65993  0.95377  Biso   1.000  O
  H163     1.0000 0.04188  0.56092  0.97801  Biso   1.000  H
  H164     1.0000 0.04195  0.56086  0.97801  Biso   1.000  H
  H165     1.0000 0.04194  0.56092  0.97801  Biso   1.000  H
  H166     1.0000 0.18199  0.52630  0.06518  Biso   1.000  H
  H167     1.0000 0.18199  0.52635  0.06518  Biso   1.000  H
  H168     1.0000 0.18206  0.52630  0.06518  Biso   1.000  H
  C114     1.0000 0.87020  0.72781  0.76290  Biso   1.000  C
  C115     1.0000 0.93601  0.64961  0.89739  Biso   1.000  C
  C116     1.0000 0.80682  0.70140  0.82719  Biso   1.000  C
  O77      1.0000 0.94411  0.68209  0.77002  Biso   1.000  O
  H169     1.0000 0.83949  0.72762  0.72081  Biso   1.000  H
  H170     1.0000 0.83949  0.72757  0.72081  Biso   1.000  H
  H171     1.0000 0.83956  0.72762  0.72081  Biso   1.000  H
  C117     1.0000 0.85321  0.69633  0.89399  Biso   1.000  C
  C118     1.0000 0.99339  0.67548  0.83080  Biso   1.000  C
  H172     1.0000 0.92071  0.59781  0.90682  Biso   1.000  H
  C119     1.0000 0.85321  0.69628  0.89399  Biso   1.000  C
  H173     1.0000 0.92072  0.59776  0.90682  Biso   1.000  H
  C120     1.0000 0.99338  0.67553  0.83080  Biso   1.000  C
  C121     1.0000 0.99345  0.67553  0.83080  Biso   1.000  C
  O78      1.0000 0.77701  0.63049  0.82928  Biso   1.000  O
  H174     1.0000 0.75621  0.73521  0.82248  Biso   1.000  H
  O79      1.0000 0.77701  0.63055  0.82928  Biso   1.000  O
  O80      1.0000 0.79331  0.66992  0.95268  Biso   1.000  O
  H175     1.0000 0.87110  0.74589  0.89242  Biso   1.000  H
  C122     1.0000 0.06729  0.62378  0.82761  Biso   1.000  C
  H176     1.0000 0.01807  0.72349  0.82782  Biso   1.000  H
  H177     1.0000 0.01813  0.72349  0.82782  Biso   1.000  H
  C123     1.0000 0.06729  0.62383  0.82761  Biso   1.000  C
  C124     1.0000 0.06735  0.62378  0.82761  Biso   1.000  C
  H178     1.0000 0.74827  0.63270  0.78740  Biso   1.000  H
  H179     1.0000 0.74834  0.63270  0.78740  Biso   1.000  H
  H180     1.0000 0.73722  0.66121  0.93718  Biso   1.000  H
  H181     1.0000 0.10132  0.64281  0.78458  Biso   1.000  H
  H182     1.0000 0.10453  0.61849  0.86640  Biso   1.000  H
  H183     1.0000 0.04363  0.57690  0.82949  Biso   1.000  H
  O81      1.0000 0.20669  0.33008  0.04732  Biso   1.000  O
  C125     1.0000 0.14679  0.30367  0.10601  Biso   1.000  C
  C126     1.0000 0.14679  0.30372  0.10601  Biso   1.000  C
  C127     1.0000 0.14685  0.30372  0.10601  Biso   1.000  C
  H184     1.0000 0.26278  0.33879  0.06282  Biso   1.000  H
  H185     1.0000 0.26285  0.33879  0.06282  Biso   1.000  H
  C128     1.0000 0.19325  0.29860  0.17281  Biso   1.000  C
  C129     1.0000 0.19318  0.29860  0.17281  Biso   1.000  C
  C130     1.0000 0.06399  0.35039  0.10261  Biso   1.000  C
  H186     1.0000 0.12890  0.25411  0.10758  Biso   1.000  H
  O82      1.0000 0.20668  0.33013  0.04732  Biso   1.000  O
  O83      1.0000 0.20675  0.33008  0.04732  Biso   1.000  O
  C131     1.0000 0.06406  0.35039  0.10261  Biso   1.000  C
  C132     1.0000 0.12980  0.27219  0.23710  Biso   1.000  C
  O84      1.0000 0.22299  0.36951  0.17072  Biso   1.000  O
  H187     1.0000 0.24379  0.26479  0.17752  Biso   1.000  H
  C133     1.0000 0.12980  0.27224  0.23710  Biso   1.000  C
  O85      1.0000 0.22306  0.36951  0.17072  Biso   1.000  O
  H188     1.0000 0.24386  0.26479  0.17752  Biso   1.000  H
  C134     1.0000 0.00661  0.32452  0.16920  Biso   1.000  C
  C135     1.0000 0.00662  0.32447  0.16920  Biso   1.000  C
  H189     1.0000 0.07929  0.40219  0.09318  Biso   1.000  H
  O86      1.0000 0.01119  0.34012  0.04623  Biso   1.000  O
  O87      1.0000 0.01119  0.34008  0.04617  Biso   1.000  O
  H190     1.0000 0.07928  0.40224  0.09318  Biso   1.000  H
  O88      1.0000 0.01126  0.34013  0.04617  Biso   1.000  O
  H191     1.0000 0.07935  0.40219  0.09318  Biso   1.000  H
  O89      1.0000 0.10438  0.19779  0.24249  Biso   1.000  O
  O90      1.0000 0.05589  0.31791  0.22998  Biso   1.000  O
  H192     1.0000 0.16051  0.27238  0.27919  Biso   1.000  H
  H193     1.0000 0.16051  0.27243  0.27919  Biso   1.000  H
  O91      1.0000 0.10438  0.19784  0.24249  Biso   1.000  O
  O92      1.0000 0.10445  0.19779  0.24249  Biso   1.000  O
  O93      1.0000 0.05596  0.31791  0.22998  Biso   1.000  O
  H194     1.0000 0.25173  0.36730  0.21260  Biso   1.000  H
  C136     1.0000 0.93271  0.37622  0.17239  Biso   1.000  C
  H195     1.0000 0.98193  0.27651  0.17218  Biso   1.000  H
  C137     1.0000 0.93271  0.37617  0.17239  Biso   1.000  C
  C138     1.0000 0.98413  0.40660  0.99660  Biso   1.000  C
  C139     1.0000 0.06784  0.15511  0.30918  Biso   1.000  C
  C140     1.0000 0.06778  0.15511  0.30918  Biso   1.000  C
  H196     1.0000 0.89868  0.35719  0.21542  Biso   1.000  H
  H197     1.0000 0.89547  0.38151  0.13360  Biso   1.000  H
  H198     1.0000 0.95637  0.42310  0.17051  Biso   1.000  H
  H199     1.0000 0.89554  0.38151  0.13360  Biso   1.000  H
  H200     1.0000 0.95644  0.42310  0.17051  Biso   1.000  H
  H201     1.0000 0.89875  0.35719  0.21542  Biso   1.000  H
  C141     1.0000 0.91498  0.38712  0.95550  Biso   1.000  C
  C142     1.0000 0.91505  0.38706  0.95550  Biso   1.000  C
  C143     1.0000 0.91505  0.38712  0.95550  Biso   1.000  C
  H202     1.0000 0.95812  0.43908  0.02199  Biso   1.000  H
  H203     1.0000 0.95812  0.43914  0.02199  Biso   1.000  H
  O94      1.0000 0.05647  0.44332  0.95330  Biso   1.000  O
  O95      1.0000 0.05654  0.44327  0.95330  Biso   1.000  O
  O96      1.0000 0.05653  0.44332  0.95330  Biso   1.000  O
  C144     1.0000 0.13552  0.09672  0.34138  Biso   1.000  C
  H204     1.0000 0.05633  0.18662  0.33939  Biso   1.000  H
  H205     1.0000 0.05633  0.18657  0.33939  Biso   1.000  H
  C145     1.0000 0.98450  0.11953  0.30018  Biso   1.000  C
  C146     1.0000 0.98450  0.11948  0.30018  Biso   1.000  C
  C147     1.0000 0.98456  0.11953  0.30018  Biso   1.000  C
  O97      1.0000 0.86761  0.45188  0.91781  Biso   1.000  O
  C148     1.0000 0.95511  0.34622  0.90572  Biso   1.000  C
  H206     1.0000 0.87301  0.35431  0.98822  Biso   1.000  H
  C149     1.0000 0.95511  0.34617  0.90572  Biso   1.000  C
  O98      1.0000 0.86761  0.45193  0.91781  Biso   1.000  O
  C150     1.0000 0.09480  0.40162  0.90881  Biso   1.000  C
  C151     1.0000 0.09480  0.40157  0.90881  Biso   1.000  C
  O99      1.0000 0.10058  0.04682  0.40870  Biso   1.000  O
  C152     1.0000 0.21998  0.12470  0.35881  Biso   1.000  C
  H207     1.0000 0.14880  0.06780  0.30908  Biso   1.000  H
  H208     1.0000 0.14880  0.06785  0.30908  Biso   1.000  H
  O100     1.0000 0.10065  0.04682  0.40870  Biso   1.000  O
  C153     1.0000 0.22005  0.12470  0.35881  Biso   1.000  C
  C154     1.0000 0.94982  0.06792  0.36708  Biso   1.000  C
  O101     1.0000 0.91893  0.17440  0.27442  Biso   1.000  O
  H209     1.0000 0.99572  0.09231  0.26610  Biso   1.000  H
  H210     1.0000 0.81801  0.47370  0.93482  Biso   1.000  H
  O102     1.0000 0.88209  0.33080  0.86588  Biso   1.000  O
  H211     1.0000 0.98098  0.29969  0.93331  Biso   1.000  H
  H212     1.0000 0.98104  0.29969  0.93331  Biso   1.000  H
  O103     1.0000 0.88215  0.33080  0.86588  Biso   1.000  O
  C155     1.0000 0.02441  0.39130  0.86101  Biso   1.000  C
  C156     1.0000 0.17400  0.44102  0.87530  Biso   1.000  C
  H213     1.0000 0.11259  0.35322  0.93870  Biso   1.000  H
  C157     1.0000 0.17400  0.44097  0.87530  Biso   1.000  C
  H214     1.0000 0.11259  0.35317  0.93870  Biso   1.000  H
  H215     1.0000 0.11266  0.35322  0.93870  Biso   1.000  H
  C158     1.0000 0.02018  0.01242  0.39959  Biso   1.000  C
  C159     1.0000 0.02025  0.01242  0.39959  Biso   1.000  C
  H216     1.0000 0.20810  0.15172  0.39169  Biso   1.000  H
  H217     1.0000 0.24769  0.15623  0.31688  Biso   1.000  H
  H218     1.0000 0.25874  0.08412  0.37891  Biso   1.000  H
  H219     1.0000 0.25867  0.08412  0.37891  Biso   1.000  H
  H220     1.0000 0.25874  0.08406  0.37891  Biso   1.000  H
  H221     1.0000 0.24770  0.15618  0.31688  Biso   1.000  H
  H222     1.0000 0.24776  0.15623  0.31688  Biso   1.000  H
  O104     1.0000 0.92401  0.10649  0.41593  Biso   1.000  O
  H223     1.0000 0.89850  0.04210  0.35771  Biso   1.000  H
  H224     1.0000 0.90159  0.17561  0.22898  Biso   1.000  H
  H225     1.0000 0.90165  0.17561  0.22898  Biso   1.000  H
  H226     1.0000 0.89821  0.28331  0.86331  Biso   1.000  H
  H227     1.0000 0.99988  0.43900  0.83489  Biso   1.000  H
  H228     1.0000 0.99995  0.43900  0.83489  Biso   1.000  H
  O105     1.0000 0.05957  0.35369  0.81347  Biso   1.000  O
  O106     1.0000 0.05964  0.35369  0.81347  Biso   1.000  O
  O107     1.0000 0.05963  0.35374  0.81347  Biso   1.000  O
  H229     1.0000 0.21361  0.44420  0.91048  Biso   1.000  H
  H230     1.0000 0.15787  0.48952  0.84761  Biso   1.000  H
  H231     1.0000 0.20271  0.41532  0.84578  Biso   1.000  H
  H232     1.0000 0.15794  0.48947  0.84761  Biso   1.000  H
  H233     1.0000 0.15794  0.48952  0.84761  Biso   1.000  H
  H234     1.0000 0.99747  0.98439  0.44629  Biso   1.000  H
  H235     1.0000 0.99754  0.98439  0.44629  Biso   1.000  H
  H236     1.0000 0.99754  0.98444  0.44629  Biso   1.000  H
  O108     1.0000 0.03417  0.96321  0.36122  Biso   1.000  O
  O109     1.0000 0.03424  0.96321  0.36122  Biso   1.000  O
  H237     1.0000 0.93511  0.15740  0.39551  Biso   1.000  H
  C160     1.0000 0.07677  0.40039  0.74448  Biso   1.000  C
  C161     1.0000 0.07684  0.40039  0.74448  Biso   1.000  C
  C162     1.0000 0.07684  0.40044  0.74448  Biso   1.000  C
  C163     1.0000 0.06609  0.89078  0.39860  Biso   1.000  C
  C164     1.0000 0.06609  0.89083  0.39860  Biso   1.000  C
  C165     1.0000 0.06616  0.89083  0.39860  Biso   1.000  C
  C166     1.0000 0.13930  0.35731  0.70642  Biso   1.000  C
  O110     1.0000 0.00429  0.42649  0.70720  Biso   1.000  O
  H238     1.0000 0.10961  0.44272  0.74830  Biso   1.000  H
  C167     1.0000 0.13930  0.35726  0.70642  Biso   1.000  C
  O111     1.0000 0.00429  0.42654  0.70720  Biso   1.000  O
  O112     1.0000 0.00436  0.42649  0.70720  Biso   1.000  O
  C168     1.0000 0.98788  0.83820  0.41310  Biso   1.000  C
  C169     1.0000 0.98794  0.83820  0.41310  Biso   1.000  C
  C170     1.0000 0.13981  0.86751  0.35619  Biso   1.000  C
  H239     1.0000 0.08903  0.89210  0.44330  Biso   1.000  H
  O113     1.0000 0.16890  0.40681  0.64260  Biso   1.000  O
  C171     1.0000 0.08802  0.29378  0.69658  Biso   1.000  C
  H240     1.0000 0.19012  0.33819  0.73542  Biso   1.000  H
  C172     1.0000 0.08802  0.29384  0.69658  Biso   1.000  C
  C173     1.0000 0.95033  0.36868  0.69919  Biso   1.000  C
  C174     1.0000 0.95033  0.36873  0.69919  Biso   1.000  C
  C175     1.0000 0.91692  0.85329  0.46189  Biso   1.000  C
  H241     1.0000 0.96133  0.84120  0.36850  Biso   1.000  H
  O114     1.0000 0.01857  0.76402  0.44362  Biso   1.000  O
  O115     1.0000 0.01863  0.76397  0.44362  Biso   1.000  O
  O116     1.0000 0.01863  0.76402  0.44362  Biso   1.000  O
  C176     1.0000 0.16503  0.78713  0.39268  Biso   1.000  C
  O117     1.0000 0.21298  0.91409  0.34462  Biso   1.000  O
  H242     1.0000 0.11690  0.86991  0.31049  Biso   1.000  H
  C177     1.0000 0.16503  0.78708  0.39268  Biso   1.000  C
  O118     1.0000 0.21305  0.91409  0.34462  Biso   1.000  O
  H243     1.0000 0.13662  0.44000  0.60679  Biso   1.000  H
  O119     1.0000 0.14163  0.25478  0.65909  Biso   1.000  O
  C178     1.0000 0.00491  0.32248  0.66040  Biso   1.000  C
  H244     1.0000 0.07221  0.26021  0.74291  Biso   1.000  H
  O120     1.0000 0.14163  0.25483  0.65909  Biso   1.000  O
  C179     1.0000 0.00491  0.32253  0.66040  Biso   1.000  C
  C180     1.0000 0.87131  0.40668  0.65888  Biso   1.000  C
  H245     1.0000 0.93017  0.33739  0.74542  Biso   1.000  H
  H246     1.0000 0.93024  0.33739  0.74542  Biso   1.000  H
  C181     1.0000 0.87131  0.40673  0.65888  Biso   1.000  C
  H247     1.0000 0.87038  0.81809  0.46838  Biso   1.000  H
  H248     1.0000 0.89341  0.90182  0.44221  Biso   1.000  H
  H249     1.0000 0.94159  0.84961  0.50618  Biso   1.000  H
  H250     1.0000 0.87044  0.81809  0.46838  Biso   1.000  H
  H251     1.0000 0.89341  0.90177  0.44221  Biso   1.000  H
  H252     1.0000 0.87044  0.81814  0.46838  Biso   1.000  H
  H253     1.0000 0.94166  0.84961  0.50618  Biso   1.000  H
  C182     1.0000 0.08400  0.73958  0.40331  Biso   1.000  C
  C183     1.0000 0.08400  0.73963  0.40331  Biso   1.000  C
  O121     1.0000 0.20121  0.78132  0.45561  Biso   1.000  O
  H254     1.0000 0.20873  0.77069  0.36289  Biso   1.000  H
  O122     1.0000 0.20122  0.78127  0.45561  Biso   1.000  O
  H255     1.0000 0.20873  0.77074  0.36289  Biso   1.000  H
  H256     1.0000 0.21587  0.95020  0.30013  Biso   1.000  H
  H257     1.0000 0.21594  0.95021  0.30007  Biso   1.000  H
  H258     1.0000 0.21594  0.95020  0.30013  Biso   1.000  H
  H259     1.0000 0.15822  0.27668  0.61119  Biso   1.000  H
  H260     1.0000 0.15822  0.27673  0.61119  Biso   1.000  H
  O123     1.0000 0.94532  0.26192  0.66093  Biso   1.000  O
  O124     1.0000 0.94532  0.26186  0.66093  Biso   1.000  O
  H261     1.0000 0.01882  0.35201  0.61208  Biso   1.000  H
  H262     1.0000 0.83981  0.43457  0.68522  Biso   1.000  H
  H263     1.0000 0.83270  0.37063  0.65140  Biso   1.000  H
  H264     1.0000 0.89141  0.43903  0.61449  Biso   1.000  H
  H265     1.0000 0.83270  0.37057  0.65140  Biso   1.000  H
  H266     1.0000 0.89141  0.43897  0.61449  Biso   1.000  H
  H267     1.0000 0.83981  0.43462  0.68522  Biso   1.000  H
  O125     1.0000 0.05468  0.73808  0.33907  Biso   1.000  O
  H268     1.0000 0.10110  0.68952  0.42959  Biso   1.000  H
  O126     1.0000 0.05475  0.73808  0.33907  Biso   1.000  O
  H269     1.0000 0.10111  0.68947  0.42959  Biso   1.000  H
  O127     1.0000 0.05475  0.73814  0.33907  Biso   1.000  O
  H270     1.0000 0.24749  0.77669  0.48738  Biso   1.000  H
  H271     1.0000 0.24755  0.77669  0.48738  Biso   1.000  H
  C184     1.0000 0.91600  0.26042  0.59669  Biso   1.000  C
  C185     1.0000 0.91600  0.26037  0.59669  Biso   1.000  C
  C186     1.0000 0.99509  0.67752  0.33960  Biso   1.000  C
  C187     1.0000 0.99509  0.67747  0.33960  Biso   1.000  C
  C188     1.0000 0.99515  0.67752  0.33960  Biso   1.000  C
  C189     1.0000 0.83497  0.21287  0.60732  Biso   1.000  C
  O128     1.0000 0.98143  0.23598  0.55638  Biso   1.000  O
  H272     1.0000 0.89890  0.31048  0.57041  Biso   1.000  H
  C190     1.0000 0.83503  0.21287  0.60732  Biso   1.000  C
  C191     1.0000 0.83503  0.21292  0.60732  Biso   1.000  C
  O129     1.0000 0.98143  0.23603  0.55638  Biso   1.000  O
  H273     1.0000 0.89889  0.31053  0.57041  Biso   1.000  H
  H274     1.0000 0.89896  0.31048  0.57041  Biso   1.000  H
  C192     1.0000 0.91198  0.70622  0.30342  Biso   1.000  C
  H275     1.0000 0.98118  0.64799  0.38792  Biso   1.000  H
  C193     1.0000 0.91204  0.70616  0.30342  Biso   1.000  C
  H276     1.0000 0.98125  0.64799  0.38792  Biso   1.000  H
  C194     1.0000 0.91204  0.70622  0.30342  Biso   1.000  C
  C195     1.0000 0.04967  0.63132  0.30081  Biso   1.000  C
  C196     1.0000 0.04974  0.63127  0.30081  Biso   1.000  C
  C197     1.0000 0.04974  0.63132  0.30081  Biso   1.000  C
  O130     1.0000 0.79879  0.21868  0.54439  Biso   1.000  O
  C198     1.0000 0.86019  0.13249  0.64381  Biso   1.000  C
  H277     1.0000 0.79127  0.22931  0.63711  Biso   1.000  H
  H278     1.0000 0.79134  0.22931  0.63711  Biso   1.000  H
  O131     1.0000 0.79878  0.21873  0.54439  Biso   1.000  O
  O132     1.0000 0.79885  0.21873  0.54439  Biso   1.000  O
  C199     1.0000 0.86026  0.13249  0.64381  Biso   1.000  C
  C200     1.0000 0.01212  0.16180  0.58690  Biso   1.000  C
  C201     1.0000 0.86070  0.64269  0.29358  Biso   1.000  C
  O133     1.0000 0.85837  0.74522  0.34091  Biso   1.000  O
  H279     1.0000 0.92779  0.73979  0.25709  Biso   1.000  H
  O134     1.0000 0.85843  0.74517  0.34091  Biso   1.000  O
  C202     1.0000 0.86070  0.64274  0.29358  Biso   1.000  C
  O135     1.0000 0.85843  0.74522  0.34091  Biso   1.000  O
  C203     1.0000 0.86076  0.64269  0.29358  Biso   1.000  C
  H280     1.0000 0.92785  0.73979  0.25709  Biso   1.000  H
  O136     1.0000 0.99571  0.57351  0.29280  Biso   1.000  O
  C204     1.0000 0.12869  0.59332  0.34112  Biso   1.000  C
  H281     1.0000 0.06983  0.66261  0.25458  Biso   1.000  H
  C205     1.0000 0.12869  0.59327  0.34112  Biso   1.000  C
  C206     1.0000 0.12876  0.59332  0.34112  Biso   1.000  C
  H282     1.0000 0.75251  0.22331  0.51262  Biso   1.000  H
  O137     1.0000 0.78702  0.08591  0.65538  Biso   1.000  O
  C207     1.0000 0.93391  0.10922  0.60140  Biso   1.000  C
  H283     1.0000 0.88310  0.13009  0.68951  Biso   1.000  H
  C208     1.0000 0.93391  0.10917  0.60140  Biso   1.000  C
  C209     1.0000 0.08308  0.14671  0.53811  Biso   1.000  C
  H284     1.0000 0.03867  0.15880  0.63150  Biso   1.000  H
  C210     1.0000 0.08314  0.14671  0.53811  Biso   1.000  C
  H285     1.0000 0.03874  0.15880  0.63150  Biso   1.000  H
  C211     1.0000 0.92323  0.59961  0.25552  Biso   1.000  C
  O138     1.0000 0.83110  0.59319  0.35740  Biso   1.000  O
  H286     1.0000 0.80988  0.66181  0.26458  Biso   1.000  H
  C212     1.0000 0.92323  0.59956  0.25552  Biso   1.000  C
  H287     1.0000 0.80994  0.66181  0.26458  Biso   1.000  H
  O139     1.0000 0.83116  0.59319  0.35740  Biso   1.000  O
  H288     1.0000 0.84178  0.72332  0.38881  Biso   1.000  H
  H289     1.0000 0.84178  0.72327  0.38881  Biso   1.000  H
  H290     1.0000 0.84185  0.72332  0.38881  Biso   1.000  H
  H291     1.0000 0.16019  0.56543  0.31478  Biso   1.000  H
  H292     1.0000 0.16730  0.62937  0.34860  Biso   1.000  H
  H293     1.0000 0.10859  0.56097  0.38551  Biso   1.000  H
  H294     1.0000 0.16019  0.56538  0.31478  Biso   1.000  H
  H295     1.0000 0.16730  0.62943  0.34860  Biso   1.000  H
  H296     1.0000 0.10859  0.56103  0.38551  Biso   1.000  H
  H297     1.0000 0.16025  0.56543  0.31478  Biso   1.000  H
  H298     1.0000 0.10866  0.56103  0.38551  Biso   1.000  H
  H299     1.0000 0.78413  0.04980  0.69987  Biso   1.000  H
  O140     1.0000 0.96583  0.03679  0.63878  Biso   1.000  O
  H300     1.0000 0.91097  0.10790  0.55670  Biso   1.000  H
  H301     1.0000 0.91104  0.10790  0.55670  Biso   1.000  H
  H302     1.0000 0.12962  0.18191  0.53162  Biso   1.000  H
  H303     1.0000 0.10659  0.09818  0.55779  Biso   1.000  H
  H304     1.0000 0.05841  0.15039  0.49382  Biso   1.000  H
  H305     1.0000 0.10659  0.09823  0.55779  Biso   1.000  H
  H306     1.0000 0.10666  0.09823  0.55779  Biso   1.000  H
  O141     1.0000 0.94043  0.64631  0.18653  Biso   1.000  O
  H307     1.0000 0.89039  0.55728  0.25170  Biso   1.000  H
  O142     1.0000 0.94043  0.64626  0.18653  Biso   1.000  O
  H308     1.0000 0.89039  0.55734  0.25170  Biso   1.000  H
  H309     1.0000 0.89045  0.55728  0.25170  Biso   1.000  H
  H310     1.0000 0.86338  0.56000  0.39321  Biso   1.000  H
  H311     1.0000 0.86345  0.56000  0.39321  Biso   1.000  H
  C213     1.0000 0.97982  0.98758  0.60041  Biso   1.000  C
  C214     1.0000 0.97981  0.98763  0.60041  Biso   1.000  C
  C215     1.0000 0.97559  0.60870  0.13899  Biso   1.000  C
  C216     1.0000 0.97566  0.60870  0.13899  Biso   1.000  C
  O143     1.0000 0.89942  0.95318  0.59130  Biso   1.000  O
  O144     1.0000 0.89942  0.95324  0.59130  Biso   1.000  O
  C217     1.0000 0.05018  0.93208  0.63292  Biso   1.000  C
  C218     1.0000 0.05018  0.93213  0.63292  Biso   1.000  C
  C219     1.0000 0.05025  0.93208  0.63292  Biso   1.000  C
  H312     1.0000 0.00253  0.01561  0.55371  Biso   1.000  H
  C220     1.0000 0.90520  0.59838  0.09119  Biso   1.000  C
  C221     1.0000 0.90520  0.59843  0.09119  Biso   1.000  C
  C222     1.0000 0.04489  0.65378  0.09428  Biso   1.000  C
  H313     1.0000 0.00012  0.56100  0.16511  Biso   1.000  H
  C223     1.0000 0.04489  0.65383  0.09428  Biso   1.000  C
  C224     1.0000 0.04496  0.65383  0.09428  Biso   1.000  C
  C225     1.0000 0.86448  0.90328  0.65862  Biso   1.000  C
  C226     1.0000 0.86454  0.90328  0.65862  Biso   1.000  C
  C227     1.0000 0.86454  0.90333  0.65862  Biso   1.000  C
  O145     1.0000 0.07599  0.89351  0.58407  Biso   1.000  O
  C228     1.0000 0.01550  0.88047  0.69982  Biso   1.000  C
  H314     1.0000 0.10150  0.95790  0.64229  Biso   1.000  H
  C229     1.0000 0.01550  0.88052  0.69982  Biso   1.000  C
  O146     1.0000 0.07605  0.89351  0.58407  Biso   1.000  O
  O147     1.0000 0.94353  0.55668  0.04670  Biso   1.000  O
  C230     1.0000 0.82600  0.55898  0.12470  Biso   1.000  C
  H315     1.0000 0.88741  0.64678  0.06130  Biso   1.000  H
  O148     1.0000 0.94353  0.55673  0.04670  Biso   1.000  O
  C231     1.0000 0.82600  0.55903  0.12470  Biso   1.000  C
  H316     1.0000 0.88741  0.64683  0.06130  Biso   1.000  H
  C232     1.0000 0.08502  0.61288  0.04450  Biso   1.000  C
  O149     1.0000 0.11791  0.66920  0.13412  Biso   1.000  O
  H317     1.0000 0.01902  0.70031  0.06669  Biso   1.000  H
  C233     1.0000 0.08502  0.61294  0.04450  Biso   1.000  C
  C234     1.0000 0.93222  0.84489  0.69082  Biso   1.000  C
  C235     1.0000 0.78002  0.87530  0.64119  Biso   1.000  C
  H318     1.0000 0.85120  0.93220  0.69092  Biso   1.000  H
  H319     1.0000 0.06489  0.84260  0.60449  Biso   1.000  H
  H320     1.0000 0.06495  0.84260  0.60449  Biso   1.000  H
  O150     1.0000 0.08107  0.82560  0.72558  Biso   1.000  O
  H321     1.0000 0.00428  0.90769  0.73390  Biso   1.000  H
  O151     1.0000 0.08114  0.82560  0.72558  Biso   1.000  O
  H322     1.0000 0.00435  0.90769  0.73390  Biso   1.000  H
  C236     1.0000 0.01587  0.59340  0.00340  Biso   1.000  C
  C237     1.0000 0.01594  0.59340  0.00340  Biso   1.000  C
  H323     1.0000 0.78639  0.55580  0.08952  Biso   1.000  H
  H324     1.0000 0.84213  0.51048  0.15239  Biso   1.000  H
  H325     1.0000 0.79729  0.58468  0.15422  Biso   1.000  H
  H326     1.0000 0.84213  0.51053  0.15239  Biso   1.000  H
  H327     1.0000 0.79729  0.58473  0.15422  Biso   1.000  H
  H328     1.0000 0.78646  0.55580  0.08952  Biso   1.000  H
  H329     1.0000 0.79735  0.58468  0.15422  Biso   1.000  H
  O152     1.0000 0.13239  0.54812  0.08219  Biso   1.000  O
  H330     1.0000 0.12699  0.64569  0.01178  Biso   1.000  H
  H331     1.0000 0.12699  0.64575  0.01178  Biso   1.000  H
  O153     1.0000 0.13246  0.54812  0.08219  Biso   1.000  O
  H332     1.0000 0.12706  0.64569  0.01178  Biso   1.000  H
  H333     1.0000 0.10179  0.71669  0.13669  Biso   1.000  H
  H334     1.0000 0.10178  0.71674  0.13669  Biso   1.000  H
  H335     1.0000 0.10185  0.71669  0.13669  Biso   1.000  H
  O154     1.0000 0.89562  0.80221  0.75751  Biso   1.000  O
  H336     1.0000 0.94367  0.81338  0.66061  Biso   1.000  H
  H337     1.0000 0.94373  0.81338  0.66061  Biso   1.000  H
  H338     1.0000 0.94373  0.81343  0.66061  Biso   1.000  H
  H339     1.0000 0.74133  0.91588  0.62109  Biso   1.000  H
  H340     1.0000 0.79190  0.84828  0.60831  Biso   1.000  H
  H341     1.0000 0.75231  0.84377  0.68312  Biso   1.000  H
  H342     1.0000 0.74132  0.91594  0.62109  Biso   1.000  H
  H343     1.0000 0.79190  0.84834  0.60831  Biso   1.000  H
  H344     1.0000 0.75230  0.84382  0.68312  Biso   1.000  H
  H345     1.0000 0.09841  0.82439  0.77102  Biso   1.000  H
  O155     1.0000 0.98881  0.65988  0.95377  Biso   1.000  O
  O156     1.0000 0.98881  0.65993  0.95377  Biso   1.000  O
  H346     1.0000 0.04188  0.56092  0.97801  Biso   1.000  H
  H347     1.0000 0.04195  0.56086  0.97801  Biso   1.000  H
  H348     1.0000 0.04194  0.56092  0.97801  Biso   1.000  H
  H349     1.0000 0.18199  0.52630  0.06518  Biso   1.000  H
  H350     1.0000 0.18199  0.52635  0.06518  Biso   1.000  H
  H351     1.0000 0.18206  0.52630  0.06518  Biso   1.000  H
  C238     1.0000 0.87020  0.72781  0.76290  Biso   1.000  C
  C239     1.0000 0.93601  0.64961  0.89739  Biso   1.000  C
  C240     1.0000 0.80682  0.70140  0.82719  Biso   1.000  C
  O157     1.0000 0.94411  0.68209  0.77002  Biso   1.000  O
  H352     1.0000 0.83949  0.72762  0.72081  Biso   1.000  H
  H353     1.0000 0.83949  0.72757  0.72081  Biso   1.000  H
  H354     1.0000 0.83956  0.72762  0.72081  Biso   1.000  H
  C241     1.0000 0.85321  0.69633  0.89399  Biso   1.000  C
  C242     1.0000 0.99339  0.67548  0.83080  Biso   1.000  C
  H355     1.0000 0.92071  0.59781  0.90682  Biso   1.000  H
  C243     1.0000 0.85321  0.69628  0.89399  Biso   1.000  C
  H356     1.0000 0.92072  0.59776  0.90682  Biso   1.000  H
  C244     1.0000 0.99338  0.67553  0.83080  Biso   1.000  C
  C245     1.0000 0.99345  0.67553  0.83080  Biso   1.000  C
  O158     1.0000 0.77701  0.63049  0.82928  Biso   1.000  O
  H357     1.0000 0.75621  0.73521  0.82248  Biso   1.000  H
  O159     1.0000 0.77701  0.63055  0.82928  Biso   1.000  O
  O160     1.0000 0.79331  0.66992  0.95268  Biso   1.000  O
  H358     1.0000 0.87110  0.74589  0.89242  Biso   1.000  H
  C246     1.0000 0.06729  0.62378  0.82761  Biso   1.000  C
  H359     1.0000 0.01807  0.72349  0.82782  Biso   1.000  H
  H360     1.0000 0.01813  0.72349  0.82782  Biso   1.000  H
  C247     1.0000 0.06729  0.62383  0.82761  Biso   1.000  C
  C248     1.0000 0.06735  0.62378  0.82761  Biso   1.000  C
  H361     1.0000 0.74827  0.63270  0.78740  Biso   1.000  H
  H362     1.0000 0.74834  0.63270  0.78740  Biso   1.000  H
  H363     1.0000 0.73722  0.66121  0.93718  Biso   1.000  H
  H364     1.0000 0.10132  0.64281  0.78458  Biso   1.000  H
  H365     1.0000 0.10453  0.61849  0.86640  Biso   1.000  H
  H366     1.0000 0.04363  0.57690  0.82949  Biso   1.000  H
  O161     1.0000 0.20669  0.33008  0.04732  Biso   1.000  O
  C249     1.0000 0.14679  0.30367  0.10601  Biso   1.000  C
  C250     1.0000 0.14679  0.30372  0.10601  Biso   1.000  C
  C251     1.0000 0.14685  0.30372  0.10601  Biso   1.000  C
  H367     1.0000 0.26278  0.33879  0.06282  Biso   1.000  H
  H368     1.0000 0.26285  0.33879  0.06282  Biso   1.000  H
  C252     1.0000 0.19325  0.29860  0.17281  Biso   1.000  C
  C253     1.0000 0.19318  0.29860  0.17281  Biso   1.000  C
  C254     1.0000 0.06399  0.35039  0.10261  Biso   1.000  C
  H369     1.0000 0.12890  0.25411  0.10758  Biso   1.000  H
  O162     1.0000 0.20668  0.33013  0.04732  Biso   1.000  O
  O163     1.0000 0.20675  0.33008  0.04732  Biso   1.000  O
  C255     1.0000 0.06406  0.35039  0.10261  Biso   1.000  C
  O164     1.0000 0.22299  0.36951  0.17072  Biso   1.000  O
  H370     1.0000 0.24379  0.26479  0.17752  Biso   1.000  H
  C256     1.0000 0.12980  0.27219  0.23710  Biso   1.000  C
  C257     1.0000 0.12980  0.27224  0.23710  Biso   1.000  C
  O165     1.0000 0.22306  0.36951  0.17072  Biso   1.000  O
  H371     1.0000 0.24386  0.26479  0.17752  Biso   1.000  H
  C258     1.0000 0.00661  0.32452  0.16920  Biso   1.000  C
  C259     1.0000 0.00662  0.32447  0.16920  Biso   1.000  C
  O166     1.0000 0.01119  0.34012  0.04623  Biso   1.000  O
  H372     1.0000 0.07929  0.40219  0.09318  Biso   1.000  H
  O167     1.0000 0.01119  0.34008  0.04617  Biso   1.000  O
  H373     1.0000 0.07928  0.40224  0.09318  Biso   1.000  H
  O168     1.0000 0.01126  0.34013  0.04617  Biso   1.000  O
  H374     1.0000 0.07935  0.40219  0.09318  Biso   1.000  H
  H375     1.0000 0.25173  0.36730  0.21260  Biso   1.000  H
  O169     1.0000 0.05589  0.31791  0.22998  Biso   1.000  O
  O170     1.0000 0.10438  0.19779  0.24249  Biso   1.000  O
  H376     1.0000 0.16051  0.27238  0.27919  Biso   1.000  H
  H377     1.0000 0.16051  0.27243  0.27919  Biso   1.000  H
  O171     1.0000 0.10438  0.19784  0.24249  Biso   1.000  O
  O172     1.0000 0.10445  0.19779  0.24249  Biso   1.000  O
  O173     1.0000 0.05596  0.31791  0.22998  Biso   1.000  O
  C260     1.0000 0.93271  0.37622  0.17239  Biso   1.000  C
  H378     1.0000 0.98193  0.27651  0.17218  Biso   1.000  H
  C261     1.0000 0.93271  0.37617  0.17239  Biso   1.000  C
  C262     1.0000 0.98413  0.40660  0.99660  Biso   1.000  C
  C263     1.0000 0.06784  0.15511  0.30918  Biso   1.000  C
  C264     1.0000 0.06778  0.15511  0.30918  Biso   1.000  C
  H379     1.0000 0.89868  0.35719  0.21542  Biso   1.000  H
  H380     1.0000 0.89547  0.38151  0.13360  Biso   1.000  H
  H381     1.0000 0.95637  0.42310  0.17051  Biso   1.000  H
  H382     1.0000 0.89554  0.38151  0.13360  Biso   1.000  H
  H383     1.0000 0.95644  0.42310  0.17051  Biso   1.000  H
  H384     1.0000 0.89875  0.35719  0.21542  Biso   1.000  H
  C265     1.0000 0.91498  0.38712  0.95550  Biso   1.000  C
  C266     1.0000 0.91505  0.38706  0.95550  Biso   1.000  C
  C267     1.0000 0.91505  0.38712  0.95550  Biso   1.000  C
  H385     1.0000 0.95812  0.43908  0.02199  Biso   1.000  H
  H386     1.0000 0.95812  0.43914  0.02199  Biso   1.000  H
  O174     1.0000 0.05647  0.44332  0.95330  Biso   1.000  O
  O175     1.0000 0.05654  0.44327  0.95330  Biso   1.000  O
  O176     1.0000 0.05653  0.44332  0.95330  Biso   1.000  O
  C268     1.0000 0.13552  0.09672  0.34138  Biso   1.000  C
  H387     1.0000 0.05633  0.18662  0.33939  Biso   1.000  H
  C269     1.0000 0.98450  0.11953  0.30018  Biso   1.000  C
  C270     1.0000 0.98450  0.11948  0.30018  Biso   1.000  C
  C271     1.0000 0.98456  0.11953  0.30018  Biso   1.000  C
  H388     1.0000 0.05633  0.18657  0.33939  Biso   1.000  H
  O177     1.0000 0.86761  0.45188  0.91781  Biso   1.000  O
  C272     1.0000 0.95511  0.34622  0.90572  Biso   1.000  C
  H389     1.0000 0.87301  0.35431  0.98822  Biso   1.000  H
  C273     1.0000 0.95511  0.34617  0.90572  Biso   1.000  C
  O178     1.0000 0.86761  0.45193  0.91781  Biso   1.000  O
  C274     1.0000 0.09480  0.40162  0.90881  Biso   1.000  C
  C275     1.0000 0.09480  0.40157  0.90881  Biso   1.000  C
  O179     1.0000 0.10058  0.04682  0.40870  Biso   1.000  O
  C276     1.0000 0.21998  0.12470  0.35881  Biso   1.000  C
  H390     1.0000 0.14880  0.06780  0.30908  Biso   1.000  H
  H391     1.0000 0.14880  0.06785  0.30908  Biso   1.000  H
  O180     1.0000 0.10065  0.04682  0.40870  Biso   1.000  O
  C277     1.0000 0.22005  0.12470  0.35881  Biso   1.000  C
  C278     1.0000 0.94982  0.06792  0.36708  Biso   1.000  C
  O181     1.0000 0.91893  0.17440  0.27442  Biso   1.000  O
  H392     1.0000 0.99572  0.09231  0.26610  Biso   1.000  H
  H393     1.0000 0.81801  0.47370  0.93482  Biso   1.000  H
  O182     1.0000 0.88209  0.33080  0.86588  Biso   1.000  O
  H394     1.0000 0.98098  0.29969  0.93331  Biso   1.000  H
  H395     1.0000 0.98104  0.29969  0.93331  Biso   1.000  H
  O183     1.0000 0.88215  0.33080  0.86588  Biso   1.000  O
  C279     1.0000 0.02441  0.39130  0.86101  Biso   1.000  C
  C280     1.0000 0.17400  0.44102  0.87530  Biso   1.000  C
  H396     1.0000 0.11259  0.35322  0.93870  Biso   1.000  H
  C281     1.0000 0.17400  0.44097  0.87530  Biso   1.000  C
  H397     1.0000 0.11259  0.35317  0.93870  Biso   1.000  H
  H398     1.0000 0.11266  0.35322  0.93870  Biso   1.000  H
  C282     1.0000 0.02018  0.01242  0.39959  Biso   1.000  C
  C283     1.0000 0.02025  0.01242  0.39959  Biso   1.000  C
  H399     1.0000 0.20810  0.15172  0.39169  Biso   1.000  H
  H400     1.0000 0.24769  0.15623  0.31688  Biso   1.000  H
  H401     1.0000 0.25874  0.08412  0.37891  Biso   1.000  H
  H402     1.0000 0.25867  0.08412  0.37891  Biso   1.000  H
  H403     1.0000 0.25874  0.08406  0.37891  Biso   1.000  H
  H404     1.0000 0.24770  0.15618  0.31688  Biso   1.000  H
  H405     1.0000 0.24776  0.15623  0.31688  Biso   1.000  H
  O184     1.0000 0.92401  0.10649  0.41593  Biso   1.000  O
  H406     1.0000 0.89850  0.04210  0.35771  Biso   1.000  H
  H407     1.0000 0.90159  0.17561  0.22898  Biso   1.000  H
  H408     1.0000 0.90165  0.17561  0.22898  Biso   1.000  H
  H409     1.0000 0.89821  0.28331  0.86331  Biso   1.000  H
  H410     1.0000 0.99988  0.43900  0.83489  Biso   1.000  H
  H411     1.0000 0.99995  0.43900  0.83489  Biso   1.000  H
  O185     1.0000 0.05957  0.35369  0.81347  Biso   1.000  O
  O186     1.0000 0.05964  0.35369  0.81347  Biso   1.000  O
  O187     1.0000 0.05963  0.35374  0.81347  Biso   1.000  O
  H412     1.0000 0.21361  0.44420  0.91048  Biso   1.000  H
  H413     1.0000 0.15787  0.48952  0.84761  Biso   1.000  H
  H414     1.0000 0.20271  0.41532  0.84578  Biso   1.000  H
  H415     1.0000 0.15794  0.48947  0.84761  Biso   1.000  H
  H416     1.0000 0.15794  0.48952  0.84761  Biso   1.000  H
  H417     1.0000 0.99747  0.98439  0.44629  Biso   1.000  H
  H418     1.0000 0.99754  0.98439  0.44629  Biso   1.000  H
  H419     1.0000 0.99754  0.98444  0.44629  Biso   1.000  H
  O188     1.0000 0.03417  0.96321  0.36122  Biso   1.000  O
  O189     1.0000 0.03424  0.96321  0.36122  Biso   1.000  O
  H420     1.0000 0.93511  0.15740  0.39551  Biso   1.000  H
  C284     1.0000 0.07677  0.40039  0.74448  Biso   1.000  C
  C285     1.0000 0.07684  0.40039  0.74448  Biso   1.000  C
  C286     1.0000 0.07684  0.40044  0.74448  Biso   1.000  C
  C287     1.0000 0.06609  0.89078  0.39860  Biso   1.000  C
  C288     1.0000 0.06609  0.89083  0.39860  Biso   1.000  C
  C289     1.0000 0.06616  0.89083  0.39860  Biso   1.000  C
  C290     1.0000 0.13930  0.35731  0.70642  Biso   1.000  C
  O190     1.0000 0.00429  0.42649  0.70720  Biso   1.000  O
  H421     1.0000 0.10961  0.44272  0.74830  Biso   1.000  H
  C291     1.0000 0.13930  0.35726  0.70642  Biso   1.000  C
  O191     1.0000 0.00429  0.42654  0.70720  Biso   1.000  O
  O192     1.0000 0.00436  0.42649  0.70720  Biso   1.000  O
  C292     1.0000 0.98788  0.83820  0.41310  Biso   1.000  C
  C293     1.0000 0.98794  0.83820  0.41310  Biso   1.000  C
  C294     1.0000 0.13981  0.86751  0.35619  Biso   1.000  C
  H422     1.0000 0.08903  0.89210  0.44330  Biso   1.000  H
  O193     1.0000 0.16890  0.40681  0.64260  Biso   1.000  O
  C295     1.0000 0.08802  0.29378  0.69658  Biso   1.000  C
  H423     1.0000 0.19012  0.33819  0.73542  Biso   1.000  H
  C296     1.0000 0.08802  0.29384  0.69658  Biso   1.000  C
  C297     1.0000 0.95033  0.36868  0.69919  Biso   1.000  C
  C298     1.0000 0.95033  0.36873  0.69919  Biso   1.000  C
  C299     1.0000 0.91692  0.85329  0.46189  Biso   1.000  C
  H424     1.0000 0.96133  0.84120  0.36850  Biso   1.000  H
  O194     1.0000 0.01857  0.76402  0.44362  Biso   1.000  O
  O195     1.0000 0.01863  0.76397  0.44362  Biso   1.000  O
  O196     1.0000 0.01863  0.76402  0.44362  Biso   1.000  O
  C300     1.0000 0.16503  0.78713  0.39268  Biso   1.000  C
  O197     1.0000 0.21298  0.91409  0.34462  Biso   1.000  O
  H425     1.0000 0.11690  0.86991  0.31049  Biso   1.000  H
  C301     1.0000 0.16503  0.78708  0.39268  Biso   1.000  C
  O198     1.0000 0.21305  0.91409  0.34462  Biso   1.000  O
  H426     1.0000 0.13662  0.44000  0.60679  Biso   1.000  H
  O199     1.0000 0.14163  0.25478  0.65909  Biso   1.000  O
  C302     1.0000 0.00491  0.32248  0.66040  Biso   1.000  C
  H427     1.0000 0.07221  0.26021  0.74291  Biso   1.000  H
  O200     1.0000 0.14163  0.25483  0.65909  Biso   1.000  O
  C303     1.0000 0.00491  0.32253  0.66040  Biso   1.000  C
  C304     1.0000 0.87131  0.40668  0.65888  Biso   1.000  C
  H428     1.0000 0.93017  0.33739  0.74542  Biso   1.000  H
  H429     1.0000 0.93024  0.33739  0.74542  Biso   1.000  H
  C305     1.0000 0.87131  0.40673  0.65888  Biso   1.000  C
  H430     1.0000 0.87038  0.81809  0.46838  Biso   1.000  H
  H431     1.0000 0.89341  0.90182  0.44221  Biso   1.000  H
  H432     1.0000 0.94159  0.84961  0.50618  Biso   1.000  H
  H433     1.0000 0.87044  0.81809  0.46838  Biso   1.000  H
  H434     1.0000 0.89341  0.90177  0.44221  Biso   1.000  H
  H435     1.0000 0.87044  0.81814  0.46838  Biso   1.000  H
  H436     1.0000 0.94166  0.84961  0.50618  Biso   1.000  H
  C306     1.0000 0.08400  0.73958  0.40331  Biso   1.000  C
  C307     1.0000 0.08400  0.73963  0.40331  Biso   1.000  C
  O201     1.0000 0.20121  0.78132  0.45561  Biso   1.000  O
  H437     1.0000 0.20873  0.77069  0.36289  Biso   1.000  H
  O202     1.0000 0.20122  0.78127  0.45561  Biso   1.000  O
  H438     1.0000 0.20873  0.77074  0.36289  Biso   1.000  H
  H439     1.0000 0.21587  0.95020  0.30013  Biso   1.000  H
  H440     1.0000 0.21594  0.95021  0.30007  Biso   1.000  H
  H441     1.0000 0.21594  0.95020  0.30013  Biso   1.000  H
  H442     1.0000 0.15822  0.27668  0.61119  Biso   1.000  H
  H443     1.0000 0.15822  0.27673  0.61119  Biso   1.000  H
  O203     1.0000 0.94532  0.26192  0.66093  Biso   1.000  O
  O204     1.0000 0.94532  0.26186  0.66093  Biso   1.000  O
  H444     1.0000 0.01882  0.35201  0.61208  Biso   1.000  H
  H445     1.0000 0.83981  0.43457  0.68522  Biso   1.000  H
  H446     1.0000 0.83270  0.37063  0.65140  Biso   1.000  H
  H447     1.0000 0.89141  0.43903  0.61449  Biso   1.000  H
  H448     1.0000 0.83270  0.37057  0.65140  Biso   1.000  H
  H449     1.0000 0.89141  0.43897  0.61449  Biso   1.000  H
  H450     1.0000 0.83981  0.43462  0.68522  Biso   1.000  H
  O205     1.0000 0.05468  0.73808  0.33907  Biso   1.000  O
  H451     1.0000 0.10110  0.68952  0.42959  Biso   1.000  H
  O206     1.0000 0.05475  0.73808  0.33907  Biso   1.000  O
  H452     1.0000 0.10111  0.68947  0.42959  Biso   1.000  H
  O207     1.0000 0.05475  0.73814  0.33907  Biso   1.000  O
  H453     1.0000 0.24749  0.77669  0.48738  Biso   1.000  H
  H454     1.0000 0.24755  0.77669  0.48738  Biso   1.000  H
  C308     1.0000 0.91600  0.26042  0.59669  Biso   1.000  C
  C309     1.0000 0.91600  0.26037  0.59669  Biso   1.000  C
  C310     1.0000 0.99509  0.67752  0.33960  Biso   1.000  C
  C311     1.0000 0.99509  0.67747  0.33960  Biso   1.000  C
  C312     1.0000 0.99515  0.67752  0.33960  Biso   1.000  C
  C313     1.0000 0.83497  0.21287  0.60732  Biso   1.000  C
  O208     1.0000 0.98143  0.23598  0.55638  Biso   1.000  O
  H455     1.0000 0.89890  0.31048  0.57041  Biso   1.000  H
  C314     1.0000 0.83503  0.21287  0.60732  Biso   1.000  C
  C315     1.0000 0.83503  0.21292  0.60732  Biso   1.000  C
  O209     1.0000 0.98143  0.23603  0.55638  Biso   1.000  O
  H456     1.0000 0.89889  0.31053  0.57041  Biso   1.000  H
  H457     1.0000 0.89896  0.31048  0.57041  Biso   1.000  H
  C316     1.0000 0.91198  0.70622  0.30342  Biso   1.000  C
  H458     1.0000 0.98118  0.64799  0.38792  Biso   1.000  H
  C317     1.0000 0.91204  0.70616  0.30342  Biso   1.000  C
  H459     1.0000 0.98125  0.64799  0.38792  Biso   1.000  H
  C318     1.0000 0.91204  0.70622  0.30342  Biso   1.000  C
  C319     1.0000 0.04967  0.63132  0.30081  Biso   1.000  C
  C320     1.0000 0.04974  0.63127  0.30081  Biso   1.000  C
  C321     1.0000 0.04974  0.63132  0.30081  Biso   1.000  C
  O210     1.0000 0.79879  0.21868  0.54439  Biso   1.000  O
  C322     1.0000 0.86019  0.13249  0.64381  Biso   1.000  C
  H460     1.0000 0.79127  0.22931  0.63711  Biso   1.000  H
  H461     1.0000 0.79134  0.22931  0.63711  Biso   1.000  H
  O211     1.0000 0.79878  0.21873  0.54439  Biso   1.000  O
  O212     1.0000 0.79885  0.21873  0.54439  Biso   1.000  O
  C323     1.0000 0.86026  0.13249  0.64381  Biso   1.000  C
  C324     1.0000 0.01212  0.16180  0.58690  Biso   1.000  C
  C325     1.0000 0.86070  0.64269  0.29358  Biso   1.000  C
  O213     1.0000 0.85837  0.74522  0.34091  Biso   1.000  O
  H462     1.0000 0.92779  0.73979  0.25709  Biso   1.000  H
  O214     1.0000 0.85843  0.74517  0.34091  Biso   1.000  O
  C326     1.0000 0.86070  0.64274  0.29358  Biso   1.000  C
  O215     1.0000 0.85843  0.74522  0.34091  Biso   1.000  O
  C327     1.0000 0.86076  0.64269  0.29358  Biso   1.000  C
  H463     1.0000 0.92785  0.73979  0.25709  Biso   1.000  H
  O216     1.0000 0.99571  0.57351  0.29280  Biso   1.000  O
  C328     1.0000 0.12869  0.59332  0.34112  Biso   1.000  C
  H464     1.0000 0.06983  0.66261  0.25458  Biso   1.000  H
  C329     1.0000 0.12869  0.59327  0.34112  Biso   1.000  C
  C330     1.0000 0.12876  0.59332  0.34112  Biso   1.000  C
  H465     1.0000 0.75251  0.22331  0.51262  Biso   1.000  H
  O217     1.0000 0.78702  0.08591  0.65538  Biso   1.000  O
  C331     1.0000 0.93391  0.10922  0.60140  Biso   1.000  C
  H466     1.0000 0.88310  0.13009  0.68951  Biso   1.000  H
  C332     1.0000 0.93391  0.10917  0.60140  Biso   1.000  C
  C333     1.0000 0.08308  0.14671  0.53811  Biso   1.000  C
  H467     1.0000 0.03867  0.15880  0.63150  Biso   1.000  H
  C334     1.0000 0.08314  0.14671  0.53811  Biso   1.000  C
  H468     1.0000 0.03874  0.15880  0.63150  Biso   1.000  H
  C335     1.0000 0.92323  0.59961  0.25552  Biso   1.000  C
  O218     1.0000 0.83110  0.59319  0.35740  Biso   1.000  O
  H469     1.0000 0.80988  0.66181  0.26458  Biso   1.000  H
  C336     1.0000 0.92323  0.59956  0.25552  Biso   1.000  C
  H470     1.0000 0.80994  0.66181  0.26458  Biso   1.000  H
  O219     1.0000 0.83116  0.59319  0.35740  Biso   1.000  O
  H471     1.0000 0.84178  0.72332  0.38881  Biso   1.000  H
  H472     1.0000 0.84178  0.72327  0.38881  Biso   1.000  H
  H473     1.0000 0.84185  0.72332  0.38881  Biso   1.000  H
  H474     1.0000 0.16019  0.56543  0.31478  Biso   1.000  H
  H475     1.0000 0.16730  0.62937  0.34860  Biso   1.000  H
  H476     1.0000 0.10859  0.56097  0.38551  Biso   1.000  H
  H477     1.0000 0.16019  0.56538  0.31478  Biso   1.000  H
  H478     1.0000 0.16730  0.62943  0.34860  Biso   1.000  H
  H479     1.0000 0.10859  0.56103  0.38551  Biso   1.000  H
  H480     1.0000 0.16025  0.56543  0.31478  Biso   1.000  H
  H481     1.0000 0.10866  0.56103  0.38551  Biso   1.000  H
  H482     1.0000 0.78413  0.04980  0.69987  Biso   1.000  H
  O220     1.0000 0.96583  0.03679  0.63878  Biso   1.000  O
  H483     1.0000 0.91097  0.10790  0.55670  Biso   1.000  H
  H484     1.0000 0.91104  0.10790  0.55670  Biso   1.000  H
  H485     1.0000 0.12962  0.18191  0.53162  Biso   1.000  H
  H486     1.0000 0.10659  0.09818  0.55779  Biso   1.000  H
  H487     1.0000 0.05841  0.15039  0.49382  Biso   1.000  H
  H488     1.0000 0.10659  0.09823  0.55779  Biso   1.000  H
  H489     1.0000 0.10666  0.09823  0.55779  Biso   1.000  H
  O221     1.0000 0.94043  0.64631  0.18653  Biso   1.000  O
  H490     1.0000 0.89039  0.55728  0.25170  Biso   1.000  H
  O222     1.0000 0.94043  0.64626  0.18653  Biso   1.000  O
  H491     1.0000 0.89039  0.55734  0.25170  Biso   1.000  H
  H492     1.0000 0.89045  0.55728  0.25170  Biso   1.000  H
  H493     1.0000 0.86338  0.56000  0.39321  Biso   1.000  H
  H494     1.0000 0.86345  0.56000  0.39321  Biso   1.000  H
  C337     1.0000 0.97982  0.98758  0.60041  Biso   1.000  C
  C338     1.0000 0.97981  0.98763  0.60041  Biso   1.000  C
  C339     1.0000 0.97559  0.60870  0.13899  Biso   1.000  C
  C340     1.0000 0.97566  0.60870  0.13899  Biso   1.000  C
  O223     1.0000 0.89942  0.95318  0.59130  Biso   1.000  O
  O224     1.0000 0.89942  0.95324  0.59130  Biso   1.000  O
  C341     1.0000 0.05018  0.93208  0.63292  Biso   1.000  C
  C342     1.0000 0.05018  0.93213  0.63292  Biso   1.000  C
  C343     1.0000 0.05025  0.93208  0.63292  Biso   1.000  C
  H495     1.0000 0.00253  0.01561  0.55371  Biso   1.000  H
  C344     1.0000 0.90520  0.59838  0.09119  Biso   1.000  C
  C345     1.0000 0.90520  0.59843  0.09119  Biso   1.000  C
  C346     1.0000 0.04489  0.65378  0.09428  Biso   1.000  C
  H496     1.0000 0.00012  0.56100  0.16511  Biso   1.000  H
  C347     1.0000 0.04489  0.65383  0.09428  Biso   1.000  C
  C348     1.0000 0.04496  0.65383  0.09428  Biso   1.000  C
  C349     1.0000 0.86448  0.90328  0.65862  Biso   1.000  C
  C350     1.0000 0.86454  0.90328  0.65862  Biso   1.000  C
  C351     1.0000 0.86454  0.90333  0.65862  Biso   1.000  C
  O225     1.0000 0.07599  0.89351  0.58407  Biso   1.000  O
  C352     1.0000 0.01550  0.88047  0.69982  Biso   1.000  C
  H497     1.0000 0.10150  0.95790  0.64229  Biso   1.000  H
  C353     1.0000 0.01550  0.88052  0.69982  Biso   1.000  C
  O226     1.0000 0.07605  0.89351  0.58407  Biso   1.000  O
  O227     1.0000 0.94353  0.55668  0.04670  Biso   1.000  O
  C354     1.0000 0.82600  0.55898  0.12470  Biso   1.000  C
  H498     1.0000 0.88741  0.64678  0.06130  Biso   1.000  H
  O228     1.0000 0.94353  0.55673  0.04670  Biso   1.000  O
  C355     1.0000 0.82600  0.55903  0.12470  Biso   1.000  C
  H499     1.0000 0.88741  0.64683  0.06130  Biso   1.000  H
  C356     1.0000 0.08502  0.61288  0.04450  Biso   1.000  C
  O229     1.0000 0.11791  0.66920  0.13412  Biso   1.000  O
  H500     1.0000 0.01902  0.70031  0.06669  Biso   1.000  H
  C357     1.0000 0.08502  0.61294  0.04450  Biso   1.000  C
  C358     1.0000 0.93222  0.84489  0.69082  Biso   1.000  C
  C359     1.0000 0.78002  0.87530  0.64119  Biso   1.000  C
  H501     1.0000 0.85120  0.93220  0.69092  Biso   1.000  H
  H502     1.0000 0.06489  0.84260  0.60449  Biso   1.000  H
  H503     1.0000 0.06495  0.84260  0.60449  Biso   1.000  H
  O230     1.0000 0.08107  0.82560  0.72558  Biso   1.000  O
  H504     1.0000 0.00428  0.90769  0.73390  Biso   1.000  H
  O231     1.0000 0.08114  0.82560  0.72558  Biso   1.000  O
  H505     1.0000 0.00435  0.90769  0.73390  Biso   1.000  H
  C360     1.0000 0.01587  0.59340  0.00340  Biso   1.000  C
  C361     1.0000 0.01594  0.59340  0.00340  Biso   1.000  C
  H506     1.0000 0.78639  0.55580  0.08952  Biso   1.000  H
  H507     1.0000 0.84213  0.51048  0.15239  Biso   1.000  H
  H508     1.0000 0.79729  0.58468  0.15422  Biso   1.000  H
  H509     1.0000 0.84213  0.51053  0.15239  Biso   1.000  H
  H510     1.0000 0.79729  0.58473  0.15422  Biso   1.000  H
  H511     1.0000 0.78646  0.55580  0.08952  Biso   1.000  H
  H512     1.0000 0.79735  0.58468  0.15422  Biso   1.000  H
  O232     1.0000 0.13239  0.54812  0.08219  Biso   1.000  O
  H513     1.0000 0.12699  0.64569  0.01178  Biso   1.000  H
  H514     1.0000 0.12699  0.64575  0.01178  Biso   1.000  H
  O233     1.0000 0.13246  0.54812  0.08219  Biso   1.000  O
  H515     1.0000 0.12706  0.64569  0.01178  Biso   1.000  H
  H516     1.0000 0.10179  0.71669  0.13669  Biso   1.000  H
  H517     1.0000 0.10178  0.71674  0.13669  Biso   1.000  H
  H518     1.0000 0.10185  0.71669  0.13669  Biso   1.000  H
  O234     1.0000 0.89562  0.80221  0.75751  Biso   1.000  O
  H519     1.0000 0.94367  0.81338  0.66061  Biso   1.000  H
  H520     1.0000 0.94373  0.81338  0.66061  Biso   1.000  H
  H521     1.0000 0.94373  0.81343  0.66061  Biso   1.000  H
  H522     1.0000 0.74133  0.91588  0.62109  Biso   1.000  H
  H523     1.0000 0.79190  0.84828  0.60831  Biso   1.000  H
  H524     1.0000 0.75231  0.84377  0.68312  Biso   1.000  H
  H525     1.0000 0.74132  0.91594  0.62109  Biso   1.000  H
  H526     1.0000 0.79190  0.84834  0.60831  Biso   1.000  H
  H527     1.0000 0.75230  0.84382  0.68312  Biso   1.000  H
  H528     1.0000 0.09841  0.82439  0.77102  Biso   1.000  H
  O235     1.0000 0.98881  0.65988  0.95377  Biso   1.000  O
  O236     1.0000 0.98881  0.65993  0.95377  Biso   1.000  O
  H529     1.0000 0.04188  0.56092  0.97801  Biso   1.000  H
  H530     1.0000 0.04195  0.56086  0.97801  Biso   1.000  H
  H531     1.0000 0.04194  0.56092  0.97801  Biso   1.000  H
  H532     1.0000 0.18199  0.52630  0.06518  Biso   1.000  H
  H533     1.0000 0.18199  0.52635  0.06518  Biso   1.000  H
  H534     1.0000 0.18206  0.52630  0.06518  Biso   1.000  H
  C362     1.0000 0.87020  0.72781  0.76290  Biso   1.000  C
  C363     1.0000 0.93601  0.64961  0.89739  Biso   1.000  C
  C364     1.0000 0.80682  0.70140  0.82719  Biso   1.000  C
  O237     1.0000 0.94411  0.68209  0.77002  Biso   1.000  O
  H535     1.0000 0.83949  0.72762  0.72081  Biso   1.000  H
  H536     1.0000 0.83949  0.72757  0.72081  Biso   1.000  H
  H537     1.0000 0.83956  0.72762  0.72081  Biso   1.000  H
  C365     1.0000 0.85321  0.69633  0.89399  Biso   1.000  C
  C366     1.0000 0.99339  0.67548  0.83080  Biso   1.000  C
  H538     1.0000 0.92071  0.59781  0.90682  Biso   1.000  H
  C367     1.0000 0.85321  0.69628  0.89399  Biso   1.000  C
  H539     1.0000 0.92072  0.59776  0.90682  Biso   1.000  H
  C368     1.0000 0.99338  0.67553  0.83080  Biso   1.000  C
  C369     1.0000 0.99345  0.67553  0.83080  Biso   1.000  C
  O238     1.0000 0.77701  0.63049  0.82928  Biso   1.000  O
  H540     1.0000 0.75621  0.73521  0.82248  Biso   1.000  H
  O239     1.0000 0.77701  0.63055  0.82928  Biso   1.000  O
  O240     1.0000 0.79331  0.66992  0.95268  Biso   1.000  O
  H541     1.0000 0.87110  0.74589  0.89242  Biso   1.000  H
  C370     1.0000 0.06729  0.62378  0.82761  Biso   1.000  C
  H542     1.0000 0.01807  0.72349  0.82782  Biso   1.000  H
  H543     1.0000 0.01813  0.72349  0.82782  Biso   1.000  H
  C371     1.0000 0.06729  0.62383  0.82761  Biso   1.000  C
  C372     1.0000 0.06735  0.62378  0.82761  Biso   1.000  C
  H544     1.0000 0.74827  0.63270  0.78740  Biso   1.000  H
  H545     1.0000 0.74834  0.63270  0.78740  Biso   1.000  H
  H546     1.0000 0.73722  0.66121  0.93718  Biso   1.000  H
  H547     1.0000 0.10132  0.64281  0.78458  Biso   1.000  H
  H548     1.0000 0.10453  0.61849  0.86640  Biso   1.000  H
  H549     1.0000 0.04363  0.57690  0.82949  Biso   1.000  H
  O241     1.0000 0.20669  0.33008  0.04732  Biso   1.000  O
  C373     1.0000 0.14679  0.30367  0.10601  Biso   1.000  C
  C374     1.0000 0.14679  0.30372  0.10601  Biso   1.000  C
  C375     1.0000 0.14685  0.30372  0.10601  Biso   1.000  C
  H550     1.0000 0.26278  0.33879  0.06282  Biso   1.000  H
  H551     1.0000 0.26285  0.33879  0.06282  Biso   1.000  H
  C376     1.0000 0.19325  0.29860  0.17281  Biso   1.000  C
  C377     1.0000 0.19318  0.29860  0.17281  Biso   1.000  C
  H552     1.0000 0.12890  0.25411  0.10758  Biso   1.000  H
  C378     1.0000 0.06399  0.35039  0.10261  Biso   1.000  C
  O242     1.0000 0.20668  0.33013  0.04732  Biso   1.000  O
  O243     1.0000 0.20675  0.33008  0.04732  Biso   1.000  O
  C379     1.0000 0.06406  0.35039  0.10261  Biso   1.000  C
  C380     1.0000 0.12980  0.27219  0.23710  Biso   1.000  C
  O244     1.0000 0.22299  0.36951  0.17072  Biso   1.000  O
  H553     1.0000 0.24379  0.26479  0.17752  Biso   1.000  H
  C381     1.0000 0.12980  0.27224  0.23710  Biso   1.000  C
  O245     1.0000 0.22306  0.36951  0.17072  Biso   1.000  O
  H554     1.0000 0.24386  0.26479  0.17752  Biso   1.000  H
  C382     1.0000 0.00661  0.32452  0.16920  Biso   1.000  C
  C383     1.0000 0.00662  0.32447  0.16920  Biso   1.000  C
  H555     1.0000 0.07929  0.40219  0.09318  Biso   1.000  H
  O246     1.0000 0.01119  0.34012  0.04623  Biso   1.000  O
  O247     1.0000 0.01119  0.34008  0.04617  Biso   1.000  O
  H556     1.0000 0.07928  0.40224  0.09318  Biso   1.000  H
  O248     1.0000 0.01126  0.34013  0.04617  Biso   1.000  O
  H557     1.0000 0.07935  0.40219  0.09318  Biso   1.000  H
  O249     1.0000 0.05589  0.31791  0.22998  Biso   1.000  O
  O250     1.0000 0.10438  0.19779  0.24249  Biso   1.000  O
  H558     1.0000 0.16051  0.27238  0.27919  Biso   1.000  H
  H559     1.0000 0.16051  0.27243  0.27919  Biso   1.000  H
  O251     1.0000 0.10438  0.19784  0.24249  Biso   1.000  O
  O252     1.0000 0.10445  0.19779  0.24249  Biso   1.000  O
  O253     1.0000 0.05596  0.31791  0.22998  Biso   1.000  O
  H560     1.0000 0.25173  0.36730  0.21260  Biso   1.000  H
  C384     1.0000 0.93271  0.37622  0.17239  Biso   1.000  C
  H561     1.0000 0.98193  0.27651  0.17218  Biso   1.000  H
  C385     1.0000 0.93271  0.37617  0.17239  Biso   1.000  C
  C386     1.0000 0.98413  0.40660  0.99660  Biso   1.000  C
  C387     1.0000 0.06784  0.15511  0.30918  Biso   1.000  C
  C388     1.0000 0.06778  0.15511  0.30918  Biso   1.000  C
  H562     1.0000 0.89868  0.35719  0.21542  Biso   1.000  H
  H563     1.0000 0.89547  0.38151  0.13360  Biso   1.000  H
  H564     1.0000 0.95637  0.42310  0.17051  Biso   1.000  H
  H565     1.0000 0.89554  0.38151  0.13360  Biso   1.000  H
  H566     1.0000 0.95644  0.42310  0.17051  Biso   1.000  H
  H567     1.0000 0.89875  0.35719  0.21542  Biso   1.000  H
  C389     1.0000 0.91498  0.38712  0.95550  Biso   1.000  C
  C390     1.0000 0.91505  0.38706  0.95550  Biso   1.000  C
  C391     1.0000 0.91505  0.38712  0.95550  Biso   1.000  C
  H568     1.0000 0.95812  0.43908  0.02199  Biso   1.000  H
  H569     1.0000 0.95812  0.43914  0.02199  Biso   1.000  H
  O254     1.0000 0.05647  0.44332  0.95330  Biso   1.000  O
  O255     1.0000 0.05654  0.44327  0.95330  Biso   1.000  O
  O256     1.0000 0.05653  0.44332  0.95330  Biso   1.000  O
  C392     1.0000 0.13552  0.09672  0.34138  Biso   1.000  C
  H570     1.0000 0.05633  0.18662  0.33939  Biso   1.000  H
  C393     1.0000 0.98450  0.11953  0.30018  Biso   1.000  C
  C394     1.0000 0.98450  0.11948  0.30018  Biso   1.000  C
  C395     1.0000 0.98456  0.11953  0.30018  Biso   1.000  C
  H571     1.0000 0.05633  0.18657  0.33939  Biso   1.000  H
  O257     1.0000 0.86761  0.45188  0.91781  Biso   1.000  O
  C396     1.0000 0.95511  0.34622  0.90572  Biso   1.000  C
  H572     1.0000 0.87301  0.35431  0.98822  Biso   1.000  H
  C397     1.0000 0.95511  0.34617  0.90572  Biso   1.000  C
  O258     1.0000 0.86761  0.45193  0.91781  Biso   1.000  O
  C398     1.0000 0.09480  0.40162  0.90881  Biso   1.000  C
  C399     1.0000 0.09480  0.40157  0.90881  Biso   1.000  C
  O259     1.0000 0.10058  0.04682  0.40870  Biso   1.000  O
  C400     1.0000 0.21998  0.12470  0.35881  Biso   1.000  C
  H573     1.0000 0.14880  0.06780  0.30908  Biso   1.000  H
  H574     1.0000 0.14880  0.06785  0.30908  Biso   1.000  H
  O260     1.0000 0.10065  0.04682  0.40870  Biso   1.000  O
  C401     1.0000 0.22005  0.12470  0.35881  Biso   1.000  C
  C402     1.0000 0.94982  0.06792  0.36708  Biso   1.000  C
  O261     1.0000 0.91893  0.17440  0.27442  Biso   1.000  O
  H575     1.0000 0.99572  0.09231  0.26610  Biso   1.000  H
  H576     1.0000 0.81801  0.47370  0.93482  Biso   1.000  H
  O262     1.0000 0.88209  0.33080  0.86588  Biso   1.000  O
  H577     1.0000 0.98098  0.29969  0.93331  Biso   1.000  H
  H578     1.0000 0.98104  0.29969  0.93331  Biso   1.000  H
  O263     1.0000 0.88215  0.33080  0.86588  Biso   1.000  O
  C403     1.0000 0.02441  0.39130  0.86101  Biso   1.000  C
  C404     1.0000 0.17400  0.44102  0.87530  Biso   1.000  C
  H579     1.0000 0.11259  0.35322  0.93870  Biso   1.000  H
  C405     1.0000 0.17400  0.44097  0.87530  Biso   1.000  C
  H580     1.0000 0.11259  0.35317  0.93870  Biso   1.000  H
  H581     1.0000 0.11266  0.35322  0.93870  Biso   1.000  H
  C406     1.0000 0.02018  0.01242  0.39959  Biso   1.000  C
  C407     1.0000 0.02025  0.01242  0.39959  Biso   1.000  C
  H582     1.0000 0.20810  0.15172  0.39169  Biso   1.000  H
  H583     1.0000 0.24769  0.15623  0.31688  Biso   1.000  H
  H584     1.0000 0.25874  0.08412  0.37891  Biso   1.000  H
  H585     1.0000 0.25867  0.08412  0.37891  Biso   1.000  H
  H586     1.0000 0.25874  0.08406  0.37891  Biso   1.000  H
  H587     1.0000 0.24770  0.15618  0.31688  Biso   1.000  H
  H588     1.0000 0.24776  0.15623  0.31688  Biso   1.000  H
  O264     1.0000 0.92401  0.10649  0.41593  Biso   1.000  O
  H589     1.0000 0.89850  0.04210  0.35771  Biso   1.000  H
  H590     1.0000 0.90159  0.17561  0.22898  Biso   1.000  H
  H591     1.0000 0.90165  0.17561  0.22898  Biso   1.000  H
  H592     1.0000 0.89821  0.28331  0.86331  Biso   1.000  H
  H593     1.0000 0.99988  0.43900  0.83489  Biso   1.000  H
  H594     1.0000 0.99995  0.43900  0.83489  Biso   1.000  H
  O265     1.0000 0.05957  0.35369  0.81347  Biso   1.000  O
  O266     1.0000 0.05964  0.35369  0.81347  Biso   1.000  O
  O267     1.0000 0.05963  0.35374  0.81347  Biso   1.000  O
  H595     1.0000 0.21361  0.44420  0.91048  Biso   1.000  H
  H596     1.0000 0.15787  0.48952  0.84761  Biso   1.000  H
  H597     1.0000 0.20271  0.41532  0.84578  Biso   1.000  H
  H598     1.0000 0.15794  0.48947  0.84761  Biso   1.000  H
  H599     1.0000 0.15794  0.48952  0.84761  Biso   1.000  H
  H600     1.0000 0.99747  0.98439  0.44629  Biso   1.000  H
  H601     1.0000 0.99754  0.98439  0.44629  Biso   1.000  H
  H602     1.0000 0.99754  0.98444  0.44629  Biso   1.000  H
  O268     1.0000 0.03417  0.96321  0.36122  Biso   1.000  O
  O269     1.0000 0.03424  0.96321  0.36122  Biso   1.000  O
  H603     1.0000 0.93511  0.15740  0.39551  Biso   1.000  H
  C408     1.0000 0.07677  0.40039  0.74448  Biso   1.000  C
  C409     1.0000 0.07684  0.40039  0.74448  Biso   1.000  C
  C410     1.0000 0.07684  0.40044  0.74448  Biso   1.000  C
  C411     1.0000 0.06609  0.89078  0.39860  Biso   1.000  C
  C412     1.0000 0.06609  0.89083  0.39860  Biso   1.000  C
  C413     1.0000 0.06616  0.89083  0.39860  Biso   1.000  C
  C414     1.0000 0.13930  0.35731  0.70642  Biso   1.000  C
  O270     1.0000 0.00429  0.42649  0.70720  Biso   1.000  O
  H604     1.0000 0.10961  0.44272  0.74830  Biso   1.000  H
  C415     1.0000 0.13930  0.35726  0.70642  Biso   1.000  C
  O271     1.0000 0.00429  0.42654  0.70720  Biso   1.000  O
  O272     1.0000 0.00436  0.42649  0.70720  Biso   1.000  O
  C416     1.0000 0.98788  0.83820  0.41310  Biso   1.000  C
  C417     1.0000 0.98794  0.83820  0.41310  Biso   1.000  C
  C418     1.0000 0.13981  0.86751  0.35619  Biso   1.000  C
  H605     1.0000 0.08903  0.89210  0.44330  Biso   1.000  H
  O273     1.0000 0.16890  0.40681  0.64260  Biso   1.000  O
  C419     1.0000 0.08802  0.29378  0.69658  Biso   1.000  C
  H606     1.0000 0.19012  0.33819  0.73542  Biso   1.000  H
  C420     1.0000 0.08802  0.29384  0.69658  Biso   1.000  C
  C421     1.0000 0.95033  0.36868  0.69919  Biso   1.000  C
  C422     1.0000 0.95033  0.36873  0.69919  Biso   1.000  C
  C423     1.0000 0.91692  0.85329  0.46189  Biso   1.000  C
  H607     1.0000 0.96133  0.84120  0.36850  Biso   1.000  H
  O274     1.0000 0.01857  0.76402  0.44362  Biso   1.000  O
  O275     1.0000 0.01863  0.76397  0.44362  Biso   1.000  O
  O276     1.0000 0.01863  0.76402  0.44362  Biso   1.000  O
  C424     1.0000 0.16503  0.78713  0.39268  Biso   1.000  C
  O277     1.0000 0.21298  0.91409  0.34462  Biso   1.000  O
  H608     1.0000 0.11690  0.86991  0.31049  Biso   1.000  H
  C425     1.0000 0.16503  0.78708  0.39268  Biso   1.000  C
  O278     1.0000 0.21305  0.91409  0.34462  Biso   1.000  O
  H609     1.0000 0.13662  0.44000  0.60679  Biso   1.000  H
  O279     1.0000 0.14163  0.25478  0.65909  Biso   1.000  O
  C426     1.0000 0.00491  0.32248  0.66040  Biso   1.000  C
  H610     1.0000 0.07221  0.26021  0.74291  Biso   1.000  H
  O280     1.0000 0.14163  0.25483  0.65909  Biso   1.000  O
  C427     1.0000 0.00491  0.32253  0.66040  Biso   1.000  C
  C428     1.0000 0.87131  0.40668  0.65888  Biso   1.000  C
  H611     1.0000 0.93017  0.33739  0.74542  Biso   1.000  H
  H612     1.0000 0.93024  0.33739  0.74542  Biso   1.000  H
  C429     1.0000 0.87131  0.40673  0.65888  Biso   1.000  C
  H613     1.0000 0.87038  0.81809  0.46838  Biso   1.000  H
  H614     1.0000 0.89341  0.90182  0.44221  Biso   1.000  H
  H615     1.0000 0.94159  0.84961  0.50618  Biso   1.000  H
  H616     1.0000 0.87044  0.81809  0.46838  Biso   1.000  H
  H617     1.0000 0.89341  0.90177  0.44221  Biso   1.000  H
  H618     1.0000 0.87044  0.81814  0.46838  Biso   1.000  H
  H619     1.0000 0.94166  0.84961  0.50618  Biso   1.000  H
  C430     1.0000 0.08400  0.73958  0.40331  Biso   1.000  C
  C431     1.0000 0.08400  0.73963  0.40331  Biso   1.000  C
  O281     1.0000 0.20121  0.78132  0.45561  Biso   1.000  O
  H620     1.0000 0.20873  0.77069  0.36289  Biso   1.000  H
  O282     1.0000 0.20122  0.78127  0.45561  Biso   1.000  O
  H621     1.0000 0.20873  0.77074  0.36289  Biso   1.000  H
  H622     1.0000 0.21587  0.95020  0.30013  Biso   1.000  H
  H623     1.0000 0.21594  0.95021  0.30007  Biso   1.000  H
  H624     1.0000 0.21594  0.95020  0.30013  Biso   1.000  H
  H625     1.0000 0.15822  0.27668  0.61119  Biso   1.000  H
  H626     1.0000 0.15822  0.27673  0.61119  Biso   1.000  H
  O283     1.0000 0.94532  0.26192  0.66093  Biso   1.000  O
  O284     1.0000 0.94532  0.26186  0.66093  Biso   1.000  O
  H627     1.0000 0.01882  0.35201  0.61208  Biso   1.000  H
  H628     1.0000 0.83981  0.43457  0.68522  Biso   1.000  H
  H629     1.0000 0.83270  0.37063  0.65140  Biso   1.000  H
  H630     1.0000 0.89141  0.43903  0.61449  Biso   1.000  H
  H631     1.0000 0.83270  0.37057  0.65140  Biso   1.000  H
  H632     1.0000 0.89141  0.43897  0.61449  Biso   1.000  H
  H633     1.0000 0.83981  0.43462  0.68522  Biso   1.000  H
  O285     1.0000 0.05468  0.73808  0.33907  Biso   1.000  O
  H634     1.0000 0.10110  0.68952  0.42959  Biso   1.000  H
  O286     1.0000 0.05475  0.73808  0.33907  Biso   1.000  O
  H635     1.0000 0.10111  0.68947  0.42959  Biso   1.000  H
  O287     1.0000 0.05475  0.73814  0.33907  Biso   1.000  O
  H636     1.0000 0.24749  0.77669  0.48738  Biso   1.000  H
  H637     1.0000 0.24755  0.77669  0.48738  Biso   1.000  H
  C432     1.0000 0.91600  0.26042  0.59669  Biso   1.000  C
  C433     1.0000 0.91600  0.26037  0.59669  Biso   1.000  C
  C434     1.0000 0.99509  0.67752  0.33960  Biso   1.000  C
  C435     1.0000 0.99509  0.67747  0.33960  Biso   1.000  C
  C436     1.0000 0.99515  0.67752  0.33960  Biso   1.000  C
  C437     1.0000 0.83497  0.21287  0.60732  Biso   1.000  C
  O288     1.0000 0.98143  0.23598  0.55638  Biso   1.000  O
  H638     1.0000 0.89890  0.31048  0.57041  Biso   1.000  H
  C438     1.0000 0.83503  0.21287  0.60732  Biso   1.000  C
  C439     1.0000 0.83503  0.21292  0.60732  Biso   1.000  C
  O289     1.0000 0.98143  0.23603  0.55638  Biso   1.000  O
  H639     1.0000 0.89889  0.31053  0.57041  Biso   1.000  H
  H640     1.0000 0.89896  0.31048  0.57041  Biso   1.000  H
  C440     1.0000 0.91198  0.70622  0.30342  Biso   1.000  C
  H641     1.0000 0.98118  0.64799  0.38792  Biso   1.000  H
  C441     1.0000 0.91204  0.70616  0.30342  Biso   1.000  C
  H642     1.0000 0.98125  0.64799  0.38792  Biso   1.000  H
  C442     1.0000 0.91204  0.70622  0.30342  Biso   1.000  C
  C443     1.0000 0.04967  0.63132  0.30081  Biso   1.000  C
  C444     1.0000 0.04974  0.63127  0.30081  Biso   1.000  C
  C445     1.0000 0.04974  0.63132  0.30081  Biso   1.000  C
  O290     1.0000 0.79879  0.21868  0.54439  Biso   1.000  O
  C446     1.0000 0.86019  0.13249  0.64381  Biso   1.000  C
  H643     1.0000 0.79127  0.22931  0.63711  Biso   1.000  H
  H644     1.0000 0.79134  0.22931  0.63711  Biso   1.000  H
  O291     1.0000 0.79878  0.21873  0.54439  Biso   1.000  O
  O292     1.0000 0.79885  0.21873  0.54439  Biso   1.000  O
  C447     1.0000 0.86026  0.13249  0.64381  Biso   1.000  C
  C448     1.0000 0.01212  0.16180  0.58690  Biso   1.000  C
  C449     1.0000 0.86070  0.64269  0.29358  Biso   1.000  C
  O293     1.0000 0.85837  0.74522  0.34091  Biso   1.000  O
  H645     1.0000 0.92779  0.73979  0.25709  Biso   1.000  H
  O294     1.0000 0.85843  0.74517  0.34091  Biso   1.000  O
  C450     1.0000 0.86070  0.64274  0.29358  Biso   1.000  C
  O295     1.0000 0.85843  0.74522  0.34091  Biso   1.000  O
  C451     1.0000 0.86076  0.64269  0.29358  Biso   1.000  C
  H646     1.0000 0.92785  0.73979  0.25709  Biso   1.000  H
  O296     1.0000 0.99571  0.57351  0.29280  Biso   1.000  O
  C452     1.0000 0.12869  0.59332  0.34112  Biso   1.000  C
  H647     1.0000 0.06983  0.66261  0.25458  Biso   1.000  H
  C453     1.0000 0.12869  0.59327  0.34112  Biso   1.000  C
  C454     1.0000 0.12876  0.59332  0.34112  Biso   1.000  C
  H648     1.0000 0.75251  0.22331  0.51262  Biso   1.000  H
  O297     1.0000 0.78702  0.08591  0.65538  Biso   1.000  O
  C455     1.0000 0.93391  0.10922  0.60140  Biso   1.000  C
  H649     1.0000 0.88310  0.13009  0.68951  Biso   1.000  H
  C456     1.0000 0.93391  0.10917  0.60140  Biso   1.000  C
  C457     1.0000 0.08308  0.14671  0.53811  Biso   1.000  C
  H650     1.0000 0.03867  0.15880  0.63150  Biso   1.000  H
  C458     1.0000 0.08314  0.14671  0.53811  Biso   1.000  C
  H651     1.0000 0.03874  0.15880  0.63150  Biso   1.000  H
  C459     1.0000 0.92323  0.59961  0.25552  Biso   1.000  C
  O298     1.0000 0.83110  0.59319  0.35740  Biso   1.000  O
  H652     1.0000 0.80988  0.66181  0.26458  Biso   1.000  H
  C460     1.0000 0.92323  0.59956  0.25552  Biso   1.000  C
  H653     1.0000 0.80994  0.66181  0.26458  Biso   1.000  H
  O299     1.0000 0.83116  0.59319  0.35740  Biso   1.000  O
  H654     1.0000 0.84178  0.72332  0.38881  Biso   1.000  H
  H655     1.0000 0.84178  0.72327  0.38881  Biso   1.000  H
  H656     1.0000 0.84185  0.72332  0.38881  Biso   1.000  H
  H657     1.0000 0.16019  0.56543  0.31478  Biso   1.000  H
  H658     1.0000 0.16730  0.62937  0.34860  Biso   1.000  H
  H659     1.0000 0.10859  0.56097  0.38551  Biso   1.000  H
  H660     1.0000 0.16019  0.56538  0.31478  Biso   1.000  H
  H661     1.0000 0.16730  0.62943  0.34860  Biso   1.000  H
  H662     1.0000 0.10859  0.56103  0.38551  Biso   1.000  H
  H663     1.0000 0.16025  0.56543  0.31478  Biso   1.000  H
  H664     1.0000 0.10866  0.56103  0.38551  Biso   1.000  H
  H665     1.0000 0.78413  0.04980  0.69987  Biso   1.000  H
  O300     1.0000 0.96583  0.03679  0.63878  Biso   1.000  O
  H666     1.0000 0.91097  0.10790  0.55670  Biso   1.000  H
  H667     1.0000 0.91104  0.10790  0.55670  Biso   1.000  H
  H668     1.0000 0.12962  0.18191  0.53162  Biso   1.000  H
  H669     1.0000 0.10659  0.09818  0.55779  Biso   1.000  H
  H670     1.0000 0.05841  0.15039  0.49382  Biso   1.000  H
  H671     1.0000 0.10659  0.09823  0.55779  Biso   1.000  H
  H672     1.0000 0.10666  0.09823  0.55779  Biso   1.000  H
  O301     1.0000 0.94043  0.64631  0.18653  Biso   1.000  O
  H673     1.0000 0.89039  0.55728  0.25170  Biso   1.000  H
  O302     1.0000 0.94043  0.64626  0.18653  Biso   1.000  O
  H674     1.0000 0.89039  0.55734  0.25170  Biso   1.000  H
  H675     1.0000 0.89045  0.55728  0.25170  Biso   1.000  H
  H676     1.0000 0.86338  0.56000  0.39321  Biso   1.000  H
  H677     1.0000 0.86345  0.56000  0.39321  Biso   1.000  H
  C461     1.0000 0.97982  0.98758  0.60041  Biso   1.000  C
  C462     1.0000 0.97981  0.98763  0.60041  Biso   1.000  C
  C463     1.0000 0.97559  0.60870  0.13899  Biso   1.000  C
  C464     1.0000 0.97566  0.60870  0.13899  Biso   1.000  C
  O303     1.0000 0.89942  0.95318  0.59130  Biso   1.000  O
  O304     1.0000 0.89942  0.95324  0.59130  Biso   1.000  O
  C465     1.0000 0.05018  0.93208  0.63292  Biso   1.000  C
  C466     1.0000 0.05018  0.93213  0.63292  Biso   1.000  C
  C467     1.0000 0.05025  0.93208  0.63292  Biso   1.000  C
  H678     1.0000 0.00253  0.01561  0.55371  Biso   1.000  H
  C468     1.0000 0.90520  0.59838  0.09119  Biso   1.000  C
  C469     1.0000 0.90520  0.59843  0.09119  Biso   1.000  C
  C470     1.0000 0.04489  0.65378  0.09428  Biso   1.000  C
  H679     1.0000 0.00012  0.56100  0.16511  Biso   1.000  H
  C471     1.0000 0.04489  0.65383  0.09428  Biso   1.000  C
  C472     1.0000 0.04496  0.65383  0.09428  Biso   1.000  C
  C473     1.0000 0.86448  0.90328  0.65862  Biso   1.000  C
  C474     1.0000 0.86454  0.90328  0.65862  Biso   1.000  C
  C475     1.0000 0.86454  0.90333  0.65862  Biso   1.000  C
  O305     1.0000 0.07599  0.89351  0.58407  Biso   1.000  O
  C476     1.0000 0.01550  0.88047  0.69982  Biso   1.000  C
  H680     1.0000 0.10150  0.95790  0.64229  Biso   1.000  H
  C477     1.0000 0.01550  0.88052  0.69982  Biso   1.000  C
  O306     1.0000 0.07605  0.89351  0.58407  Biso   1.000  O
  O307     1.0000 0.94353  0.55668  0.04670  Biso   1.000  O
  C478     1.0000 0.82600  0.55898  0.12470  Biso   1.000  C
  H681     1.0000 0.88741  0.64678  0.06130  Biso   1.000  H
  O308     1.0000 0.94353  0.55673  0.04670  Biso   1.000  O
  C479     1.0000 0.82600  0.55903  0.12470  Biso   1.000  C
  H682     1.0000 0.88741  0.64683  0.06130  Biso   1.000  H
  C480     1.0000 0.08502  0.61288  0.04450  Biso   1.000  C
  O309     1.0000 0.11791  0.66920  0.13412  Biso   1.000  O
  H683     1.0000 0.01902  0.70031  0.06669  Biso   1.000  H
  C481     1.0000 0.08502  0.61294  0.04450  Biso   1.000  C
  C482     1.0000 0.93222  0.84489  0.69082  Biso   1.000  C
  C483     1.0000 0.78002  0.87530  0.64119  Biso   1.000  C
  H684     1.0000 0.85120  0.93220  0.69092  Biso   1.000  H
  H685     1.0000 0.06489  0.84260  0.60449  Biso   1.000  H
  H686     1.0000 0.06495  0.84260  0.60449  Biso   1.000  H
  O310     1.0000 0.08107  0.82560  0.72558  Biso   1.000  O
  H687     1.0000 0.00428  0.90769  0.73390  Biso   1.000  H
  O311     1.0000 0.08114  0.82560  0.72558  Biso   1.000  O
  H688     1.0000 0.00435  0.90769  0.73390  Biso   1.000  H
  C484     1.0000 0.01587  0.59340  0.00340  Biso   1.000  C
  C485     1.0000 0.01594  0.59340  0.00340  Biso   1.000  C
  H689     1.0000 0.78639  0.55580  0.08952  Biso   1.000  H
  H690     1.0000 0.84213  0.51048  0.15239  Biso   1.000  H
  H691     1.0000 0.79729  0.58468  0.15422  Biso   1.000  H
  H692     1.0000 0.84213  0.51053  0.15239  Biso   1.000  H
  H693     1.0000 0.79729  0.58473  0.15422  Biso   1.000  H
  H694     1.0000 0.78646  0.55580  0.08952  Biso   1.000  H
  H695     1.0000 0.79735  0.58468  0.15422  Biso   1.000  H
  O312     1.0000 0.13239  0.54812  0.08219  Biso   1.000  O
  H696     1.0000 0.12699  0.64569  0.01178  Biso   1.000  H
  H697     1.0000 0.12699  0.64575  0.01178  Biso   1.000  H
  O313     1.0000 0.13246  0.54812  0.08219  Biso   1.000  O
  H698     1.0000 0.12706  0.64569  0.01178  Biso   1.000  H
  H699     1.0000 0.10179  0.71669  0.13669  Biso   1.000  H
  H700     1.0000 0.10178  0.71674  0.13669  Biso   1.000  H
  H701     1.0000 0.10185  0.71669  0.13669  Biso   1.000  H
  O314     1.0000 0.89562  0.80221  0.75751  Biso   1.000  O
  H702     1.0000 0.94367  0.81338  0.66061  Biso   1.000  H
  H703     1.0000 0.94373  0.81338  0.66061  Biso   1.000  H
  H704     1.0000 0.94373  0.81343  0.66061  Biso   1.000  H
  H705     1.0000 0.74133  0.91588  0.62109  Biso   1.000  H
  H706     1.0000 0.79190  0.84828  0.60831  Biso   1.000  H
  H707     1.0000 0.75231  0.84377  0.68312  Biso   1.000  H
  H708     1.0000 0.74132  0.91594  0.62109  Biso   1.000  H
  H709     1.0000 0.79190  0.84834  0.60831  Biso   1.000  H
  H710     1.0000 0.75230  0.84382  0.68312  Biso   1.000  H
  H711     1.0000 0.09841  0.82439  0.77102  Biso   1.000  H
  O315     1.0000 0.98881  0.65988  0.95377  Biso   1.000  O
  O316     1.0000 0.98881  0.65993  0.95377  Biso   1.000  O
  H712     1.0000 0.04188  0.56092  0.97801  Biso   1.000  H
  H713     1.0000 0.04195  0.56086  0.97801  Biso   1.000  H
  H714     1.0000 0.04194  0.56092  0.97801  Biso   1.000  H
  H715     1.0000 0.18199  0.52630  0.06518  Biso   1.000  H
  H716     1.0000 0.18199  0.52635  0.06518  Biso   1.000  H
  H717     1.0000 0.18206  0.52630  0.06518  Biso   1.000  H
  C486     1.0000 0.87020  0.72781  0.76290  Biso   1.000  C
  C487     1.0000 0.93601  0.64961  0.89739  Biso   1.000  C
  C488     1.0000 0.80682  0.70140  0.82719  Biso   1.000  C
  O317     1.0000 0.94411  0.68209  0.77002  Biso   1.000  O
  H718     1.0000 0.83949  0.72762  0.72081  Biso   1.000  H
  H719     1.0000 0.83949  0.72757  0.72081  Biso   1.000  H
  H720     1.0000 0.83956  0.72762  0.72081  Biso   1.000  H
  C489     1.0000 0.85321  0.69633  0.89399  Biso   1.000  C
  C490     1.0000 0.99339  0.67548  0.83080  Biso   1.000  C
  H721     1.0000 0.92071  0.59781  0.90682  Biso   1.000  H
  C491     1.0000 0.85321  0.69628  0.89399  Biso   1.000  C
  H722     1.0000 0.92072  0.59776  0.90682  Biso   1.000  H
  C492     1.0000 0.99338  0.67553  0.83080  Biso   1.000  C
  C493     1.0000 0.99345  0.67553  0.83080  Biso   1.000  C
  O318     1.0000 0.77701  0.63049  0.82928  Biso   1.000  O
  H723     1.0000 0.75621  0.73521  0.82248  Biso   1.000  H
  O319     1.0000 0.77701  0.63055  0.82928  Biso   1.000  O
  O320     1.0000 0.79331  0.66992  0.95268  Biso   1.000  O
  H724     1.0000 0.87110  0.74589  0.89242  Biso   1.000  H
  C494     1.0000 0.06729  0.62378  0.82761  Biso   1.000  C
  H725     1.0000 0.01807  0.72349  0.82782  Biso   1.000  H
  H726     1.0000 0.01813  0.72349  0.82782  Biso   1.000  H
  C495     1.0000 0.06729  0.62383  0.82761  Biso   1.000  C
  C496     1.0000 0.06735  0.62378  0.82761  Biso   1.000  C
  H727     1.0000 0.74827  0.63270  0.78740  Biso   1.000  H
  H728     1.0000 0.74834  0.63270  0.78740  Biso   1.000  H
  H729     1.0000 0.73722  0.66121  0.93718  Biso   1.000  H
  H730     1.0000 0.10132  0.64281  0.78458  Biso   1.000  H
  H731     1.0000 0.10453  0.61849  0.86640  Biso   1.000  H
  H732     1.0000 0.04363  0.57690  0.82949  Biso   1.000  H
  O321     1.0000 0.20669  0.33008  0.04732  Biso   1.000  O
  C497     1.0000 0.14679  0.30367  0.10601  Biso   1.000  C
  C498     1.0000 0.14679  0.30372  0.10601  Biso   1.000  C
  C499     1.0000 0.14685  0.30372  0.10601  Biso   1.000  C
  H733     1.0000 0.26278  0.33879  0.06282  Biso   1.000  H
  H734     1.0000 0.26285  0.33879  0.06282  Biso   1.000  H
  C500     1.0000 0.19325  0.29860  0.17281  Biso   1.000  C
  C501     1.0000 0.19318  0.29860  0.17281  Biso   1.000  C
  H735     1.0000 0.12890  0.25411  0.10758  Biso   1.000  H
  C502     1.0000 0.06399  0.35039  0.10261  Biso   1.000  C
  O322     1.0000 0.20668  0.33013  0.04732  Biso   1.000  O
  O323     1.0000 0.20675  0.33008  0.04732  Biso   1.000  O
  C503     1.0000 0.06406  0.35039  0.10261  Biso   1.000  C
  C504     1.0000 0.12980  0.27219  0.23710  Biso   1.000  C
  O324     1.0000 0.22299  0.36951  0.17072  Biso   1.000  O
  H736     1.0000 0.24379  0.26479  0.17752  Biso   1.000  H
  C505     1.0000 0.12980  0.27224  0.23710  Biso   1.000  C
  O325     1.0000 0.22306  0.36951  0.17072  Biso   1.000  O
  H737     1.0000 0.24386  0.26479  0.17752  Biso   1.000  H
  C506     1.0000 0.00661  0.32452  0.16920  Biso   1.000  C
  C507     1.0000 0.00662  0.32447  0.16920  Biso   1.000  C
  O326     1.0000 0.01119  0.34012  0.04623  Biso   1.000  O
  H738     1.0000 0.07929  0.40219  0.09318  Biso   1.000  H
  O327     1.0000 0.01119  0.34008  0.04617  Biso   1.000  O
  H739     1.0000 0.07928  0.40224  0.09318  Biso   1.000  H
  O328     1.0000 0.01126  0.34013  0.04617  Biso   1.000  O
  H740     1.0000 0.07935  0.40219  0.09318  Biso   1.000  H
  O329     1.0000 0.05589  0.31791  0.22998  Biso   1.000  O
  O330     1.0000 0.10438  0.19779  0.24249  Biso   1.000  O
  H741     1.0000 0.16051  0.27238  0.27919  Biso   1.000  H
  O331     1.0000 0.10438  0.19784  0.24249  Biso   1.000  O
  H742     1.0000 0.16051  0.27243  0.27919  Biso   1.000  H
  O332     1.0000 0.10445  0.19779  0.24249  Biso   1.000  O
  O333     1.0000 0.05596  0.31791  0.22998  Biso   1.000  O
  H743     1.0000 0.25173  0.36730  0.21260  Biso   1.000  H
  C508     1.0000 0.93271  0.37622  0.17239  Biso   1.000  C
  H744     1.0000 0.98193  0.27651  0.17218  Biso   1.000  H
  C509     1.0000 0.93271  0.37617  0.17239  Biso   1.000  C
  C510     1.0000 0.98413  0.40660  0.99660  Biso   1.000  C
  C511     1.0000 0.06784  0.15511  0.30918  Biso   1.000  C
  C512     1.0000 0.06778  0.15511  0.30918  Biso   1.000  C
  H745     1.0000 0.89868  0.35719  0.21542  Biso   1.000  H
  H746     1.0000 0.89547  0.38151  0.13360  Biso   1.000  H
  H747     1.0000 0.95637  0.42310  0.17051  Biso   1.000  H
  H748     1.0000 0.89554  0.38151  0.13360  Biso   1.000  H
  H749     1.0000 0.95644  0.42310  0.17051  Biso   1.000  H
  H750     1.0000 0.89875  0.35719  0.21542  Biso   1.000  H
  C513     1.0000 0.91498  0.38712  0.95550  Biso   1.000  C
  C514     1.0000 0.91505  0.38706  0.95550  Biso   1.000  C
  C515     1.0000 0.91505  0.38712  0.95550  Biso   1.000  C
  H751     1.0000 0.95812  0.43908  0.02199  Biso   1.000  H
  H752     1.0000 0.95812  0.43914  0.02199  Biso   1.000  H
  O334     1.0000 0.05647  0.44332  0.95330  Biso   1.000  O
  O335     1.0000 0.05654  0.44327  0.95330  Biso   1.000  O
  O336     1.0000 0.05653  0.44332  0.95330  Biso   1.000  O
  C516     1.0000 0.13552  0.09672  0.34138  Biso   1.000  C
  H753     1.0000 0.05633  0.18662  0.33939  Biso   1.000  H
  C517     1.0000 0.98450  0.11953  0.30018  Biso   1.000  C
  C518     1.0000 0.98450  0.11948  0.30018  Biso   1.000  C
  C519     1.0000 0.98456  0.11953  0.30018  Biso   1.000  C
  H754     1.0000 0.05633  0.18657  0.33939  Biso   1.000  H
  O337     1.0000 0.86761  0.45188  0.91781  Biso   1.000  O
  C520     1.0000 0.95511  0.34622  0.90572  Biso   1.000  C
  H755     1.0000 0.87301  0.35431  0.98822  Biso   1.000  H
  C521     1.0000 0.95511  0.34617  0.90572  Biso   1.000  C
  O338     1.0000 0.86761  0.45193  0.91781  Biso   1.000  O
  C522     1.0000 0.09480  0.40162  0.90881  Biso   1.000  C
  C523     1.0000 0.09480  0.40157  0.90881  Biso   1.000  C
  O339     1.0000 0.10058  0.04682  0.40870  Biso   1.000  O
  C524     1.0000 0.21998  0.12470  0.35881  Biso   1.000  C
  H756     1.0000 0.14880  0.06780  0.30908  Biso   1.000  H
  H757     1.0000 0.14880  0.06785  0.30908  Biso   1.000  H
  O340     1.0000 0.10065  0.04682  0.40870  Biso   1.000  O
  C525     1.0000 0.22005  0.12470  0.35881  Biso   1.000  C
  C526     1.0000 0.94982  0.06792  0.36708  Biso   1.000  C
  O341     1.0000 0.91893  0.17440  0.27442  Biso   1.000  O
  H758     1.0000 0.99572  0.09231  0.26610  Biso   1.000  H
  H759     1.0000 0.81801  0.47370  0.93482  Biso   1.000  H
  O342     1.0000 0.88209  0.33080  0.86588  Biso   1.000  O
  H760     1.0000 0.98098  0.29969  0.93331  Biso   1.000  H
  H761     1.0000 0.98104  0.29969  0.93331  Biso   1.000  H
  O343     1.0000 0.88215  0.33080  0.86588  Biso   1.000  O
  C527     1.0000 0.02441  0.39130  0.86101  Biso   1.000  C
  C528     1.0000 0.17400  0.44102  0.87530  Biso   1.000  C
  H762     1.0000 0.11259  0.35322  0.93870  Biso   1.000  H
  C529     1.0000 0.17400  0.44097  0.87530  Biso   1.000  C
  H763     1.0000 0.11259  0.35317  0.93870  Biso   1.000  H
  H764     1.0000 0.11266  0.35322  0.93870  Biso   1.000  H
  C530     1.0000 0.02018  0.01242  0.39959  Biso   1.000  C
  C531     1.0000 0.02025  0.01242  0.39959  Biso   1.000  C
  H765     1.0000 0.20810  0.15172  0.39169  Biso   1.000  H
  H766     1.0000 0.25867  0.08412  0.37891  Biso   1.000  H
  H767     1.0000 0.24769  0.15623  0.31688  Biso   1.000  H
  H768     1.0000 0.25874  0.08406  0.37891  Biso   1.000  H
  H769     1.0000 0.24770  0.15618  0.31688  Biso   1.000  H
  H770     1.0000 0.25874  0.08412  0.37891  Biso   1.000  H
  H771     1.0000 0.24776  0.15623  0.31688  Biso   1.000  H
  O344     1.0000 0.92401  0.10649  0.41593  Biso   1.000  O
  H772     1.0000 0.89850  0.04210  0.35771  Biso   1.000  H
  H773     1.0000 0.90159  0.17561  0.22898  Biso   1.000  H
  H774     1.0000 0.90165  0.17561  0.22898  Biso   1.000  H
  H775     1.0000 0.89821  0.28331  0.86331  Biso   1.000  H
  H776     1.0000 0.99988  0.43900  0.83489  Biso   1.000  H
  H777     1.0000 0.99995  0.43900  0.83489  Biso   1.000  H
  O345     1.0000 0.05957  0.35369  0.81347  Biso   1.000  O
  O346     1.0000 0.05964  0.35369  0.81347  Biso   1.000  O
  O347     1.0000 0.05963  0.35374  0.81347  Biso   1.000  O
  H778     1.0000 0.21361  0.44420  0.91048  Biso   1.000  H
  H779     1.0000 0.15787  0.48952  0.84761  Biso   1.000  H
  H780     1.0000 0.20271  0.41532  0.84578  Biso   1.000  H
  H781     1.0000 0.15794  0.48947  0.84761  Biso   1.000  H
  H782     1.0000 0.15794  0.48952  0.84761  Biso   1.000  H
  H783     1.0000 0.99747  0.98439  0.44629  Biso   1.000  H
  H784     1.0000 0.99754  0.98439  0.44629  Biso   1.000  H
  H785     1.0000 0.99754  0.98444  0.44629  Biso   1.000  H
  O348     1.0000 0.03417  0.96321  0.36122  Biso   1.000  O
  O349     1.0000 0.03424  0.96321  0.36122  Biso   1.000  O
  H786     1.0000 0.93511  0.15740  0.39551  Biso   1.000  H
  C532     1.0000 0.07677  0.40039  0.74448  Biso   1.000  C
  C533     1.0000 0.07684  0.40039  0.74448  Biso   1.000  C
  C534     1.0000 0.07684  0.40044  0.74448  Biso   1.000  C
  C535     1.0000 0.06609  0.89078  0.39860  Biso   1.000  C
  C536     1.0000 0.06609  0.89083  0.39860  Biso   1.000  C
  C537     1.0000 0.06616  0.89083  0.39860  Biso   1.000  C
  C538     1.0000 0.13930  0.35731  0.70642  Biso   1.000  C
  O350     1.0000 0.00429  0.42649  0.70720  Biso   1.000  O
  H787     1.0000 0.10961  0.44272  0.74830  Biso   1.000  H
  C539     1.0000 0.13930  0.35726  0.70642  Biso   1.000  C
  O351     1.0000 0.00429  0.42654  0.70720  Biso   1.000  O
  O352     1.0000 0.00436  0.42649  0.70720  Biso   1.000  O
  C540     1.0000 0.98788  0.83820  0.41310  Biso   1.000  C
  C541     1.0000 0.98794  0.83820  0.41310  Biso   1.000  C
  C542     1.0000 0.13981  0.86751  0.35619  Biso   1.000  C
  H788     1.0000 0.08903  0.89210  0.44330  Biso   1.000  H
  O353     1.0000 0.16890  0.40681  0.64260  Biso   1.000  O
  C543     1.0000 0.08802  0.29378  0.69658  Biso   1.000  C
  H789     1.0000 0.19012  0.33819  0.73542  Biso   1.000  H
  C544     1.0000 0.08802  0.29384  0.69658  Biso   1.000  C
  C545     1.0000 0.95033  0.36868  0.69919  Biso   1.000  C
  C546     1.0000 0.95033  0.36873  0.69919  Biso   1.000  C
  C547     1.0000 0.91692  0.85329  0.46189  Biso   1.000  C
  H790     1.0000 0.96133  0.84120  0.36850  Biso   1.000  H
  O354     1.0000 0.01857  0.76402  0.44362  Biso   1.000  O
  O355     1.0000 0.01863  0.76397  0.44362  Biso   1.000  O
  O356     1.0000 0.01863  0.76402  0.44362  Biso   1.000  O
  C548     1.0000 0.16503  0.78713  0.39268  Biso   1.000  C
  O357     1.0000 0.21298  0.91409  0.34462  Biso   1.000  O
  H791     1.0000 0.11690  0.86991  0.31049  Biso   1.000  H
  C549     1.0000 0.16503  0.78708  0.39268  Biso   1.000  C
  O358     1.0000 0.21305  0.91409  0.34462  Biso   1.000  O
  H792     1.0000 0.13662  0.44000  0.60679  Biso   1.000  H
  O359     1.0000 0.14163  0.25478  0.65909  Biso   1.000  O
  C550     1.0000 0.00491  0.32248  0.66040  Biso   1.000  C
  H793     1.0000 0.07221  0.26021  0.74291  Biso   1.000  H
  O360     1.0000 0.14163  0.25483  0.65909  Biso   1.000  O
  C551     1.0000 0.00491  0.32253  0.66040  Biso   1.000  C
  C552     1.0000 0.87131  0.40668  0.65888  Biso   1.000  C
  H794     1.0000 0.93017  0.33739  0.74542  Biso   1.000  H
  H795     1.0000 0.93024  0.33739  0.74542  Biso   1.000  H
  C553     1.0000 0.87131  0.40673  0.65888  Biso   1.000  C
  H796     1.0000 0.87038  0.81809  0.46838  Biso   1.000  H
  H797     1.0000 0.89341  0.90182  0.44221  Biso   1.000  H
  H798     1.0000 0.94159  0.84961  0.50618  Biso   1.000  H
  H799     1.0000 0.87044  0.81809  0.46838  Biso   1.000  H
  H800     1.0000 0.89341  0.90177  0.44221  Biso   1.000  H
  H801     1.0000 0.87044  0.81814  0.46838  Biso   1.000  H
  H802     1.0000 0.94166  0.84961  0.50618  Biso   1.000  H
  C554     1.0000 0.08400  0.73958  0.40331  Biso   1.000  C
  C555     1.0000 0.08400  0.73963  0.40331  Biso   1.000  C
  O361     1.0000 0.20121  0.78132  0.45561  Biso   1.000  O
  H803     1.0000 0.20873  0.77069  0.36289  Biso   1.000  H
  O362     1.0000 0.20122  0.78127  0.45561  Biso   1.000  O
  H804     1.0000 0.20873  0.77074  0.36289  Biso   1.000  H
  H805     1.0000 0.21587  0.95020  0.30013  Biso   1.000  H
  H806     1.0000 0.21594  0.95021  0.30007  Biso   1.000  H
  H807     1.0000 0.21594  0.95020  0.30013  Biso   1.000  H
  H808     1.0000 0.15822  0.27668  0.61119  Biso   1.000  H
  H809     1.0000 0.15822  0.27673  0.61119  Biso   1.000  H
  O363     1.0000 0.94532  0.26192  0.66093  Biso   1.000  O
  O364     1.0000 0.94532  0.26186  0.66093  Biso   1.000  O
  H810     1.0000 0.01882  0.35201  0.61208  Biso   1.000  H
  H811     1.0000 0.83981  0.43457  0.68522  Biso   1.000  H
  H812     1.0000 0.83270  0.37063  0.65140  Biso   1.000  H
  H813     1.0000 0.89141  0.43903  0.61449  Biso   1.000  H
  H814     1.0000 0.83270  0.37057  0.65140  Biso   1.000  H
  H815     1.0000 0.89141  0.43897  0.61449  Biso   1.000  H
  H816     1.0000 0.83981  0.43462  0.68522  Biso   1.000  H
  O365     1.0000 0.05468  0.73808  0.33907  Biso   1.000  O
  H817     1.0000 0.10110  0.68952  0.42959  Biso   1.000  H
  O366     1.0000 0.05475  0.73808  0.33907  Biso   1.000  O
  H818     1.0000 0.10111  0.68947  0.42959  Biso   1.000  H
  O367     1.0000 0.05475  0.73814  0.33907  Biso   1.000  O
  H819     1.0000 0.24749  0.77669  0.48738  Biso   1.000  H
  H820     1.0000 0.24755  0.77669  0.48738  Biso   1.000  H
  C556     1.0000 0.91600  0.26042  0.59669  Biso   1.000  C
  C557     1.0000 0.91600  0.26037  0.59669  Biso   1.000  C
  C558     1.0000 0.99509  0.67752  0.33960  Biso   1.000  C
  C559     1.0000 0.99509  0.67747  0.33960  Biso   1.000  C
  C560     1.0000 0.99515  0.67752  0.33960  Biso   1.000  C
  C561     1.0000 0.83497  0.21287  0.60732  Biso   1.000  C
  O368     1.0000 0.98143  0.23598  0.55638  Biso   1.000  O
  H821     1.0000 0.89890  0.31048  0.57041  Biso   1.000  H
  C562     1.0000 0.83503  0.21287  0.60732  Biso   1.000  C
  C563     1.0000 0.83503  0.21292  0.60732  Biso   1.000  C
  O369     1.0000 0.98143  0.23603  0.55638  Biso   1.000  O
  H822     1.0000 0.89889  0.31053  0.57041  Biso   1.000  H
  H823     1.0000 0.89896  0.31048  0.57041  Biso   1.000  H
  C564     1.0000 0.91198  0.70622  0.30342  Biso   1.000  C
  H824     1.0000 0.98118  0.64799  0.38792  Biso   1.000  H
  C565     1.0000 0.91204  0.70616  0.30342  Biso   1.000  C
  H825     1.0000 0.98125  0.64799  0.38792  Biso   1.000  H
  C566     1.0000 0.91204  0.70622  0.30342  Biso   1.000  C
  C567     1.0000 0.04967  0.63132  0.30081  Biso   1.000  C
  C568     1.0000 0.04974  0.63127  0.30081  Biso   1.000  C
  C569     1.0000 0.04974  0.63132  0.30081  Biso   1.000  C
  O370     1.0000 0.79879  0.21868  0.54439  Biso   1.000  O
  C570     1.0000 0.86019  0.13249  0.64381  Biso   1.000  C
  H826     1.0000 0.79127  0.22931  0.63711  Biso   1.000  H
  H827     1.0000 0.79134  0.22931  0.63711  Biso   1.000  H
  O371     1.0000 0.79878  0.21873  0.54439  Biso   1.000  O
  O372     1.0000 0.79885  0.21873  0.54439  Biso   1.000  O
  C571     1.0000 0.86026  0.13249  0.64381  Biso   1.000  C
  C572     1.0000 0.01212  0.16180  0.58690  Biso   1.000  C
  C573     1.0000 0.86070  0.64269  0.29358  Biso   1.000  C
  O373     1.0000 0.85837  0.74522  0.34091  Biso   1.000  O
  H828     1.0000 0.92779  0.73979  0.25709  Biso   1.000  H
  O374     1.0000 0.85843  0.74517  0.34091  Biso   1.000  O
  C574     1.0000 0.86070  0.64274  0.29358  Biso   1.000  C
  O375     1.0000 0.85843  0.74522  0.34091  Biso   1.000  O
  C575     1.0000 0.86076  0.64269  0.29358  Biso   1.000  C
  H829     1.0000 0.92785  0.73979  0.25709  Biso   1.000  H
  O376     1.0000 0.99571  0.57351  0.29280  Biso   1.000  O
  C576     1.0000 0.12869  0.59332  0.34112  Biso   1.000  C
  H830     1.0000 0.06983  0.66261  0.25458  Biso   1.000  H
  C577     1.0000 0.12869  0.59327  0.34112  Biso   1.000  C
  C578     1.0000 0.12876  0.59332  0.34112  Biso   1.000  C
  H831     1.0000 0.75251  0.22331  0.51262  Biso   1.000  H
  O377     1.0000 0.78702  0.08591  0.65538  Biso   1.000  O
  C579     1.0000 0.93391  0.10922  0.60140  Biso   1.000  C
  H832     1.0000 0.88310  0.13009  0.68951  Biso   1.000  H
  C580     1.0000 0.93391  0.10917  0.60140  Biso   1.000  C
  C581     1.0000 0.08308  0.14671  0.53811  Biso   1.000  C
  H833     1.0000 0.03867  0.15880  0.63150  Biso   1.000  H
  C582     1.0000 0.08314  0.14671  0.53811  Biso   1.000  C
  H834     1.0000 0.03874  0.15880  0.63150  Biso   1.000  H
  C583     1.0000 0.92323  0.59961  0.25552  Biso   1.000  C
  O378     1.0000 0.83110  0.59319  0.35740  Biso   1.000  O
  H835     1.0000 0.80988  0.66181  0.26458  Biso   1.000  H
  C584     1.0000 0.92323  0.59956  0.25552  Biso   1.000  C
  H836     1.0000 0.80994  0.66181  0.26458  Biso   1.000  H
  O379     1.0000 0.83116  0.59319  0.35740  Biso   1.000  O
  H837     1.0000 0.84178  0.72332  0.38881  Biso   1.000  H
  H838     1.0000 0.84178  0.72327  0.38881  Biso   1.000  H
  H839     1.0000 0.84185  0.72332  0.38881  Biso   1.000  H
  H840     1.0000 0.16019  0.56543  0.31478  Biso   1.000  H
  H841     1.0000 0.16730  0.62937  0.34860  Biso   1.000  H
  H842     1.0000 0.10859  0.56097  0.38551  Biso   1.000  H
  H843     1.0000 0.16019  0.56538  0.31478  Biso   1.000  H
  H844     1.0000 0.16730  0.62943  0.34860  Biso   1.000  H
  H845     1.0000 0.10859  0.56103  0.38551  Biso   1.000  H
  H846     1.0000 0.16025  0.56543  0.31478  Biso   1.000  H
  H847     1.0000 0.10866  0.56103  0.38551  Biso   1.000  H
  H848     1.0000 0.78413  0.04980  0.69987  Biso   1.000  H
  O380     1.0000 0.96583  0.03679  0.63878  Biso   1.000  O
  H849     1.0000 0.91097  0.10790  0.55670  Biso   1.000  H
  H850     1.0000 0.91104  0.10790  0.55670  Biso   1.000  H
  H851     1.0000 0.12962  0.18191  0.53162  Biso   1.000  H
  H852     1.0000 0.10659  0.09818  0.55779  Biso   1.000  H
  H853     1.0000 0.05841  0.15039  0.49382  Biso   1.000  H
  H854     1.0000 0.10659  0.09823  0.55779  Biso   1.000  H
  H855     1.0000 0.10666  0.09823  0.55779  Biso   1.000  H
  O381     1.0000 0.94043  0.64631  0.18653  Biso   1.000  O
  H856     1.0000 0.89039  0.55728  0.25170  Biso   1.000  H
  O382     1.0000 0.94043  0.64626  0.18653  Biso   1.000  O
  H857     1.0000 0.89039  0.55734  0.25170  Biso   1.000  H
  H858     1.0000 0.89045  0.55728  0.25170  Biso   1.000  H
  H859     1.0000 0.86338  0.56000  0.39321  Biso   1.000  H
  H860     1.0000 0.86345  0.56000  0.39321  Biso   1.000  H
  C585     1.0000 0.97982  0.98758  0.60041  Biso   1.000  C
  C586     1.0000 0.97981  0.98763  0.60041  Biso   1.000  C
  C587     1.0000 0.97559  0.60870  0.13899  Biso   1.000  C
  C588     1.0000 0.97566  0.60870  0.13899  Biso   1.000  C
  O383     1.0000 0.89942  0.95318  0.59130  Biso   1.000  O
  O384     1.0000 0.89942  0.95324  0.59130  Biso   1.000  O
  C589     1.0000 0.05018  0.93208  0.63292  Biso   1.000  C
  C590     1.0000 0.05018  0.93213  0.63292  Biso   1.000  C
  C591     1.0000 0.05025  0.93208  0.63292  Biso   1.000  C
  H861     1.0000 0.00253  0.01561  0.55371  Biso   1.000  H
  C592     1.0000 0.90520  0.59838  0.09119  Biso   1.000  C
  C593     1.0000 0.90520  0.59843  0.09119  Biso   1.000  C
  C594     1.0000 0.04489  0.65378  0.09428  Biso   1.000  C
  H862     1.0000 0.00012  0.56100  0.16511  Biso   1.000  H
  C595     1.0000 0.04489  0.65383  0.09428  Biso   1.000  C
  C596     1.0000 0.04496  0.65383  0.09428  Biso   1.000  C
  C597     1.0000 0.86448  0.90328  0.65862  Biso   1.000  C
  C598     1.0000 0.86454  0.90328  0.65862  Biso   1.000  C
  C599     1.0000 0.86454  0.90333  0.65862  Biso   1.000  C
  O385     1.0000 0.07599  0.89351  0.58407  Biso   1.000  O
  C600     1.0000 0.01550  0.88047  0.69982  Biso   1.000  C
  H863     1.0000 0.10150  0.95790  0.64229  Biso   1.000  H
  C601     1.0000 0.01550  0.88052  0.69982  Biso   1.000  C
  O386     1.0000 0.07605  0.89351  0.58407  Biso   1.000  O
  O387     1.0000 0.94353  0.55668  0.04670  Biso   1.000  O
  C602     1.0000 0.82600  0.55898  0.12470  Biso   1.000  C
  H864     1.0000 0.88741  0.64678  0.06130  Biso   1.000  H
  O388     1.0000 0.94353  0.55673  0.04670  Biso   1.000  O
  C603     1.0000 0.82600  0.55903  0.12470  Biso   1.000  C
  H865     1.0000 0.88741  0.64683  0.06130  Biso   1.000  H
  C604     1.0000 0.08502  0.61288  0.04450  Biso   1.000  C
  O389     1.0000 0.11791  0.66920  0.13412  Biso   1.000  O
  H866     1.0000 0.01902  0.70031  0.06669  Biso   1.000  H
  C605     1.0000 0.08502  0.61294  0.04450  Biso   1.000  C
  C606     1.0000 0.93222  0.84489  0.69082  Biso   1.000  C
  C607     1.0000 0.78002  0.87530  0.64119  Biso   1.000  C
  H867     1.0000 0.85120  0.93220  0.69092  Biso   1.000  H
  H868     1.0000 0.06489  0.84260  0.60449  Biso   1.000  H
  H869     1.0000 0.06495  0.84260  0.60449  Biso   1.000  H
  O390     1.0000 0.08107  0.82560  0.72558  Biso   1.000  O
  H870     1.0000 0.00428  0.90769  0.73390  Biso   1.000  H
  O391     1.0000 0.08114  0.82560  0.72558  Biso   1.000  O
  H871     1.0000 0.00435  0.90769  0.73390  Biso   1.000  H
  C608     1.0000 0.01587  0.59340  0.00340  Biso   1.000  C
  C609     1.0000 0.01594  0.59340  0.00340  Biso   1.000  C
  H872     1.0000 0.78639  0.55580  0.08952  Biso   1.000  H
  H873     1.0000 0.84213  0.51048  0.15239  Biso   1.000  H
  H874     1.0000 0.79729  0.58468  0.15422  Biso   1.000  H
  H875     1.0000 0.84213  0.51053  0.15239  Biso   1.000  H
  H876     1.0000 0.79729  0.58473  0.15422  Biso   1.000  H
  H877     1.0000 0.78646  0.55580  0.08952  Biso   1.000  H
  H878     1.0000 0.79735  0.58468  0.15422  Biso   1.000  H
  O392     1.0000 0.13239  0.54812  0.08219  Biso   1.000  O
  H879     1.0000 0.12699  0.64569  0.01178  Biso   1.000  H
  H880     1.0000 0.12699  0.64575  0.01178  Biso   1.000  H
  O393     1.0000 0.13246  0.54812  0.08219  Biso   1.000  O
  H881     1.0000 0.12706  0.64569  0.01178  Biso   1.000  H
  H882     1.0000 0.10179  0.71669  0.13669  Biso   1.000  H
  H883     1.0000 0.10178  0.71674  0.13669  Biso   1.000  H
  H884     1.0000 0.10185  0.71669  0.13669  Biso   1.000  H
  O394     1.0000 0.89562  0.80221  0.75751  Biso   1.000  O
  H885     1.0000 0.94367  0.81338  0.66061  Biso   1.000  H
  H886     1.0000 0.94373  0.81338  0.66061  Biso   1.000  H
  H887     1.0000 0.94373  0.81343  0.66061  Biso   1.000  H
  H888     1.0000 0.74133  0.91588  0.62109  Biso   1.000  H
  H889     1.0000 0.79190  0.84828  0.60831  Biso   1.000  H
  H890     1.0000 0.75231  0.84377  0.68312  Biso   1.000  H
  H891     1.0000 0.74132  0.91594  0.62109  Biso   1.000  H
  H892     1.0000 0.79190  0.84834  0.60831  Biso   1.000  H
  H893     1.0000 0.75230  0.84382  0.68312  Biso   1.000  H
  H894     1.0000 0.09841  0.82439  0.77102  Biso   1.000  H
  O395     1.0000 0.98881  0.65988  0.95377  Biso   1.000  O
  O396     1.0000 0.98881  0.65993  0.95377  Biso   1.000  O
  H895     1.0000 0.04188  0.56092  0.97801  Biso   1.000  H
  H896     1.0000 0.04195  0.56086  0.97801  Biso   1.000  H
  H897     1.0000 0.04194  0.56092  0.97801  Biso   1.000  H
  H898     1.0000 0.18199  0.52630  0.06518  Biso   1.000  H
  H899     1.0000 0.18199  0.52635  0.06518  Biso   1.000  H
  H900     1.0000 0.18206  0.52630  0.06518  Biso   1.000  H
  C610     1.0000 0.87020  0.72781  0.76290  Biso   1.000  C
  C611     1.0000 0.93601  0.64961  0.89739  Biso   1.000  C
  C612     1.0000 0.80682  0.70140  0.82719  Biso   1.000  C
  O397     1.0000 0.94411  0.68209  0.77002  Biso   1.000  O
  H901     1.0000 0.83949  0.72762  0.72081  Biso   1.000  H
  H902     1.0000 0.83949  0.72757  0.72081  Biso   1.000  H
  H903     1.0000 0.83956  0.72762  0.72081  Biso   1.000  H
  C613     1.0000 0.85321  0.69633  0.89399  Biso   1.000  C
  C614     1.0000 0.99339  0.67548  0.83080  Biso   1.000  C
  H904     1.0000 0.92071  0.59781  0.90682  Biso   1.000  H
  C615     1.0000 0.85321  0.69628  0.89399  Biso   1.000  C
  H905     1.0000 0.92072  0.59776  0.90682  Biso   1.000  H
  C616     1.0000 0.99338  0.67553  0.83080  Biso   1.000  C
  C617     1.0000 0.99345  0.67553  0.83080  Biso   1.000  C
  O398     1.0000 0.77701  0.63049  0.82928  Biso   1.000  O
  H906     1.0000 0.75621  0.73521  0.82248  Biso   1.000  H
  O399     1.0000 0.77701  0.63055  0.82928  Biso   1.000  O
  O400     1.0000 0.79331  0.66992  0.95268  Biso   1.000  O
  H907     1.0000 0.87110  0.74589  0.89242  Biso   1.000  H
  C618     1.0000 0.06729  0.62378  0.82761  Biso   1.000  C
  H908     1.0000 0.01807  0.72349  0.82782  Biso   1.000  H
  H909     1.0000 0.01813  0.72349  0.82782  Biso   1.000  H
  C619     1.0000 0.06729  0.62383  0.82761  Biso   1.000  C
  C620     1.0000 0.06735  0.62378  0.82761  Biso   1.000  C
  H910     1.0000 0.74827  0.63270  0.78740  Biso   1.000  H
  H911     1.0000 0.74834  0.63270  0.78740  Biso   1.000  H
  H912     1.0000 0.73722  0.66121  0.93718  Biso   1.000  H
  H913     1.0000 0.10132  0.64281  0.78458  Biso   1.000  H
  H914     1.0000 0.10453  0.61849  0.86640  Biso   1.000  H
  H915     1.0000 0.04363  0.57690  0.82949  Biso   1.000  H
  O401     1.0000 0.20669  0.33008  0.04732  Biso   1.000  O
  C621     1.0000 0.14679  0.30367  0.10601  Biso   1.000  C
  C622     1.0000 0.14679  0.30372  0.10601  Biso   1.000  C
  C623     1.0000 0.14685  0.30372  0.10601  Biso   1.000  C
  H916     1.0000 0.26278  0.33879  0.06282  Biso   1.000  H
  H917     1.0000 0.26285  0.33879  0.06282  Biso   1.000  H
  C624     1.0000 0.19325  0.29860  0.17281  Biso   1.000  C
  C625     1.0000 0.19318  0.29860  0.17281  Biso   1.000  C
  H918     1.0000 0.12890  0.25411  0.10758  Biso   1.000  H
  C626     1.0000 0.06399  0.35039  0.10261  Biso   1.000  C
  O402     1.0000 0.20668  0.33013  0.04732  Biso   1.000  O
  O403     1.0000 0.20675  0.33008  0.04732  Biso   1.000  O
  C627     1.0000 0.06406  0.35039  0.10261  Biso   1.000  C
  O404     1.0000 0.22299  0.36951  0.17072  Biso   1.000  O
  H919     1.0000 0.24379  0.26479  0.17752  Biso   1.000  H
  C628     1.0000 0.12980  0.27219  0.23710  Biso   1.000  C
  C629     1.0000 0.12980  0.27224  0.23710  Biso   1.000  C
  O405     1.0000 0.22306  0.36951  0.17072  Biso   1.000  O
  H920     1.0000 0.24386  0.26479  0.17752  Biso   1.000  H
  C630     1.0000 0.00661  0.32452  0.16920  Biso   1.000  C
  C631     1.0000 0.00662  0.32447  0.16920  Biso   1.000  C
  O406     1.0000 0.01119  0.34012  0.04623  Biso   1.000  O
  H921     1.0000 0.07929  0.40219  0.09318  Biso   1.000  H
  O407     1.0000 0.01119  0.34008  0.04617  Biso   1.000  O
  H922     1.0000 0.07928  0.40224  0.09318  Biso   1.000  H
  O408     1.0000 0.01126  0.34013  0.04617  Biso   1.000  O
  H923     1.0000 0.07935  0.40219  0.09318  Biso   1.000  H
  H924     1.0000 0.25173  0.36730  0.21260  Biso   1.000  H
  O409     1.0000 0.05589  0.31791  0.22998  Biso   1.000  O
  O410     1.0000 0.10438  0.19779  0.24249  Biso   1.000  O
  H925     1.0000 0.16051  0.27238  0.27919  Biso   1.000  H
  O411     1.0000 0.10438  0.19784  0.24249  Biso   1.000  O
  H926     1.0000 0.16051  0.27243  0.27919  Biso   1.000  H
  O412     1.0000 0.10445  0.19779  0.24249  Biso   1.000  O
  O413     1.0000 0.05596  0.31791  0.22998  Biso   1.000  O
  C632     1.0000 0.93271  0.37622  0.17239  Biso   1.000  C
  H927     1.0000 0.98193  0.27651  0.17218  Biso   1.000  H
  C633     1.0000 0.93271  0.37617  0.17239  Biso   1.000  C
  C634     1.0000 0.98413  0.40660  0.99660  Biso   1.000  C
  C635     1.0000 0.06784  0.15511  0.30918  Biso   1.000  C
  C636     1.0000 0.06778  0.15511  0.30918  Biso   1.000  C
  H928     1.0000 0.89868  0.35719  0.21542  Biso   1.000  H
  H929     1.0000 0.89547  0.38151  0.13360  Biso   1.000  H
  H930     1.0000 0.95637  0.42310  0.17051  Biso   1.000  H
  H931     1.0000 0.89554  0.38151  0.13360  Biso   1.000  H
  H932     1.0000 0.95644  0.42310  0.17051  Biso   1.000  H
  H933     1.0000 0.89875  0.35719  0.21542  Biso   1.000  H
  C637     1.0000 0.91498  0.38712  0.95550  Biso   1.000  C
  C638     1.0000 0.91505  0.38706  0.95550  Biso   1.000  C
  C639     1.0000 0.91505  0.38712  0.95550  Biso   1.000  C
  H934     1.0000 0.95812  0.43908  0.02199  Biso   1.000  H
  H935     1.0000 0.95812  0.43914  0.02199  Biso   1.000  H
  O414     1.0000 0.05647  0.44332  0.95330  Biso   1.000  O
  O415     1.0000 0.05654  0.44327  0.95330  Biso   1.000  O
  O416     1.0000 0.05653  0.44332  0.95330  Biso   1.000  O
  C640     1.0000 0.13552  0.09672  0.34138  Biso   1.000  C
  H936     1.0000 0.05633  0.18662  0.33939  Biso   1.000  H
  C641     1.0000 0.98450  0.11953  0.30018  Biso   1.000  C
  C642     1.0000 0.98450  0.11948  0.30018  Biso   1.000  C
  C643     1.0000 0.98456  0.11953  0.30018  Biso   1.000  C
  H937     1.0000 0.05633  0.18657  0.33939  Biso   1.000  H
  O417     1.0000 0.86761  0.45188  0.91781  Biso   1.000  O
  C644     1.0000 0.95511  0.34622  0.90572  Biso   1.000  C
  H938     1.0000 0.87301  0.35431  0.98822  Biso   1.000  H
  C645     1.0000 0.95511  0.34617  0.90572  Biso   1.000  C
  O418     1.0000 0.86761  0.45193  0.91781  Biso   1.000  O
  C646     1.0000 0.09480  0.40162  0.90881  Biso   1.000  C
  C647     1.0000 0.09480  0.40157  0.90881  Biso   1.000  C
  O419     1.0000 0.10058  0.04682  0.40870  Biso   1.000  O
  C648     1.0000 0.21998  0.12470  0.35881  Biso   1.000  C
  H939     1.0000 0.14880  0.06780  0.30908  Biso   1.000  H
  H940     1.0000 0.14880  0.06785  0.30908  Biso   1.000  H
  O420     1.0000 0.10065  0.04682  0.40870  Biso   1.000  O
  C649     1.0000 0.22005  0.12470  0.35881  Biso   1.000  C
  C650     1.0000 0.94982  0.06792  0.36708  Biso   1.000  C
  O421     1.0000 0.91893  0.17440  0.27442  Biso   1.000  O
  H941     1.0000 0.99572  0.09231  0.26610  Biso   1.000  H
  H942     1.0000 0.81801  0.47370  0.93482  Biso   1.000  H
  O422     1.0000 0.88209  0.33080  0.86588  Biso   1.000  O
  H943     1.0000 0.98098  0.29969  0.93331  Biso   1.000  H
  H944     1.0000 0.98104  0.29969  0.93331  Biso   1.000  H
  O423     1.0000 0.88215  0.33080  0.86588  Biso   1.000  O
  C651     1.0000 0.02441  0.39130  0.86101  Biso   1.000  C
  C652     1.0000 0.17400  0.44102  0.87530  Biso   1.000  C
  H945     1.0000 0.11259  0.35322  0.93870  Biso   1.000  H
  C653     1.0000 0.17400  0.44097  0.87530  Biso   1.000  C
  H946     1.0000 0.11259  0.35317  0.93870  Biso   1.000  H
  H947     1.0000 0.11266  0.35322  0.93870  Biso   1.000  H
  C654     1.0000 0.02018  0.01242  0.39959  Biso   1.000  C
  C655     1.0000 0.02025  0.01242  0.39959  Biso   1.000  C
  H948     1.0000 0.20810  0.15172  0.39169  Biso   1.000  H
  H949     1.0000 0.25867  0.08412  0.37891  Biso   1.000  H
  H950     1.0000 0.24769  0.15623  0.31688  Biso   1.000  H
  H951     1.0000 0.25874  0.08406  0.37891  Biso   1.000  H
  H952     1.0000 0.24770  0.15618  0.31688  Biso   1.000  H
  H953     1.0000 0.25874  0.08412  0.37891  Biso   1.000  H
  H954     1.0000 0.24776  0.15623  0.31688  Biso   1.000  H
  O424     1.0000 0.92401  0.10649  0.41593  Biso   1.000  O
  H955     1.0000 0.89850  0.04210  0.35771  Biso   1.000  H
  H956     1.0000 0.90159  0.17561  0.22898  Biso   1.000  H
  H957     1.0000 0.90165  0.17561  0.22898  Biso   1.000  H
  H958     1.0000 0.89821  0.28331  0.86331  Biso   1.000  H
  H959     1.0000 0.99988  0.43900  0.83489  Biso   1.000  H
  H960     1.0000 0.99995  0.43900  0.83489  Biso   1.000  H
  O425     1.0000 0.05957  0.35369  0.81347  Biso   1.000  O
  O426     1.0000 0.05964  0.35369  0.81347  Biso   1.000  O
  O427     1.0000 0.05963  0.35374  0.81347  Biso   1.000  O
  H961     1.0000 0.21361  0.44420  0.91048  Biso   1.000  H
  H962     1.0000 0.15787  0.48952  0.84761  Biso   1.000  H
  H963     1.0000 0.20271  0.41532  0.84578  Biso   1.000  H
  H964     1.0000 0.15794  0.48947  0.84761  Biso   1.000  H
  H965     1.0000 0.15794  0.48952  0.84761  Biso   1.000  H
  H966     1.0000 0.99747  0.98439  0.44629  Biso   1.000  H
  H967     1.0000 0.99754  0.98439  0.44629  Biso   1.000  H
  H968     1.0000 0.99754  0.98444  0.44629  Biso   1.000  H
  O428     1.0000 0.03417  0.96321  0.36122  Biso   1.000  O
  O429     1.0000 0.03424  0.96321  0.36122  Biso   1.000  O
  H969     1.0000 0.93511  0.15740  0.39551  Biso   1.000  H
  C656     1.0000 0.07677  0.40039  0.74448  Biso   1.000  C
  C657     1.0000 0.07684  0.40039  0.74448  Biso   1.000  C
  C658     1.0000 0.07684  0.40044  0.74448  Biso   1.000  C
  C659     1.0000 0.06609  0.89078  0.39860  Biso   1.000  C
  C660     1.0000 0.06609  0.89083  0.39860  Biso   1.000  C
  C661     1.0000 0.06616  0.89083  0.39860  Biso   1.000  C
  C662     1.0000 0.13930  0.35731  0.70642  Biso   1.000  C
  O430     1.0000 0.00429  0.42649  0.70720  Biso   1.000  O
  H970     1.0000 0.10961  0.44272  0.74830  Biso   1.000  H
  C663     1.0000 0.13930  0.35726  0.70642  Biso   1.000  C
  O431     1.0000 0.00429  0.42654  0.70720  Biso   1.000  O
  O432     1.0000 0.00436  0.42649  0.70720  Biso   1.000  O
  C664     1.0000 0.98788  0.83820  0.41310  Biso   1.000  C
  C665     1.0000 0.98794  0.83820  0.41310  Biso   1.000  C
  C666     1.0000 0.13981  0.86751  0.35619  Biso   1.000  C
  H971     1.0000 0.08903  0.89210  0.44330  Biso   1.000  H
  O433     1.0000 0.16890  0.40681  0.64260  Biso   1.000  O
  C667     1.0000 0.08802  0.29378  0.69658  Biso   1.000  C
  H972     1.0000 0.19012  0.33819  0.73542  Biso   1.000  H
  C668     1.0000 0.08802  0.29384  0.69658  Biso   1.000  C
  C669     1.0000 0.95033  0.36868  0.69919  Biso   1.000  C
  C670     1.0000 0.95033  0.36873  0.69919  Biso   1.000  C
  C671     1.0000 0.91692  0.85329  0.46189  Biso   1.000  C
  H973     1.0000 0.96133  0.84120  0.36850  Biso   1.000  H
  O434     1.0000 0.01857  0.76402  0.44362  Biso   1.000  O
  O435     1.0000 0.01863  0.76397  0.44362  Biso   1.000  O
  O436     1.0000 0.01863  0.76402  0.44362  Biso   1.000  O
  C672     1.0000 0.16503  0.78713  0.39268  Biso   1.000  C
  O437     1.0000 0.21298  0.91409  0.34462  Biso   1.000  O
  H974     1.0000 0.11690  0.86991  0.31049  Biso   1.000  H
  C673     1.0000 0.16503  0.78708  0.39268  Biso   1.000  C
  O438     1.0000 0.21305  0.91409  0.34462  Biso   1.000  O
  H975     1.0000 0.13662  0.44000  0.60679  Biso   1.000  H
  O439     1.0000 0.14163  0.25478  0.65909  Biso   1.000  O
  C674     1.0000 0.00491  0.32248  0.66040  Biso   1.000  C
  H976     1.0000 0.07221  0.26021  0.74291  Biso   1.000  H
  O440     1.0000 0.14163  0.25483  0.65909  Biso   1.000  O
  C675     1.0000 0.00491  0.32253  0.66040  Biso   1.000  C
  C676     1.0000 0.87131  0.40668  0.65888  Biso   1.000  C
  H977     1.0000 0.93017  0.33739  0.74542  Biso   1.000  H
  H978     1.0000 0.93024  0.33739  0.74542  Biso   1.000  H
  C677     1.0000 0.87131  0.40673  0.65888  Biso   1.000  C
  H979     1.0000 0.87038  0.81809  0.46838  Biso   1.000  H
  H980     1.0000 0.89341  0.90182  0.44221  Biso   1.000  H
  H981     1.0000 0.94159  0.84961  0.50618  Biso   1.000  H
  H982     1.0000 0.87044  0.81809  0.46838  Biso   1.000  H
  H983     1.0000 0.89341  0.90177  0.44221  Biso   1.000  H
  H984     1.0000 0.87044  0.81814  0.46838  Biso   1.000  H
  H985     1.0000 0.94166  0.84961  0.50618  Biso   1.000  H
  C678     1.0000 0.08400  0.73958  0.40331  Biso   1.000  C
  C679     1.0000 0.08400  0.73963  0.40331  Biso   1.000  C
  O441     1.0000 0.20121  0.78132  0.45561  Biso   1.000  O
  H986     1.0000 0.20873  0.77069  0.36289  Biso   1.000  H
  O442     1.0000 0.20122  0.78127  0.45561  Biso   1.000  O
  H987     1.0000 0.20873  0.77074  0.36289  Biso   1.000  H
  H988     1.0000 0.21587  0.95020  0.30013  Biso   1.000  H
  H989     1.0000 0.21594  0.95021  0.30007  Biso   1.000  H
  H990     1.0000 0.21594  0.95020  0.30013  Biso   1.000  H
  H991     1.0000 0.15822  0.27668  0.61119  Biso   1.000  H
  H992     1.0000 0.15822  0.27673  0.61119  Biso   1.000  H
  O443     1.0000 0.94532  0.26192  0.66093  Biso   1.000  O
  O444     1.0000 0.94532  0.26186  0.66093  Biso   1.000  O
  H993     1.0000 0.01882  0.35201  0.61208  Biso   1.000  H
  H994     1.0000 0.83981  0.43457  0.68522  Biso   1.000  H
  H995     1.0000 0.83270  0.37063  0.65140  Biso   1.000  H
  H996     1.0000 0.89141  0.43903  0.61449  Biso   1.000  H
  H997     1.0000 0.83270  0.37057  0.65140  Biso   1.000  H
  H998     1.0000 0.89141  0.43897  0.61449  Biso   1.000  H
  H999     1.0000 0.83981  0.43462  0.68522  Biso   1.000  H
  O445     1.0000 0.05468  0.73808  0.33907  Biso   1.000  O
  H1000    1.0000 0.10110  0.68952  0.42959  Biso   1.000  H
  O446     1.0000 0.05475  0.73808  0.33907  Biso   1.000  O
  H1001    1.0000 0.10111  0.68947  0.42959  Biso   1.000  H
  O447     1.0000 0.05475  0.73814  0.33907  Biso   1.000  O
  H1002    1.0000 0.24749  0.77669  0.48738  Biso   1.000  H
  H1003    1.0000 0.24755  0.77669  0.48738  Biso   1.000  H
  C680     1.0000 0.91600  0.26042  0.59669  Biso   1.000  C
  C681     1.0000 0.91600  0.26037  0.59669  Biso   1.000  C
  C682     1.0000 0.99509  0.67752  0.33960  Biso   1.000  C
  C683     1.0000 0.99509  0.67747  0.33960  Biso   1.000  C
  C684     1.0000 0.99515  0.67752  0.33960  Biso   1.000  C
  C685     1.0000 0.83497  0.21287  0.60732  Biso   1.000  C
  O448     1.0000 0.98143  0.23598  0.55638  Biso   1.000  O
  H1004    1.0000 0.89890  0.31048  0.57041  Biso   1.000  H
  C686     1.0000 0.83503  0.21287  0.60732  Biso   1.000  C
  C687     1.0000 0.83503  0.21292  0.60732  Biso   1.000  C
  O449     1.0000 0.98143  0.23603  0.55638  Biso   1.000  O
  H1005    1.0000 0.89889  0.31053  0.57041  Biso   1.000  H
  H1006    1.0000 0.89896  0.31048  0.57041  Biso   1.000  H
  C688     1.0000 0.91198  0.70622  0.30342  Biso   1.000  C
  H1007    1.0000 0.98118  0.64799  0.38792  Biso   1.000  H
  C689     1.0000 0.91204  0.70616  0.30342  Biso   1.000  C
  H1008    1.0000 0.98125  0.64799  0.38792  Biso   1.000  H
  C690     1.0000 0.91204  0.70622  0.30342  Biso   1.000  C
  C691     1.0000 0.04967  0.63132  0.30081  Biso   1.000  C
  C692     1.0000 0.04974  0.63127  0.30081  Biso   1.000  C
  C693     1.0000 0.04974  0.63132  0.30081  Biso   1.000  C
  O450     1.0000 0.79879  0.21868  0.54439  Biso   1.000  O
  C694     1.0000 0.86019  0.13249  0.64381  Biso   1.000  C
  H1009    1.0000 0.79127  0.22931  0.63711  Biso   1.000  H
  H1010    1.0000 0.79134  0.22931  0.63711  Biso   1.000  H
  O451     1.0000 0.79878  0.21873  0.54439  Biso   1.000  O
  O452     1.0000 0.79885  0.21873  0.54439  Biso   1.000  O
  C695     1.0000 0.86026  0.13249  0.64381  Biso   1.000  C
  C696     1.0000 0.01212  0.16180  0.58690  Biso   1.000  C
  C697     1.0000 0.86070  0.64269  0.29358  Biso   1.000  C
  O453     1.0000 0.85837  0.74522  0.34091  Biso   1.000  O
  H1011    1.0000 0.92779  0.73979  0.25709  Biso   1.000  H
  O454     1.0000 0.85843  0.74517  0.34091  Biso   1.000  O
  C698     1.0000 0.86070  0.64274  0.29358  Biso   1.000  C
  O455     1.0000 0.85843  0.74522  0.34091  Biso   1.000  O
  C699     1.0000 0.86076  0.64269  0.29358  Biso   1.000  C
  H1012    1.0000 0.92785  0.73979  0.25709  Biso   1.000  H
  O456     1.0000 0.99571  0.57351  0.29280  Biso   1.000  O
  C700     1.0000 0.12869  0.59332  0.34112  Biso   1.000  C
  H1013    1.0000 0.06983  0.66261  0.25458  Biso   1.000  H
  C701     1.0000 0.12869  0.59327  0.34112  Biso   1.000  C
  C702     1.0000 0.12876  0.59332  0.34112  Biso   1.000  C
  H1014    1.0000 0.75251  0.22331  0.51262  Biso   1.000  H
  O457     1.0000 0.78702  0.08591  0.65538  Biso   1.000  O
  C703     1.0000 0.93391  0.10922  0.60140  Biso   1.000  C
  H1015    1.0000 0.88310  0.13009  0.68951  Biso   1.000  H
  C704     1.0000 0.93391  0.10917  0.60140  Biso   1.000  C
  C705     1.0000 0.08308  0.14671  0.53811  Biso   1.000  C
  H1016    1.0000 0.03867  0.15880  0.63150  Biso   1.000  H
  C706     1.0000 0.08314  0.14671  0.53811  Biso   1.000  C
  H1017    1.0000 0.03874  0.15880  0.63150  Biso   1.000  H
  C707     1.0000 0.92323  0.59961  0.25552  Biso   1.000  C
  O458     1.0000 0.83110  0.59319  0.35740  Biso   1.000  O
  H1018    1.0000 0.80988  0.66181  0.26458  Biso   1.000  H
  C708     1.0000 0.92323  0.59956  0.25552  Biso   1.000  C
  H1019    1.0000 0.80994  0.66181  0.26458  Biso   1.000  H
  O459     1.0000 0.83116  0.59319  0.35740  Biso   1.000  O
  H1020    1.0000 0.84178  0.72332  0.38881  Biso   1.000  H
  H1021    1.0000 0.84178  0.72327  0.38881  Biso   1.000  H
  H1022    1.0000 0.84185  0.72332  0.38881  Biso   1.000  H
  H1023    1.0000 0.16019  0.56543  0.31478  Biso   1.000  H
  H1024    1.0000 0.16730  0.62937  0.34860  Biso   1.000  H
  H1025    1.0000 0.10859  0.56097  0.38551  Biso   1.000  H
  H1026    1.0000 0.16019  0.56538  0.31478  Biso   1.000  H
  H1027    1.0000 0.16730  0.62943  0.34860  Biso   1.000  H
  H1028    1.0000 0.10859  0.56103  0.38551  Biso   1.000  H
  H1029    1.0000 0.16025  0.56543  0.31478  Biso   1.000  H
  H1030    1.0000 0.10866  0.56103  0.38551  Biso   1.000  H
  H1031    1.0000 0.78413  0.04980  0.69987  Biso   1.000  H
  O460     1.0000 0.96583  0.03679  0.63878  Biso   1.000  O
  H1032    1.0000 0.91097  0.10790  0.55670  Biso   1.000  H
  H1033    1.0000 0.91104  0.10790  0.55670  Biso   1.000  H
  H1034    1.0000 0.12962  0.18191  0.53162  Biso   1.000  H
  H1035    1.0000 0.10659  0.09818  0.55779  Biso   1.000  H
  H1036    1.0000 0.05841  0.15039  0.49382  Biso   1.000  H
  H1037    1.0000 0.10659  0.09823  0.55779  Biso   1.000  H
  H1038    1.0000 0.10666  0.09823  0.55779  Biso   1.000  H
  O461     1.0000 0.94043  0.64631  0.18653  Biso   1.000  O
  H1039    1.0000 0.89039  0.55728  0.25170  Biso   1.000  H
  O462     1.0000 0.94043  0.64626  0.18653  Biso   1.000  O
  H1040    1.0000 0.89039  0.55734  0.25170  Biso   1.000  H
  H1041    1.0000 0.89045  0.55728  0.25170  Biso   1.000  H
  H1042    1.0000 0.86338  0.56000  0.39321  Biso   1.000  H
  H1043    1.0000 0.86345  0.56000  0.39321  Biso   1.000  H
  C709     1.0000 0.97982  0.98758  0.60041  Biso   1.000  C
  C710     1.0000 0.97981  0.98763  0.60041  Biso   1.000  C
  C711     1.0000 0.97559  0.60870  0.13899  Biso   1.000  C
  C712     1.0000 0.97566  0.60870  0.13899  Biso   1.000  C
  O463     1.0000 0.89942  0.95318  0.59130  Biso   1.000  O
  O464     1.0000 0.89942  0.95324  0.59130  Biso   1.000  O
  C713     1.0000 0.05018  0.93208  0.63292  Biso   1.000  C
  C714     1.0000 0.05018  0.93213  0.63292  Biso   1.000  C
  C715     1.0000 0.05025  0.93208  0.63292  Biso   1.000  C
  H1044    1.0000 0.00253  0.01561  0.55371  Biso   1.000  H
  C716     1.0000 0.90520  0.59838  0.09119  Biso   1.000  C
  C717     1.0000 0.90520  0.59843  0.09119  Biso   1.000  C
  C718     1.0000 0.04489  0.65378  0.09428  Biso   1.000  C
  H1045    1.0000 0.00012  0.56100  0.16511  Biso   1.000  H
  C719     1.0000 0.04489  0.65383  0.09428  Biso   1.000  C
  C720     1.0000 0.04496  0.65383  0.09428  Biso   1.000  C
  C721     1.0000 0.86448  0.90328  0.65862  Biso   1.000  C
  C722     1.0000 0.86454  0.90328  0.65862  Biso   1.000  C
  C723     1.0000 0.86454  0.90333  0.65862  Biso   1.000  C
  O465     1.0000 0.07599  0.89351  0.58407  Biso   1.000  O
  C724     1.0000 0.01550  0.88047  0.69982  Biso   1.000  C
  H1046    1.0000 0.10150  0.95790  0.64229  Biso   1.000  H
  C725     1.0000 0.01550  0.88052  0.69982  Biso   1.000  C
  O466     1.0000 0.07605  0.89351  0.58407  Biso   1.000  O
  O467     1.0000 0.94353  0.55668  0.04670  Biso   1.000  O
  C726     1.0000 0.82600  0.55898  0.12470  Biso   1.000  C
  H1047    1.0000 0.88741  0.64678  0.06130  Biso   1.000  H
  O468     1.0000 0.94353  0.55673  0.04670  Biso   1.000  O
  C727     1.0000 0.82600  0.55903  0.12470  Biso   1.000  C
  H1048    1.0000 0.88741  0.64683  0.06130  Biso   1.000  H
  C728     1.0000 0.08502  0.61288  0.04450  Biso   1.000  C
  O469     1.0000 0.11791  0.66920  0.13412  Biso   1.000  O
  H1049    1.0000 0.01902  0.70031  0.06669  Biso   1.000  H
  C729     1.0000 0.08502  0.61294  0.04450  Biso   1.000  C
  C730     1.0000 0.93222  0.84489  0.69082  Biso   1.000  C
  C731     1.0000 0.78002  0.87530  0.64119  Biso   1.000  C
  H1050    1.0000 0.85120  0.93220  0.69092  Biso   1.000  H
  H1051    1.0000 0.06489  0.84260  0.60449  Biso   1.000  H
  H1052    1.0000 0.06495  0.84260  0.60449  Biso   1.000  H
  O470     1.0000 0.08107  0.82560  0.72558  Biso   1.000  O
  H1053    1.0000 0.00428  0.90769  0.73390  Biso   1.000  H
  O471     1.0000 0.08114  0.82560  0.72558  Biso   1.000  O
  H1054    1.0000 0.00435  0.90769  0.73390  Biso   1.000  H
  C732     1.0000 0.01587  0.59340  0.00340  Biso   1.000  C
  C733     1.0000 0.01594  0.59340  0.00340  Biso   1.000  C
  H1055    1.0000 0.78639  0.55580  0.08952  Biso   1.000  H
  H1056    1.0000 0.84213  0.51048  0.15239  Biso   1.000  H
  H1057    1.0000 0.79729  0.58468  0.15422  Biso   1.000  H
  H1058    1.0000 0.84213  0.51053  0.15239  Biso   1.000  H
  H1059    1.0000 0.79729  0.58473  0.15422  Biso   1.000  H
  H1060    1.0000 0.78646  0.55580  0.08952  Biso   1.000  H
  H1061    1.0000 0.79735  0.58468  0.15422  Biso   1.000  H
  O472     1.0000 0.13239  0.54812  0.08219  Biso   1.000  O
  H1062    1.0000 0.12699  0.64569  0.01178  Biso   1.000  H
  H1063    1.0000 0.12699  0.64575  0.01178  Biso   1.000  H
  O473     1.0000 0.13246  0.54812  0.08219  Biso   1.000  O
  H1064    1.0000 0.12706  0.64569  0.01178  Biso   1.000  H
  H1065    1.0000 0.10179  0.71669  0.13669  Biso   1.000  H
  H1066    1.0000 0.10178  0.71674  0.13669  Biso   1.000  H
  H1067    1.0000 0.10185  0.71669  0.13669  Biso   1.000  H
  O474     1.0000 0.89562  0.80221  0.75751  Biso   1.000  O
  H1068    1.0000 0.94367  0.81338  0.66061  Biso   1.000  H
  H1069    1.0000 0.94373  0.81338  0.66061  Biso   1.000  H
  H1070    1.0000 0.94373  0.81343  0.66061  Biso   1.000  H
  H1071    1.0000 0.74133  0.91588  0.62109  Biso   1.000  H
  H1072    1.0000 0.79190  0.84828  0.60831  Biso   1.000  H
  H1073    1.0000 0.75231  0.84377  0.68312  Biso   1.000  H
  H1074    1.0000 0.74132  0.91594  0.62109  Biso   1.000  H
  H1075    1.0000 0.79190  0.84834  0.60831  Biso   1.000  H
  H1076    1.0000 0.75230  0.84382  0.68312  Biso   1.000  H
  H1077    1.0000 0.09841  0.82439  0.77102  Biso   1.000  H
  O475     1.0000 0.98881  0.65988  0.95377  Biso   1.000  O
  O476     1.0000 0.98881  0.65993  0.95377  Biso   1.000  O
  H1078    1.0000 0.04188  0.56092  0.97801  Biso   1.000  H
  H1079    1.0000 0.04195  0.56086  0.97801  Biso   1.000  H
  H1080    1.0000 0.04194  0.56092  0.97801  Biso   1.000  H
  H1081    1.0000 0.18199  0.52630  0.06518  Biso   1.000  H
  H1082    1.0000 0.18199  0.52635  0.06518  Biso   1.000  H
  H1083    1.0000 0.18206  0.52630  0.06518  Biso   1.000  H
  C734     1.0000 0.87020  0.72781  0.76290  Biso   1.000  C
  C735     1.0000 0.93601  0.64961  0.89739  Biso   1.000  C
  C736     1.0000 0.80682  0.70140  0.82719  Biso   1.000  C
  O477     1.0000 0.94411  0.68209  0.77002  Biso   1.000  O
  H1084    1.0000 0.83949  0.72762  0.72081  Biso   1.000  H
  H1085    1.0000 0.83949  0.72757  0.72081  Biso   1.000  H
  H1086    1.0000 0.83956  0.72762  0.72081  Biso   1.000  H
  C737     1.0000 0.85321  0.69633  0.89399  Biso   1.000  C
  C738     1.0000 0.99339  0.67548  0.83080  Biso   1.000  C
  H1087    1.0000 0.92071  0.59781  0.90682  Biso   1.000  H
  C739     1.0000 0.85321  0.69628  0.89399  Biso   1.000  C
  H1088    1.0000 0.92072  0.59776  0.90682  Biso   1.000  H
  C740     1.0000 0.99338  0.67553  0.83080  Biso   1.000  C
  C741     1.0000 0.99345  0.67553  0.83080  Biso   1.000  C
  O478     1.0000 0.77701  0.63049  0.82928  Biso   1.000  O
  H1089    1.0000 0.75621  0.73521  0.82248  Biso   1.000  H
  O479     1.0000 0.77701  0.63055  0.82928  Biso   1.000  O
  O480     1.0000 0.79331  0.66992  0.95268  Biso   1.000  O
  H1090    1.0000 0.87110  0.74589  0.89242  Biso   1.000  H
  C742     1.0000 0.06729  0.62378  0.82761  Biso   1.000  C
  H1091    1.0000 0.01807  0.72349  0.82782  Biso   1.000  H
  H1092    1.0000 0.01813  0.72349  0.82782  Biso   1.000  H
  C743     1.0000 0.06729  0.62383  0.82761  Biso   1.000  C
  C744     1.0000 0.06735  0.62378  0.82761  Biso   1.000  C
  H1093    1.0000 0.74827  0.63270  0.78740  Biso   1.000  H
  H1094    1.0000 0.74834  0.63270  0.78740  Biso   1.000  H
  H1095    1.0000 0.73722  0.66121  0.93718  Biso   1.000  H
  H1096    1.0000 0.10132  0.64281  0.78458  Biso   1.000  H
  H1097    1.0000 0.10453  0.61849  0.86640  Biso   1.000  H
  H1098    1.0000 0.04363  0.57690  0.82949  Biso   1.000  H
  O481     1.0000 0.20669  0.33008  0.04732  Biso   1.000  O
  C745     1.0000 0.14679  0.30367  0.10601  Biso   1.000  C
  C746     1.0000 0.14679  0.30372  0.10601  Biso   1.000  C
  C747     1.0000 0.14685  0.30372  0.10601  Biso   1.000  C
  H1099    1.0000 0.26278  0.33879  0.06282  Biso   1.000  H
  H1100    1.0000 0.26285  0.33879  0.06282  Biso   1.000  H
  C748     1.0000 0.19318  0.29860  0.17281  Biso   1.000  C
  C749     1.0000 0.19325  0.29860  0.17281  Biso   1.000  C
  H1101    1.0000 0.12890  0.25411  0.10758  Biso   1.000  H
  C750     1.0000 0.06399  0.35039  0.10261  Biso   1.000  C
  O482     1.0000 0.20668  0.33013  0.04732  Biso   1.000  O
  O483     1.0000 0.20675  0.33008  0.04732  Biso   1.000  O
  C751     1.0000 0.06406  0.35039  0.10261  Biso   1.000  C
  C752     1.0000 0.12980  0.27219  0.23710  Biso   1.000  C
  C753     1.0000 0.12980  0.27224  0.23710  Biso   1.000  C
  O484     1.0000 0.22299  0.36951  0.17072  Biso   1.000  O
  H1102    1.0000 0.24379  0.26479  0.17752  Biso   1.000  H
  O485     1.0000 0.22306  0.36951  0.17072  Biso   1.000  O
  H1103    1.0000 0.24386  0.26479  0.17752  Biso   1.000  H
  C754     1.0000 0.00661  0.32452  0.16920  Biso   1.000  C
  C755     1.0000 0.00662  0.32447  0.16920  Biso   1.000  C
  O486     1.0000 0.01119  0.34012  0.04623  Biso   1.000  O
  H1104    1.0000 0.07929  0.40219  0.09318  Biso   1.000  H
  O487     1.0000 0.01119  0.34008  0.04617  Biso   1.000  O
  H1105    1.0000 0.07928  0.40224  0.09318  Biso   1.000  H
  O488     1.0000 0.01126  0.34013  0.04617  Biso   1.000  O
  H1106    1.0000 0.07935  0.40219  0.09318  Biso   1.000  H
  O489     1.0000 0.10438  0.19779  0.24249  Biso   1.000  O
  O490     1.0000 0.10438  0.19784  0.24249  Biso   1.000  O
  O491     1.0000 0.10445  0.19779  0.24249  Biso   1.000  O
  O492     1.0000 0.05589  0.31791  0.22998  Biso   1.000  O
  H1107    1.0000 0.16051  0.27238  0.27919  Biso   1.000  H
  H1108    1.0000 0.16051  0.27243  0.27919  Biso   1.000  H
  O493     1.0000 0.05596  0.31791  0.22998  Biso   1.000  O
  H1109    1.0000 0.25173  0.36730  0.21260  Biso   1.000  H
  C756     1.0000 0.93271  0.37622  0.17239  Biso   1.000  C
  H1110    1.0000 0.98193  0.27651  0.17218  Biso   1.000  H
  C757     1.0000 0.93271  0.37617  0.17239  Biso   1.000  C
  C758     1.0000 0.98413  0.40660  0.99660  Biso   1.000  C
  C759     1.0000 0.06778  0.15511  0.30918  Biso   1.000  C
  C760     1.0000 0.06784  0.15511  0.30918  Biso   1.000  C
  H1111    1.0000 0.89868  0.35719  0.21542  Biso   1.000  H
  H1112    1.0000 0.89547  0.38151  0.13360  Biso   1.000  H
  H1113    1.0000 0.95637  0.42310  0.17051  Biso   1.000  H
  H1114    1.0000 0.89554  0.38151  0.13360  Biso   1.000  H
  H1115    1.0000 0.95644  0.42310  0.17051  Biso   1.000  H
  H1116    1.0000 0.89875  0.35719  0.21542  Biso   1.000  H
  C761     1.0000 0.91498  0.38712  0.95550  Biso   1.000  C
  C762     1.0000 0.91505  0.38706  0.95550  Biso   1.000  C
  C763     1.0000 0.91505  0.38712  0.95550  Biso   1.000  C
  H1117    1.0000 0.95812  0.43908  0.02199  Biso   1.000  H
  H1118    1.0000 0.95812  0.43914  0.02199  Biso   1.000  H
  O494     1.0000 0.05647  0.44332  0.95330  Biso   1.000  O
  O495     1.0000 0.05654  0.44327  0.95330  Biso   1.000  O
  O496     1.0000 0.05653  0.44332  0.95330  Biso   1.000  O
  C764     1.0000 0.13552  0.09672  0.34138  Biso   1.000  C
  C765     1.0000 0.98450  0.11953  0.30018  Biso   1.000  C
  C766     1.0000 0.98450  0.11948  0.30018  Biso   1.000  C
  C767     1.0000 0.98456  0.11953  0.30018  Biso   1.000  C
  H1119    1.0000 0.05633  0.18662  0.33939  Biso   1.000  H
  H1120    1.0000 0.05633  0.18657  0.33939  Biso   1.000  H
  O497     1.0000 0.86761  0.45188  0.91781  Biso   1.000  O
  C768     1.0000 0.95511  0.34622  0.90572  Biso   1.000  C
  H1121    1.0000 0.87301  0.35431  0.98822  Biso   1.000  H
  C769     1.0000 0.95511  0.34617  0.90572  Biso   1.000  C
  O498     1.0000 0.86761  0.45193  0.91781  Biso   1.000  O
  C770     1.0000 0.09480  0.40162  0.90881  Biso   1.000  C
  C771     1.0000 0.09480  0.40157  0.90881  Biso   1.000  C
  O499     1.0000 0.10058  0.04682  0.40870  Biso   1.000  O
  C772     1.0000 0.21998  0.12470  0.35881  Biso   1.000  C
  H1122    1.0000 0.14880  0.06780  0.30908  Biso   1.000  H
  H1123    1.0000 0.14880  0.06785  0.30908  Biso   1.000  H
  O500     1.0000 0.10065  0.04682  0.40870  Biso   1.000  O
  C773     1.0000 0.22005  0.12470  0.35881  Biso   1.000  C
  C774     1.0000 0.94982  0.06792  0.36708  Biso   1.000  C
  O501     1.0000 0.91893  0.17440  0.27442  Biso   1.000  O
  H1124    1.0000 0.99572  0.09231  0.26610  Biso   1.000  H
  H1125    1.0000 0.81801  0.47370  0.93482  Biso   1.000  H
  O502     1.0000 0.88209  0.33080  0.86588  Biso   1.000  O
  H1126    1.0000 0.98098  0.29969  0.93331  Biso   1.000  H
  H1127    1.0000 0.98104  0.29969  0.93331  Biso   1.000  H
  O503     1.0000 0.88215  0.33080  0.86588  Biso   1.000  O
  C775     1.0000 0.02441  0.39130  0.86101  Biso   1.000  C
  C776     1.0000 0.17400  0.44102  0.87530  Biso   1.000  C
  H1128    1.0000 0.11259  0.35322  0.93870  Biso   1.000  H
  C777     1.0000 0.17400  0.44097  0.87530  Biso   1.000  C
  H1129    1.0000 0.11259  0.35317  0.93870  Biso   1.000  H
  H1130    1.0000 0.11266  0.35322  0.93870  Biso   1.000  H
  C778     1.0000 0.02018  0.01242  0.39959  Biso   1.000  C
  C779     1.0000 0.02025  0.01242  0.39959  Biso   1.000  C
  H1131    1.0000 0.20810  0.15172  0.39169  Biso   1.000  H
  H1132    1.0000 0.25867  0.08412  0.37891  Biso   1.000  H
  H1133    1.0000 0.24769  0.15623  0.31688  Biso   1.000  H
  H1134    1.0000 0.25874  0.08406  0.37891  Biso   1.000  H
  H1135    1.0000 0.24770  0.15618  0.31688  Biso   1.000  H
  H1136    1.0000 0.25874  0.08412  0.37891  Biso   1.000  H
  H1137    1.0000 0.24776  0.15623  0.31688  Biso   1.000  H
  O504     1.0000 0.92401  0.10649  0.41593  Biso   1.000  O
  H1138    1.0000 0.89850  0.04210  0.35771  Biso   1.000  H
  H1139    1.0000 0.90159  0.17561  0.22898  Biso   1.000  H
  H1140    1.0000 0.90165  0.17561  0.22898  Biso   1.000  H
  H1141    1.0000 0.89821  0.28331  0.86331  Biso   1.000  H
  H1142    1.0000 0.99988  0.43900  0.83489  Biso   1.000  H
  H1143    1.0000 0.99995  0.43900  0.83489  Biso   1.000  H
  O505     1.0000 0.05957  0.35369  0.81347  Biso   1.000  O
  O506     1.0000 0.05964  0.35369  0.81347  Biso   1.000  O
  O507     1.0000 0.05963  0.35374  0.81347  Biso   1.000  O
  H1144    1.0000 0.21361  0.44420  0.91048  Biso   1.000  H
  H1145    1.0000 0.15787  0.48952  0.84761  Biso   1.000  H
  H1146    1.0000 0.20271  0.41532  0.84578  Biso   1.000  H
  H1147    1.0000 0.15794  0.48947  0.84761  Biso   1.000  H
  H1148    1.0000 0.15794  0.48952  0.84761  Biso   1.000  H
  H1149    1.0000 0.99747  0.98439  0.44629  Biso   1.000  H
  H1150    1.0000 0.99754  0.98439  0.44629  Biso   1.000  H
  H1151    1.0000 0.99754  0.98444  0.44629  Biso   1.000  H
  O508     1.0000 0.03417  0.96321  0.36122  Biso   1.000  O
  O509     1.0000 0.03424  0.96321  0.36122  Biso   1.000  O
  H1152    1.0000 0.93511  0.15740  0.39551  Biso   1.000  H
  C780     1.0000 0.07677  0.40039  0.74448  Biso   1.000  C
  C781     1.0000 0.07684  0.40039  0.74448  Biso   1.000  C
  C782     1.0000 0.07684  0.40044  0.74448  Biso   1.000  C
  C783     1.0000 0.06609  0.89078  0.39860  Biso   1.000  C
  C784     1.0000 0.06609  0.89083  0.39860  Biso   1.000  C
  C785     1.0000 0.06616  0.89083  0.39860  Biso   1.000  C
  C786     1.0000 0.13930  0.35731  0.70642  Biso   1.000  C
  O510     1.0000 0.00429  0.42649  0.70720  Biso   1.000  O
  H1153    1.0000 0.10961  0.44272  0.74830  Biso   1.000  H
  C787     1.0000 0.13930  0.35726  0.70642  Biso   1.000  C
  O511     1.0000 0.00429  0.42654  0.70720  Biso   1.000  O
  O512     1.0000 0.00436  0.42649  0.70720  Biso   1.000  O
  C788     1.0000 0.98788  0.83820  0.41310  Biso   1.000  C
  C789     1.0000 0.98794  0.83820  0.41310  Biso   1.000  C
  C790     1.0000 0.13981  0.86751  0.35619  Biso   1.000  C
  H1154    1.0000 0.08903  0.89210  0.44330  Biso   1.000  H
  O513     1.0000 0.16890  0.40681  0.64260  Biso   1.000  O
  C791     1.0000 0.08802  0.29378  0.69658  Biso   1.000  C
  H1155    1.0000 0.19012  0.33819  0.73542  Biso   1.000  H
  C792     1.0000 0.08802  0.29384  0.69658  Biso   1.000  C
  C793     1.0000 0.95033  0.36868  0.69919  Biso   1.000  C
  C794     1.0000 0.95033  0.36873  0.69919  Biso   1.000  C
  C795     1.0000 0.91692  0.85329  0.46189  Biso   1.000  C
  H1156    1.0000 0.96133  0.84120  0.36850  Biso   1.000  H
  O514     1.0000 0.01857  0.76402  0.44362  Biso   1.000  O
  O515     1.0000 0.01863  0.76397  0.44362  Biso   1.000  O
  O516     1.0000 0.01863  0.76402  0.44362  Biso   1.000  O
  C796     1.0000 0.16503  0.78713  0.39268  Biso   1.000  C
  O517     1.0000 0.21298  0.91409  0.34462  Biso   1.000  O
  H1157    1.0000 0.11690  0.86991  0.31049  Biso   1.000  H
  C797     1.0000 0.16503  0.78708  0.39268  Biso   1.000  C
  O518     1.0000 0.21305  0.91409  0.34462  Biso   1.000  O
  H1158    1.0000 0.13662  0.44000  0.60679  Biso   1.000  H
  O519     1.0000 0.14163  0.25478  0.65909  Biso   1.000  O
  C798     1.0000 0.00491  0.32248  0.66040  Biso   1.000  C
  H1159    1.0000 0.07221  0.26021  0.74291  Biso   1.000  H
  O520     1.0000 0.14163  0.25483  0.65909  Biso   1.000  O
  C799     1.0000 0.00491  0.32253  0.66040  Biso   1.000  C
  C800     1.0000 0.87131  0.40668  0.65888  Biso   1.000  C
  H1160    1.0000 0.93017  0.33739  0.74542  Biso   1.000  H
  H1161    1.0000 0.93024  0.33739  0.74542  Biso   1.000  H
  C801     1.0000 0.87131  0.40673  0.65888  Biso   1.000  C
  H1162    1.0000 0.87038  0.81809  0.46838  Biso   1.000  H
  H1163    1.0000 0.89341  0.90182  0.44221  Biso   1.000  H
  H1164    1.0000 0.94159  0.84961  0.50618  Biso   1.000  H
  H1165    1.0000 0.87044  0.81809  0.46838  Biso   1.000  H
  H1166    1.0000 0.89341  0.90177  0.44221  Biso   1.000  H
  H1167    1.0000 0.87044  0.81814  0.46838  Biso   1.000  H
  H1168    1.0000 0.94166  0.84961  0.50618  Biso   1.000  H
  C802     1.0000 0.08400  0.73958  0.40331  Biso   1.000  C
  C803     1.0000 0.08400  0.73963  0.40331  Biso   1.000  C
  O521     1.0000 0.20121  0.78132  0.45561  Biso   1.000  O
  H1169    1.0000 0.20873  0.77069  0.36289  Biso   1.000  H
  O522     1.0000 0.20122  0.78127  0.45561  Biso   1.000  O
  H1170    1.0000 0.20873  0.77074  0.36289  Biso   1.000  H
  H1171    1.0000 0.21587  0.95020  0.30013  Biso   1.000  H
  H1172    1.0000 0.21594  0.95021  0.30007  Biso   1.000  H
  H1173    1.0000 0.21594  0.95020  0.30013  Biso   1.000  H
  H1174    1.0000 0.15822  0.27668  0.61119  Biso   1.000  H
  H1175    1.0000 0.15822  0.27673  0.61119  Biso   1.000  H
  O523     1.0000 0.94532  0.26192  0.66093  Biso   1.000  O
  O524     1.0000 0.94532  0.26186  0.66093  Biso   1.000  O
  H1176    1.0000 0.01882  0.35201  0.61208  Biso   1.000  H
  H1177    1.0000 0.83981  0.43457  0.68522  Biso   1.000  H
  H1178    1.0000 0.83270  0.37063  0.65140  Biso   1.000  H
  H1179    1.0000 0.89141  0.43903  0.61449  Biso   1.000  H
  H1180    1.0000 0.83270  0.37057  0.65140  Biso   1.000  H
  H1181    1.0000 0.89141  0.43897  0.61449  Biso   1.000  H
  H1182    1.0000 0.83981  0.43462  0.68522  Biso   1.000  H
  O525     1.0000 0.05468  0.73808  0.33907  Biso   1.000  O
  H1183    1.0000 0.10110  0.68952  0.42959  Biso   1.000  H
  O526     1.0000 0.05475  0.73808  0.33907  Biso   1.000  O
  H1184    1.0000 0.10111  0.68947  0.42959  Biso   1.000  H
  O527     1.0000 0.05475  0.73814  0.33907  Biso   1.000  O
  H1185    1.0000 0.24749  0.77669  0.48738  Biso   1.000  H
  H1186    1.0000 0.24755  0.77669  0.48738  Biso   1.000  H
  C804     1.0000 0.91600  0.26042  0.59669  Biso   1.000  C
  C805     1.0000 0.91600  0.26037  0.59669  Biso   1.000  C
  C806     1.0000 0.99509  0.67752  0.33960  Biso   1.000  C
  C807     1.0000 0.99509  0.67747  0.33960  Biso   1.000  C
  C808     1.0000 0.99515  0.67752  0.33960  Biso   1.000  C
  C809     1.0000 0.83497  0.21287  0.60732  Biso   1.000  C
  O528     1.0000 0.98143  0.23598  0.55638  Biso   1.000  O
  H1187    1.0000 0.89890  0.31048  0.57041  Biso   1.000  H
  C810     1.0000 0.83503  0.21287  0.60732  Biso   1.000  C
  C811     1.0000 0.83503  0.21292  0.60732  Biso   1.000  C
  O529     1.0000 0.98143  0.23603  0.55638  Biso   1.000  O
  H1188    1.0000 0.89889  0.31053  0.57041  Biso   1.000  H
  H1189    1.0000 0.89896  0.31048  0.57041  Biso   1.000  H
  C812     1.0000 0.91198  0.70622  0.30342  Biso   1.000  C
  H1190    1.0000 0.98118  0.64799  0.38792  Biso   1.000  H
  C813     1.0000 0.91204  0.70616  0.30342  Biso   1.000  C
  H1191    1.0000 0.98125  0.64799  0.38792  Biso   1.000  H
  C814     1.0000 0.91204  0.70622  0.30342  Biso   1.000  C
  C815     1.0000 0.04967  0.63132  0.30081  Biso   1.000  C
  C816     1.0000 0.04974  0.63127  0.30081  Biso   1.000  C
  C817     1.0000 0.04974  0.63132  0.30081  Biso   1.000  C
  O530     1.0000 0.79879  0.21868  0.54439  Biso   1.000  O
  C818     1.0000 0.86019  0.13249  0.64381  Biso   1.000  C
  H1192    1.0000 0.79127  0.22931  0.63711  Biso   1.000  H
  H1193    1.0000 0.79134  0.22931  0.63711  Biso   1.000  H
  O531     1.0000 0.79878  0.21873  0.54439  Biso   1.000  O
  O532     1.0000 0.79885  0.21873  0.54439  Biso   1.000  O
  C819     1.0000 0.86026  0.13249  0.64381  Biso   1.000  C
  C820     1.0000 0.01212  0.16180  0.58690  Biso   1.000  C
  C821     1.0000 0.86070  0.64269  0.29358  Biso   1.000  C
  O533     1.0000 0.85837  0.74522  0.34091  Biso   1.000  O
  H1194    1.0000 0.92779  0.73979  0.25709  Biso   1.000  H
  O534     1.0000 0.85843  0.74517  0.34091  Biso   1.000  O
  C822     1.0000 0.86070  0.64274  0.29358  Biso   1.000  C
  O535     1.0000 0.85843  0.74522  0.34091  Biso   1.000  O
  C823     1.0000 0.86076  0.64269  0.29358  Biso   1.000  C
  H1195    1.0000 0.92785  0.73979  0.25709  Biso   1.000  H
  O536     1.0000 0.99571  0.57351  0.29280  Biso   1.000  O
  C824     1.0000 0.12869  0.59332  0.34112  Biso   1.000  C
  H1196    1.0000 0.06983  0.66261  0.25458  Biso   1.000  H
  C825     1.0000 0.12869  0.59327  0.34112  Biso   1.000  C
  C826     1.0000 0.12876  0.59332  0.34112  Biso   1.000  C
  H1197    1.0000 0.75251  0.22331  0.51262  Biso   1.000  H
  O537     1.0000 0.78702  0.08591  0.65538  Biso   1.000  O
  C827     1.0000 0.93391  0.10922  0.60140  Biso   1.000  C
  H1198    1.0000 0.88310  0.13009  0.68951  Biso   1.000  H
  C828     1.0000 0.93391  0.10917  0.60140  Biso   1.000  C
  C829     1.0000 0.08308  0.14671  0.53811  Biso   1.000  C
  H1199    1.0000 0.03867  0.15880  0.63150  Biso   1.000  H
  C830     1.0000 0.08314  0.14671  0.53811  Biso   1.000  C
  H1200    1.0000 0.03874  0.15880  0.63150  Biso   1.000  H
  C831     1.0000 0.92323  0.59961  0.25552  Biso   1.000  C
  O538     1.0000 0.83110  0.59319  0.35740  Biso   1.000  O
  H1201    1.0000 0.80988  0.66181  0.26458  Biso   1.000  H
  C832     1.0000 0.92323  0.59956  0.25552  Biso   1.000  C
  H1202    1.0000 0.80994  0.66181  0.26458  Biso   1.000  H
  O539     1.0000 0.83116  0.59319  0.35740  Biso   1.000  O
  H1203    1.0000 0.84178  0.72332  0.38881  Biso   1.000  H
  H1204    1.0000 0.84178  0.72327  0.38881  Biso   1.000  H
  H1205    1.0000 0.84185  0.72332  0.38881  Biso   1.000  H
  H1206    1.0000 0.16019  0.56543  0.31478  Biso   1.000  H
  H1207    1.0000 0.16730  0.62937  0.34860  Biso   1.000  H
  H1208    1.0000 0.10859  0.56097  0.38551  Biso   1.000  H
  H1209    1.0000 0.16019  0.56538  0.31478  Biso   1.000  H
  H1210    1.0000 0.16730  0.62943  0.34860  Biso   1.000  H
  H1211    1.0000 0.10859  0.56103  0.38551  Biso   1.000  H
  H1212    1.0000 0.16025  0.56543  0.31478  Biso   1.000  H
  H1213    1.0000 0.10866  0.56103  0.38551  Biso   1.000  H
  H1214    1.0000 0.78413  0.04980  0.69987  Biso   1.000  H
  O540     1.0000 0.96583  0.03679  0.63878  Biso   1.000  O
  H1215    1.0000 0.91097  0.10790  0.55670  Biso   1.000  H
  H1216    1.0000 0.91104  0.10790  0.55670  Biso   1.000  H
  H1217    1.0000 0.12962  0.18191  0.53162  Biso   1.000  H
  H1218    1.0000 0.10659  0.09818  0.55779  Biso   1.000  H
  H1219    1.0000 0.05841  0.15039  0.49382  Biso   1.000  H
  H1220    1.0000 0.10659  0.09823  0.55779  Biso   1.000  H
  H1221    1.0000 0.10666  0.09823  0.55779  Biso   1.000  H
  O541     1.0000 0.94043  0.64631  0.18653  Biso   1.000  O
  H1222    1.0000 0.89039  0.55728  0.25170  Biso   1.000  H
  O542     1.0000 0.94043  0.64626  0.18653  Biso   1.000  O
  H1223    1.0000 0.89039  0.55734  0.25170  Biso   1.000  H
  H1224    1.0000 0.89045  0.55728  0.25170  Biso   1.000  H
  H1225    1.0000 0.86338  0.56000  0.39321  Biso   1.000  H
  H1226    1.0000 0.86345  0.56000  0.39321  Biso   1.000  H
  C833     1.0000 0.97982  0.98758  0.60041  Biso   1.000  C
  C834     1.0000 0.97981  0.98763  0.60041  Biso   1.000  C
  C835     1.0000 0.97559  0.60870  0.13899  Biso   1.000  C
  C836     1.0000 0.97566  0.60870  0.13899  Biso   1.000  C
  O543     1.0000 0.89942  0.95318  0.59130  Biso   1.000  O
  O544     1.0000 0.89942  0.95324  0.59130  Biso   1.000  O
  C837     1.0000 0.05018  0.93208  0.63292  Biso   1.000  C
  C838     1.0000 0.05018  0.93213  0.63292  Biso   1.000  C
  C839     1.0000 0.05025  0.93208  0.63292  Biso   1.000  C
  H1227    1.0000 0.00253  0.01561  0.55371  Biso   1.000  H
  C840     1.0000 0.90520  0.59838  0.09119  Biso   1.000  C
  C841     1.0000 0.90520  0.59843  0.09119  Biso   1.000  C
  C842     1.0000 0.04489  0.65378  0.09428  Biso   1.000  C
  H1228    1.0000 0.00012  0.56100  0.16511  Biso   1.000  H
  C843     1.0000 0.04489  0.65383  0.09428  Biso   1.000  C
  C844     1.0000 0.04496  0.65383  0.09428  Biso   1.000  C
  C845     1.0000 0.86448  0.90328  0.65862  Biso   1.000  C
  C846     1.0000 0.86454  0.90328  0.65862  Biso   1.000  C
  C847     1.0000 0.86454  0.90333  0.65862  Biso   1.000  C
  O545     1.0000 0.07599  0.89351  0.58407  Biso   1.000  O
  C848     1.0000 0.01550  0.88047  0.69982  Biso   1.000  C
  H1229    1.0000 0.10150  0.95790  0.64229  Biso   1.000  H
  C849     1.0000 0.01550  0.88052  0.69982  Biso   1.000  C
  O546     1.0000 0.07605  0.89351  0.58407  Biso   1.000  O
  O547     1.0000 0.94353  0.55668  0.04670  Biso   1.000  O
  C850     1.0000 0.82600  0.55898  0.12470  Biso   1.000  C
  H1230    1.0000 0.88741  0.64678  0.06130  Biso   1.000  H
  O548     1.0000 0.94353  0.55673  0.04670  Biso   1.000  O
  C851     1.0000 0.82600  0.55903  0.12470  Biso   1.000  C
  H1231    1.0000 0.88741  0.64683  0.06130  Biso   1.000  H
  C852     1.0000 0.08502  0.61288  0.04450  Biso   1.000  C
  O549     1.0000 0.11791  0.66920  0.13412  Biso   1.000  O
  H1232    1.0000 0.01902  0.70031  0.06669  Biso   1.000  H
  C853     1.0000 0.08502  0.61294  0.04450  Biso   1.000  C
  C854     1.0000 0.93222  0.84489  0.69082  Biso   1.000  C
  C855     1.0000 0.78002  0.87530  0.64119  Biso   1.000  C
  H1233    1.0000 0.85120  0.93220  0.69092  Biso   1.000  H
  H1234    1.0000 0.06489  0.84260  0.60449  Biso   1.000  H
  H1235    1.0000 0.06495  0.84260  0.60449  Biso   1.000  H
  O550     1.0000 0.08107  0.82560  0.72558  Biso   1.000  O
  H1236    1.0000 0.00428  0.90769  0.73390  Biso   1.000  H
  O551     1.0000 0.08114  0.82560  0.72558  Biso   1.000  O
  H1237    1.0000 0.00435  0.90769  0.73390  Biso   1.000  H
  C856     1.0000 0.01587  0.59340  0.00340  Biso   1.000  C
  C857     1.0000 0.01594  0.59340  0.00340  Biso   1.000  C
  H1238    1.0000 0.78639  0.55580  0.08952  Biso   1.000  H
  H1239    1.0000 0.84213  0.51048  0.15239  Biso   1.000  H
  H1240    1.0000 0.79729  0.58468  0.15422  Biso   1.000  H
  H1241    1.0000 0.84213  0.51053  0.15239  Biso   1.000  H
  H1242    1.0000 0.79729  0.58473  0.15422  Biso   1.000  H
  H1243    1.0000 0.78646  0.55580  0.08952  Biso   1.000  H
  H1244    1.0000 0.79735  0.58468  0.15422  Biso   1.000  H
  O552     1.0000 0.13239  0.54812  0.08219  Biso   1.000  O
  H1245    1.0000 0.12699  0.64569  0.01178  Biso   1.000  H
  H1246    1.0000 0.12699  0.64575  0.01178  Biso   1.000  H
  O553     1.0000 0.13246  0.54812  0.08219  Biso   1.000  O
  H1247    1.0000 0.12706  0.64569  0.01178  Biso   1.000  H
  H1248    1.0000 0.10179  0.71669  0.13669  Biso   1.000  H
  H1249    1.0000 0.10178  0.71674  0.13669  Biso   1.000  H
  H1250    1.0000 0.10185  0.71669  0.13669  Biso   1.000  H
  O554     1.0000 0.89562  0.80221  0.75751  Biso   1.000  O
  H1251    1.0000 0.94367  0.81338  0.66061  Biso   1.000  H
  H1252    1.0000 0.94373  0.81338  0.66061  Biso   1.000  H
  H1253    1.0000 0.94373  0.81343  0.66061  Biso   1.000  H
  H1254    1.0000 0.74133  0.91588  0.62109  Biso   1.000  H
  H1255    1.0000 0.79190  0.84828  0.60831  Biso   1.000  H
  H1256    1.0000 0.75231  0.84377  0.68312  Biso   1.000  H
  H1257    1.0000 0.74132  0.91594  0.62109  Biso   1.000  H
  H1258    1.0000 0.79190  0.84834  0.60831  Biso   1.000  H
  H1259    1.0000 0.75230  0.84382  0.68312  Biso   1.000  H
  H1260    1.0000 0.09841  0.82439  0.77102  Biso   1.000  H
  O555     1.0000 0.98881  0.65988  0.95377  Biso   1.000  O
  O556     1.0000 0.98881  0.65993  0.95377  Biso   1.000  O
  H1261    1.0000 0.04188  0.56092  0.97801  Biso   1.000  H
  H1262    1.0000 0.04195  0.56086  0.97801  Biso   1.000  H
  H1263    1.0000 0.04194  0.56092  0.97801  Biso   1.000  H
  H1264    1.0000 0.18199  0.52630  0.06518  Biso   1.000  H
  H1265    1.0000 0.18199  0.52635  0.06518  Biso   1.000  H
  H1266    1.0000 0.18206  0.52630  0.06518  Biso   1.000  H
  C858     1.0000 0.87020  0.72781  0.76290  Biso   1.000  C
  C859     1.0000 0.93601  0.64961  0.89739  Biso   1.000  C
  C860     1.0000 0.80682  0.70140  0.82719  Biso   1.000  C
  O557     1.0000 0.94411  0.68209  0.77002  Biso   1.000  O
  H1267    1.0000 0.83949  0.72762  0.72081  Biso   1.000  H
  H1268    1.0000 0.83949  0.72757  0.72081  Biso   1.000  H
  H1269    1.0000 0.83956  0.72762  0.72081  Biso   1.000  H
  C861     1.0000 0.85321  0.69633  0.89399  Biso   1.000  C
  C862     1.0000 0.99339  0.67548  0.83080  Biso   1.000  C
  H1270    1.0000 0.92071  0.59781  0.90682  Biso   1.000  H
  C863     1.0000 0.85321  0.69628  0.89399  Biso   1.000  C
  H1271    1.0000 0.92072  0.59776  0.90682  Biso   1.000  H
  C864     1.0000 0.99338  0.67553  0.83080  Biso   1.000  C
  C865     1.0000 0.99345  0.67553  0.83080  Biso   1.000  C
  O558     1.0000 0.77701  0.63049  0.82928  Biso   1.000  O
  H1272    1.0000 0.75621  0.73521  0.82248  Biso   1.000  H
  O559     1.0000 0.77701  0.63055  0.82928  Biso   1.000  O
  O560     1.0000 0.79331  0.66992  0.95268  Biso   1.000  O
  H1273    1.0000 0.87110  0.74589  0.89242  Biso   1.000  H
  C866     1.0000 0.06729  0.62378  0.82761  Biso   1.000  C
  H1274    1.0000 0.01807  0.72349  0.82782  Biso   1.000  H
  H1275    1.0000 0.01813  0.72349  0.82782  Biso   1.000  H
  C867     1.0000 0.06729  0.62383  0.82761  Biso   1.000  C
  C868     1.0000 0.06735  0.62378  0.82761  Biso   1.000  C
  H1276    1.0000 0.74827  0.63270  0.78740  Biso   1.000  H
  H1277    1.0000 0.74834  0.63270  0.78740  Biso   1.000  H
  H1278    1.0000 0.73722  0.66121  0.93718  Biso   1.000  H
  H1279    1.0000 0.10132  0.64281  0.78458  Biso   1.000  H
  H1280    1.0000 0.10453  0.61849  0.86640  Biso   1.000  H
  H1281    1.0000 0.04363  0.57690  0.82949  Biso   1.000  H
  O561     1.0000 0.20669  0.33008  0.04732  Biso   1.000  O
  C869     1.0000 0.14679  0.30367  0.10601  Biso   1.000  C
  C870     1.0000 0.14679  0.30372  0.10601  Biso   1.000  C
  C871     1.0000 0.14685  0.30372  0.10601  Biso   1.000  C
  H1282    1.0000 0.26278  0.33879  0.06282  Biso   1.000  H
  H1283    1.0000 0.26285  0.33879  0.06282  Biso   1.000  H
  C872     1.0000 0.19318  0.29860  0.17281  Biso   1.000  C
  C873     1.0000 0.19325  0.29860  0.17281  Biso   1.000  C
  H1284    1.0000 0.12890  0.25411  0.10758  Biso   1.000  H
  C874     1.0000 0.06399  0.35039  0.10261  Biso   1.000  C
  O562     1.0000 0.20668  0.33013  0.04732  Biso   1.000  O
  O563     1.0000 0.20675  0.33008  0.04732  Biso   1.000  O
  C875     1.0000 0.06406  0.35039  0.10261  Biso   1.000  C
  C876     1.0000 0.12980  0.27219  0.23710  Biso   1.000  C
  C877     1.0000 0.12980  0.27224  0.23710  Biso   1.000  C
  O564     1.0000 0.22299  0.36951  0.17072  Biso   1.000  O
  H1285    1.0000 0.24379  0.26479  0.17752  Biso   1.000  H
  O565     1.0000 0.22306  0.36951  0.17072  Biso   1.000  O
  H1286    1.0000 0.24386  0.26479  0.17752  Biso   1.000  H
  C878     1.0000 0.00661  0.32452  0.16920  Biso   1.000  C
  C879     1.0000 0.00662  0.32447  0.16920  Biso   1.000  C
  O566     1.0000 0.01119  0.34012  0.04623  Biso   1.000  O
  H1287    1.0000 0.07929  0.40219  0.09318  Biso   1.000  H
  O567     1.0000 0.01119  0.34008  0.04617  Biso   1.000  O
  H1288    1.0000 0.07928  0.40224  0.09318  Biso   1.000  H
  O568     1.0000 0.01126  0.34013  0.04617  Biso   1.000  O
  H1289    1.0000 0.07935  0.40219  0.09318  Biso   1.000  H
  O569     1.0000 0.10438  0.19779  0.24249  Biso   1.000  O
  O570     1.0000 0.10438  0.19784  0.24249  Biso   1.000  O
  O571     1.0000 0.10445  0.19779  0.24249  Biso   1.000  O
  O572     1.0000 0.05589  0.31791  0.22998  Biso   1.000  O
  H1290    1.0000 0.16051  0.27238  0.27919  Biso   1.000  H
  H1291    1.0000 0.16051  0.27243  0.27919  Biso   1.000  H
  O573     1.0000 0.05596  0.31791  0.22998  Biso   1.000  O
  H1292    1.0000 0.25173  0.36730  0.21260  Biso   1.000  H
  C880     1.0000 0.93271  0.37622  0.17239  Biso   1.000  C
  H1293    1.0000 0.98193  0.27651  0.17218  Biso   1.000  H
  C881     1.0000 0.93271  0.37617  0.17239  Biso   1.000  C
  C882     1.0000 0.98413  0.40660  0.99660  Biso   1.000  C
  C883     1.0000 0.06778  0.15511  0.30918  Biso   1.000  C
  C884     1.0000 0.06784  0.15511  0.30918  Biso   1.000  C
  H1294    1.0000 0.89868  0.35719  0.21542  Biso   1.000  H
  H1295    1.0000 0.89547  0.38151  0.13360  Biso   1.000  H
  H1296    1.0000 0.95637  0.42310  0.17051  Biso   1.000  H
  H1297    1.0000 0.89554  0.38151  0.13360  Biso   1.000  H
  H1298    1.0000 0.95644  0.42310  0.17051  Biso   1.000  H
  H1299    1.0000 0.89875  0.35719  0.21542  Biso   1.000  H
  C885     1.0000 0.91498  0.38712  0.95550  Biso   1.000  C
  C886     1.0000 0.91505  0.38706  0.95550  Biso   1.000  C
  C887     1.0000 0.91505  0.38712  0.95550  Biso   1.000  C
  H1300    1.0000 0.95812  0.43908  0.02199  Biso   1.000  H
  H1301    1.0000 0.95812  0.43914  0.02199  Biso   1.000  H
  O574     1.0000 0.05647  0.44332  0.95330  Biso   1.000  O
  O575     1.0000 0.05654  0.44327  0.95330  Biso   1.000  O
  O576     1.0000 0.05653  0.44332  0.95330  Biso   1.000  O
  C888     1.0000 0.13552  0.09672  0.34138  Biso   1.000  C
  C889     1.0000 0.98450  0.11953  0.30018  Biso   1.000  C
  C890     1.0000 0.98450  0.11948  0.30018  Biso   1.000  C
  C891     1.0000 0.98456  0.11953  0.30018  Biso   1.000  C
  H1302    1.0000 0.05633  0.18662  0.33939  Biso   1.000  H
  H1303    1.0000 0.05633  0.18657  0.33939  Biso   1.000  H
  O577     1.0000 0.86761  0.45188  0.91781  Biso   1.000  O
  C892     1.0000 0.95511  0.34622  0.90572  Biso   1.000  C
  H1304    1.0000 0.87301  0.35431  0.98822  Biso   1.000  H
  C893     1.0000 0.95511  0.34617  0.90572  Biso   1.000  C
  O578     1.0000 0.86761  0.45193  0.91781  Biso   1.000  O
  C894     1.0000 0.09480  0.40162  0.90881  Biso   1.000  C
  C895     1.0000 0.09480  0.40157  0.90881  Biso   1.000  C
  O579     1.0000 0.10058  0.04682  0.40870  Biso   1.000  O
  C896     1.0000 0.21998  0.12470  0.35881  Biso   1.000  C
  H1305    1.0000 0.14880  0.06780  0.30908  Biso   1.000  H
  H1306    1.0000 0.14880  0.06785  0.30908  Biso   1.000  H
  O580     1.0000 0.10065  0.04682  0.40870  Biso   1.000  O
  C897     1.0000 0.22005  0.12470  0.35881  Biso   1.000  C
  C898     1.0000 0.94982  0.06792  0.36708  Biso   1.000  C
  O581     1.0000 0.91893  0.17440  0.27442  Biso   1.000  O
  H1307    1.0000 0.99572  0.09231  0.26610  Biso   1.000  H
  H1308    1.0000 0.81801  0.47370  0.93482  Biso   1.000  H
  O582     1.0000 0.88209  0.33080  0.86588  Biso   1.000  O
  H1309    1.0000 0.98098  0.29969  0.93331  Biso   1.000  H
  H1310    1.0000 0.98104  0.29969  0.93331  Biso   1.000  H
  O583     1.0000 0.88215  0.33080  0.86588  Biso   1.000  O
  C899     1.0000 0.02441  0.39130  0.86101  Biso   1.000  C
  C900     1.0000 0.17400  0.44102  0.87530  Biso   1.000  C
  H1311    1.0000 0.11259  0.35322  0.93870  Biso   1.000  H
  C901     1.0000 0.17400  0.44097  0.87530  Biso   1.000  C
  H1312    1.0000 0.11259  0.35317  0.93870  Biso   1.000  H
  H1313    1.0000 0.11266  0.35322  0.93870  Biso   1.000  H
  C902     1.0000 0.02018  0.01242  0.39959  Biso   1.000  C
  C903     1.0000 0.02025  0.01242  0.39959  Biso   1.000  C
  H1314    1.0000 0.20810  0.15172  0.39169  Biso   1.000  H
  H1315    1.0000 0.25867  0.08412  0.37891  Biso   1.000  H
  H1316    1.0000 0.24769  0.15623  0.31688  Biso   1.000  H
  H1317    1.0000 0.25874  0.08406  0.37891  Biso   1.000  H
  H1318    1.0000 0.24770  0.15618  0.31688  Biso   1.000  H
  H1319    1.0000 0.25874  0.08412  0.37891  Biso   1.000  H
  H1320    1.0000 0.24776  0.15623  0.31688  Biso   1.000  H
  O584     1.0000 0.92401  0.10649  0.41593  Biso   1.000  O
  H1321    1.0000 0.89850  0.04210  0.35771  Biso   1.000  H
  H1322    1.0000 0.90159  0.17561  0.22898  Biso   1.000  H
  H1323    1.0000 0.90165  0.17561  0.22898  Biso   1.000  H
  H1324    1.0000 0.89821  0.28331  0.86331  Biso   1.000  H
  H1325    1.0000 0.99988  0.43900  0.83489  Biso   1.000  H
  H1326    1.0000 0.99995  0.43900  0.83489  Biso   1.000  H
  O585     1.0000 0.05957  0.35369  0.81347  Biso   1.000  O
  O586     1.0000 0.05964  0.35369  0.81347  Biso   1.000  O
  O587     1.0000 0.05963  0.35374  0.81347  Biso   1.000  O
  H1327    1.0000 0.21361  0.44420  0.91048  Biso   1.000  H
  H1328    1.0000 0.15787  0.48952  0.84761  Biso   1.000  H
  H1329    1.0000 0.20271  0.41532  0.84578  Biso   1.000  H
  H1330    1.0000 0.15794  0.48947  0.84761  Biso   1.000  H
  H1331    1.0000 0.15794  0.48952  0.84761  Biso   1.000  H
  H1332    1.0000 0.99747  0.98439  0.44629  Biso   1.000  H
  H1333    1.0000 0.99754  0.98439  0.44629  Biso   1.000  H
  H1334    1.0000 0.99754  0.98444  0.44629  Biso   1.000  H
  O588     1.0000 0.03417  0.96321  0.36122  Biso   1.000  O
  O589     1.0000 0.03424  0.96321  0.36122  Biso   1.000  O
  H1335    1.0000 0.93511  0.15740  0.39551  Biso   1.000  H
  C904     1.0000 0.07677  0.40039  0.74448  Biso   1.000  C
  C905     1.0000 0.07684  0.40039  0.74448  Biso   1.000  C
  C906     1.0000 0.07684  0.40044  0.74448  Biso   1.000  C
  C907     1.0000 0.06609  0.89078  0.39860  Biso   1.000  C
  C908     1.0000 0.06609  0.89083  0.39860  Biso   1.000  C
  C909     1.0000 0.06616  0.89083  0.39860  Biso   1.000  C
  C910     1.0000 0.13930  0.35731  0.70642  Biso   1.000  C
  O590     1.0000 0.00429  0.42649  0.70720  Biso   1.000  O
  H1336    1.0000 0.10961  0.44272  0.74830  Biso   1.000  H
  C911     1.0000 0.13930  0.35726  0.70642  Biso   1.000  C
  O591     1.0000 0.00429  0.42654  0.70720  Biso   1.000  O
  O592     1.0000 0.00436  0.42649  0.70720  Biso   1.000  O
  C912     1.0000 0.98788  0.83820  0.41310  Biso   1.000  C
  C913     1.0000 0.98794  0.83820  0.41310  Biso   1.000  C
  C914     1.0000 0.13981  0.86751  0.35619  Biso   1.000  C
  H1337    1.0000 0.08903  0.89210  0.44330  Biso   1.000  H
  O593     1.0000 0.16890  0.40681  0.64260  Biso   1.000  O
  C915     1.0000 0.08802  0.29378  0.69658  Biso   1.000  C
  H1338    1.0000 0.19012  0.33819  0.73542  Biso   1.000  H
  C916     1.0000 0.08802  0.29384  0.69658  Biso   1.000  C
  C917     1.0000 0.95033  0.36868  0.69919  Biso   1.000  C
  C918     1.0000 0.95033  0.36873  0.69919  Biso   1.000  C
  C919     1.0000 0.91692  0.85329  0.46189  Biso   1.000  C
  H1339    1.0000 0.96133  0.84120  0.36850  Biso   1.000  H
  O594     1.0000 0.01857  0.76402  0.44362  Biso   1.000  O
  O595     1.0000 0.01863  0.76397  0.44362  Biso   1.000  O
  O596     1.0000 0.01863  0.76402  0.44362  Biso   1.000  O
  C920     1.0000 0.16503  0.78713  0.39268  Biso   1.000  C
  O597     1.0000 0.21298  0.91409  0.34462  Biso   1.000  O
  H1340    1.0000 0.11690  0.86991  0.31049  Biso   1.000  H
  C921     1.0000 0.16503  0.78708  0.39268  Biso   1.000  C
  O598     1.0000 0.21305  0.91409  0.34462  Biso   1.000  O
  H1341    1.0000 0.13662  0.44000  0.60679  Biso   1.000  H
  O599     1.0000 0.14163  0.25478  0.65909  Biso   1.000  O
  C922     1.0000 0.00491  0.32248  0.66040  Biso   1.000  C
  H1342    1.0000 0.07221  0.26021  0.74291  Biso   1.000  H
  O600     1.0000 0.14163  0.25483  0.65909  Biso   1.000  O
  C923     1.0000 0.00491  0.32253  0.66040  Biso   1.000  C
  C924     1.0000 0.87131  0.40668  0.65888  Biso   1.000  C
  H1343    1.0000 0.93017  0.33739  0.74542  Biso   1.000  H
  H1344    1.0000 0.93024  0.33739  0.74542  Biso   1.000  H
  C925     1.0000 0.87131  0.40673  0.65888  Biso   1.000  C
  H1345    1.0000 0.87038  0.81809  0.46838  Biso   1.000  H
  H1346    1.0000 0.89341  0.90182  0.44221  Biso   1.000  H
  H1347    1.0000 0.94159  0.84961  0.50618  Biso   1.000  H
  H1348    1.0000 0.87044  0.81809  0.46838  Biso   1.000  H
  H1349    1.0000 0.89341  0.90177  0.44221  Biso   1.000  H
  H1350    1.0000 0.87044  0.81814  0.46838  Biso   1.000  H
  H1351    1.0000 0.94166  0.84961  0.50618  Biso   1.000  H
  C926     1.0000 0.08400  0.73958  0.40331  Biso   1.000  C
  C927     1.0000 0.08400  0.73963  0.40331  Biso   1.000  C
  O601     1.0000 0.20121  0.78132  0.45561  Biso   1.000  O
  H1352    1.0000 0.20873  0.77069  0.36289  Biso   1.000  H
  O602     1.0000 0.20122  0.78127  0.45561  Biso   1.000  O
  H1353    1.0000 0.20873  0.77074  0.36289  Biso   1.000  H
  H1354    1.0000 0.21587  0.95020  0.30013  Biso   1.000  H
  H1355    1.0000 0.21594  0.95021  0.30007  Biso   1.000  H
  H1356    1.0000 0.21594  0.95020  0.30013  Biso   1.000  H
  H1357    1.0000 0.15822  0.27668  0.61119  Biso   1.000  H
  H1358    1.0000 0.15822  0.27673  0.61119  Biso   1.000  H
  O603     1.0000 0.94532  0.26192  0.66093  Biso   1.000  O
  O604     1.0000 0.94532  0.26186  0.66093  Biso   1.000  O
  H1359    1.0000 0.01882  0.35201  0.61208  Biso   1.000  H
  H1360    1.0000 0.83981  0.43457  0.68522  Biso   1.000  H
  H1361    1.0000 0.83270  0.37063  0.65140  Biso   1.000  H
  H1362    1.0000 0.89141  0.43903  0.61449  Biso   1.000  H
  H1363    1.0000 0.83270  0.37057  0.65140  Biso   1.000  H
  H1364    1.0000 0.89141  0.43897  0.61449  Biso   1.000  H
  H1365    1.0000 0.83981  0.43462  0.68522  Biso   1.000  H
  O605     1.0000 0.05468  0.73808  0.33907  Biso   1.000  O
  H1366    1.0000 0.10110  0.68952  0.42959  Biso   1.000  H
  O606     1.0000 0.05475  0.73808  0.33907  Biso   1.000  O
  H1367    1.0000 0.10111  0.68947  0.42959  Biso   1.000  H
  O607     1.0000 0.05475  0.73814  0.33907  Biso   1.000  O
  H1368    1.0000 0.24749  0.77669  0.48738  Biso   1.000  H
  H1369    1.0000 0.24755  0.77669  0.48738  Biso   1.000  H
  C928     1.0000 0.91600  0.26042  0.59669  Biso   1.000  C
  C929     1.0000 0.91600  0.26037  0.59669  Biso   1.000  C
  C930     1.0000 0.99509  0.67752  0.33960  Biso   1.000  C
  C931     1.0000 0.99509  0.67747  0.33960  Biso   1.000  C
  C932     1.0000 0.99515  0.67752  0.33960  Biso   1.000  C
  C933     1.0000 0.83497  0.21287  0.60732  Biso   1.000  C
  O608     1.0000 0.98143  0.23598  0.55638  Biso   1.000  O
  H1370    1.0000 0.89890  0.31048  0.57041  Biso   1.000  H
  C934     1.0000 0.83503  0.21287  0.60732  Biso   1.000  C
  C935     1.0000 0.83503  0.21292  0.60732  Biso   1.000  C
  O609     1.0000 0.98143  0.23603  0.55638  Biso   1.000  O
  H1371    1.0000 0.89889  0.31053  0.57041  Biso   1.000  H
  H1372    1.0000 0.89896  0.31048  0.57041  Biso   1.000  H
  C936     1.0000 0.91198  0.70622  0.30342  Biso   1.000  C
  H1373    1.0000 0.98118  0.64799  0.38792  Biso   1.000  H
  C937     1.0000 0.91204  0.70616  0.30342  Biso   1.000  C
  H1374    1.0000 0.98125  0.64799  0.38792  Biso   1.000  H
  C938     1.0000 0.91204  0.70622  0.30342  Biso   1.000  C
  C939     1.0000 0.04967  0.63132  0.30081  Biso   1.000  C
  C940     1.0000 0.04974  0.63127  0.30081  Biso   1.000  C
  C941     1.0000 0.04974  0.63132  0.30081  Biso   1.000  C
  O610     1.0000 0.79879  0.21868  0.54439  Biso   1.000  O
  C942     1.0000 0.86019  0.13249  0.64381  Biso   1.000  C
  H1375    1.0000 0.79127  0.22931  0.63711  Biso   1.000  H
  H1376    1.0000 0.79134  0.22931  0.63711  Biso   1.000  H
  O611     1.0000 0.79878  0.21873  0.54439  Biso   1.000  O
  O612     1.0000 0.79885  0.21873  0.54439  Biso   1.000  O
  C943     1.0000 0.86026  0.13249  0.64381  Biso   1.000  C
  C944     1.0000 0.01212  0.16180  0.58690  Biso   1.000  C
  C945     1.0000 0.86070  0.64269  0.29358  Biso   1.000  C
  O613     1.0000 0.85837  0.74522  0.34091  Biso   1.000  O
  H1377    1.0000 0.92779  0.73979  0.25709  Biso   1.000  H
  O614     1.0000 0.85843  0.74517  0.34091  Biso   1.000  O
  C946     1.0000 0.86070  0.64274  0.29358  Biso   1.000  C
  O615     1.0000 0.85843  0.74522  0.34091  Biso   1.000  O
  C947     1.0000 0.86076  0.64269  0.29358  Biso   1.000  C
  H1378    1.0000 0.92785  0.73979  0.25709  Biso   1.000  H
  O616     1.0000 0.99571  0.57351  0.29280  Biso   1.000  O
  C948     1.0000 0.12869  0.59332  0.34112  Biso   1.000  C
  H1379    1.0000 0.06983  0.66261  0.25458  Biso   1.000  H
  C949     1.0000 0.12869  0.59327  0.34112  Biso   1.000  C
  C950     1.0000 0.12876  0.59332  0.34112  Biso   1.000  C
  H1380    1.0000 0.75251  0.22331  0.51262  Biso   1.000  H
  O617     1.0000 0.78702  0.08591  0.65538  Biso   1.000  O
  C951     1.0000 0.93391  0.10922  0.60140  Biso   1.000  C
  H1381    1.0000 0.88310  0.13009  0.68951  Biso   1.000  H
  C952     1.0000 0.93391  0.10917  0.60140  Biso   1.000  C
  C953     1.0000 0.08308  0.14671  0.53811  Biso   1.000  C
  H1382    1.0000 0.03867  0.15880  0.63150  Biso   1.000  H
  C954     1.0000 0.08314  0.14671  0.53811  Biso   1.000  C
  H1383    1.0000 0.03874  0.15880  0.63150  Biso   1.000  H
  C955     1.0000 0.92323  0.59961  0.25552  Biso   1.000  C
  O618     1.0000 0.83110  0.59319  0.35740  Biso   1.000  O
  H1384    1.0000 0.80988  0.66181  0.26458  Biso   1.000  H
  C956     1.0000 0.92323  0.59956  0.25552  Biso   1.000  C
  H1385    1.0000 0.80994  0.66181  0.26458  Biso   1.000  H
  O619     1.0000 0.83116  0.59319  0.35740  Biso   1.000  O
  H1386    1.0000 0.84178  0.72332  0.38881  Biso   1.000  H
  H1387    1.0000 0.84178  0.72327  0.38881  Biso   1.000  H
  H1388    1.0000 0.84185  0.72332  0.38881  Biso   1.000  H
  H1389    1.0000 0.16019  0.56543  0.31478  Biso   1.000  H
  H1390    1.0000 0.16730  0.62937  0.34860  Biso   1.000  H
  H1391    1.0000 0.10859  0.56097  0.38551  Biso   1.000  H
  H1392    1.0000 0.16019  0.56538  0.31478  Biso   1.000  H
  H1393    1.0000 0.16730  0.62943  0.34860  Biso   1.000  H
  H1394    1.0000 0.10859  0.56103  0.38551  Biso   1.000  H
  H1395    1.0000 0.16025  0.56543  0.31478  Biso   1.000  H
  H1396    1.0000 0.10866  0.56103  0.38551  Biso   1.000  H
  H1397    1.0000 0.78413  0.04980  0.69987  Biso   1.000  H
  O620     1.0000 0.96583  0.03679  0.63878  Biso   1.000  O
  H1398    1.0000 0.91097  0.10790  0.55670  Biso   1.000  H
  H1399    1.0000 0.91104  0.10790  0.55670  Biso   1.000  H
  H1400    1.0000 0.12962  0.18191  0.53162  Biso   1.000  H
  H1401    1.0000 0.10659  0.09818  0.55779  Biso   1.000  H
  H1402    1.0000 0.05841  0.15039  0.49382  Biso   1.000  H
  H1403    1.0000 0.10659  0.09823  0.55779  Biso   1.000  H
  H1404    1.0000 0.10666  0.09823  0.55779  Biso   1.000  H
  O621     1.0000 0.94043  0.64631  0.18653  Biso   1.000  O
  H1405    1.0000 0.89039  0.55728  0.25170  Biso   1.000  H
  O622     1.0000 0.94043  0.64626  0.18653  Biso   1.000  O
  H1406    1.0000 0.89039  0.55734  0.25170  Biso   1.000  H
  H1407    1.0000 0.89045  0.55728  0.25170  Biso   1.000  H
  H1408    1.0000 0.86338  0.56000  0.39321  Biso   1.000  H
  H1409    1.0000 0.86345  0.56000  0.39321  Biso   1.000  H
  C957     1.0000 0.97982  0.98758  0.60041  Biso   1.000  C
  C958     1.0000 0.97981  0.98763  0.60041  Biso   1.000  C
  C959     1.0000 0.97559  0.60870  0.13899  Biso   1.000  C
  C960     1.0000 0.97566  0.60870  0.13899  Biso   1.000  C
  O623     1.0000 0.89942  0.95318  0.59130  Biso   1.000  O
  O624     1.0000 0.89942  0.95324  0.59130  Biso   1.000  O
  C961     1.0000 0.05018  0.93208  0.63292  Biso   1.000  C
  C962     1.0000 0.05018  0.93213  0.63292  Biso   1.000  C
  C963     1.0000 0.05025  0.93208  0.63292  Biso   1.000  C
  H1410    1.0000 0.00253  0.01561  0.55371  Biso   1.000  H
  C964     1.0000 0.90520  0.59838  0.09119  Biso   1.000  C
  C965     1.0000 0.90520  0.59843  0.09119  Biso   1.000  C
  C966     1.0000 0.04489  0.65378  0.09428  Biso   1.000  C
  H1411    1.0000 0.00012  0.56100  0.16511  Biso   1.000  H
  C967     1.0000 0.04489  0.65383  0.09428  Biso   1.000  C
  C968     1.0000 0.04496  0.65383  0.09428  Biso   1.000  C
  C969     1.0000 0.86448  0.90328  0.65862  Biso   1.000  C
  C970     1.0000 0.86454  0.90328  0.65862  Biso   1.000  C
  C971     1.0000 0.86454  0.90333  0.65862  Biso   1.000  C
  O625     1.0000 0.07599  0.89351  0.58407  Biso   1.000  O
  C972     1.0000 0.01550  0.88047  0.69982  Biso   1.000  C
  H1412    1.0000 0.10150  0.95790  0.64229  Biso   1.000  H
  C973     1.0000 0.01550  0.88052  0.69982  Biso   1.000  C
  O626     1.0000 0.07605  0.89351  0.58407  Biso   1.000  O
  O627     1.0000 0.94353  0.55668  0.04670  Biso   1.000  O
  C974     1.0000 0.82600  0.55898  0.12470  Biso   1.000  C
  H1413    1.0000 0.88741  0.64678  0.06130  Biso   1.000  H
  O628     1.0000 0.94353  0.55673  0.04670  Biso   1.000  O
  C975     1.0000 0.82600  0.55903  0.12470  Biso   1.000  C
  H1414    1.0000 0.88741  0.64683  0.06130  Biso   1.000  H
  C976     1.0000 0.08502  0.61288  0.04450  Biso   1.000  C
  O629     1.0000 0.11791  0.66920  0.13412  Biso   1.000  O
  H1415    1.0000 0.01902  0.70031  0.06669  Biso   1.000  H
  C977     1.0000 0.08502  0.61294  0.04450  Biso   1.000  C
  C978     1.0000 0.93222  0.84489  0.69082  Biso   1.000  C
  C979     1.0000 0.78002  0.87530  0.64119  Biso   1.000  C
  H1416    1.0000 0.85120  0.93220  0.69092  Biso   1.000  H
  H1417    1.0000 0.06489  0.84260  0.60449  Biso   1.000  H
  H1418    1.0000 0.06495  0.84260  0.60449  Biso   1.000  H
  O630     1.0000 0.08107  0.82560  0.72558  Biso   1.000  O
  H1419    1.0000 0.00428  0.90769  0.73390  Biso   1.000  H
  O631     1.0000 0.08114  0.82560  0.72558  Biso   1.000  O
  H1420    1.0000 0.00435  0.90769  0.73390  Biso   1.000  H
  C980     1.0000 0.01587  0.59340  0.00340  Biso   1.000  C
  C981     1.0000 0.01594  0.59340  0.00340  Biso   1.000  C
  H1421    1.0000 0.78639  0.55580  0.08952  Biso   1.000  H
  H1422    1.0000 0.84213  0.51048  0.15239  Biso   1.000  H
  H1423    1.0000 0.79729  0.58468  0.15422  Biso   1.000  H
  H1424    1.0000 0.84213  0.51053  0.15239  Biso   1.000  H
  H1425    1.0000 0.79729  0.58473  0.15422  Biso   1.000  H
  H1426    1.0000 0.78646  0.55580  0.08952  Biso   1.000  H
  H1427    1.0000 0.79735  0.58468  0.15422  Biso   1.000  H
  O632     1.0000 0.13239  0.54812  0.08219  Biso   1.000  O
  H1428    1.0000 0.12699  0.64569  0.01178  Biso   1.000  H
  H1429    1.0000 0.12699  0.64575  0.01178  Biso   1.000  H
  O633     1.0000 0.13246  0.54812  0.08219  Biso   1.000  O
  H1430    1.0000 0.12706  0.64569  0.01178  Biso   1.000  H
  H1431    1.0000 0.10179  0.71669  0.13669  Biso   1.000  H
  H1432    1.0000 0.10178  0.71674  0.13669  Biso   1.000  H
  H1433    1.0000 0.10185  0.71669  0.13669  Biso   1.000  H
  O634     1.0000 0.89562  0.80221  0.75751  Biso   1.000  O
  H1434    1.0000 0.94367  0.81338  0.66061  Biso   1.000  H
  H1435    1.0000 0.94373  0.81338  0.66061  Biso   1.000  H
  H1436    1.0000 0.94373  0.81343  0.66061  Biso   1.000  H
  H1437    1.0000 0.74133  0.91588  0.62109  Biso   1.000  H
  H1438    1.0000 0.79190  0.84828  0.60831  Biso   1.000  H
  H1439    1.0000 0.75231  0.84377  0.68312  Biso   1.000  H
  H1440    1.0000 0.74132  0.91594  0.62109  Biso   1.000  H
  H1441    1.0000 0.79190  0.84834  0.60831  Biso   1.000  H
  H1442    1.0000 0.75230  0.84382  0.68312  Biso   1.000  H
  H1443    1.0000 0.09841  0.82439  0.77102  Biso   1.000  H
  O635     1.0000 0.98881  0.65988  0.95377  Biso   1.000  O
  O636     1.0000 0.98881  0.65993  0.95377  Biso   1.000  O
  H1444    1.0000 0.04188  0.56092  0.97801  Biso   1.000  H
  H1445    1.0000 0.04195  0.56086  0.97801  Biso   1.000  H
  H1446    1.0000 0.04194  0.56092  0.97801  Biso   1.000  H
  H1447    1.0000 0.18199  0.52630  0.06518  Biso   1.000  H
  H1448    1.0000 0.18199  0.52635  0.06518  Biso   1.000  H
  H1449    1.0000 0.18206  0.52630  0.06518  Biso   1.000  H
  C982     1.0000 0.87020  0.72781  0.76290  Biso   1.000  C
  C983     1.0000 0.93601  0.64961  0.89739  Biso   1.000  C
  C984     1.0000 0.80682  0.70140  0.82719  Biso   1.000  C
  O637     1.0000 0.94411  0.68209  0.77002  Biso   1.000  O
  H1450    1.0000 0.83949  0.72762  0.72081  Biso   1.000  H
  H1451    1.0000 0.83949  0.72757  0.72081  Biso   1.000  H
  H1452    1.0000 0.83956  0.72762  0.72081  Biso   1.000  H
  C985     1.0000 0.85321  0.69633  0.89399  Biso   1.000  C
  C986     1.0000 0.99339  0.67548  0.83080  Biso   1.000  C
  H1453    1.0000 0.92071  0.59781  0.90682  Biso   1.000  H
  C987     1.0000 0.85321  0.69628  0.89399  Biso   1.000  C
  H1454    1.0000 0.92072  0.59776  0.90682  Biso   1.000  H
  C988     1.0000 0.99338  0.67553  0.83080  Biso   1.000  C
  C989     1.0000 0.99345  0.67553  0.83080  Biso   1.000  C
  O638     1.0000 0.77701  0.63049  0.82928  Biso   1.000  O
  H1455    1.0000 0.75621  0.73521  0.82248  Biso   1.000  H
  O639     1.0000 0.77701  0.63055  0.82928  Biso   1.000  O
  O640     1.0000 0.79331  0.66992  0.95268  Biso   1.000  O
  H1456    1.0000 0.87110  0.74589  0.89242  Biso   1.000  H
  C990     1.0000 0.06729  0.62378  0.82761  Biso   1.000  C
  H1457    1.0000 0.01807  0.72349  0.82782  Biso   1.000  H
  H1458    1.0000 0.01813  0.72349  0.82782  Biso   1.000  H
  C991     1.0000 0.06729  0.62383  0.82761  Biso   1.000  C
  C992     1.0000 0.06735  0.62378  0.82761  Biso   1.000  C
  H1459    1.0000 0.74827  0.63270  0.78740  Biso   1.000  H
  H1460    1.0000 0.74834  0.63270  0.78740  Biso   1.000  H
  H1461    1.0000 0.73722  0.66121  0.93718  Biso   1.000  H
  H1462    1.0000 0.10132  0.64281  0.78458  Biso   1.000  H
  H1463    1.0000 0.10453  0.61849  0.86640  Biso   1.000  H
  H1464    1.0000 0.04363  0.57690  0.82949  Biso   1.000  H
  O641     1.0000 0.40470  0.59606  0.95430  Biso   1.000  O
  C993     1.0000 0.47720  0.60838  0.98450  Biso   1.000  C
  C994     1.0000 0.36600  0.66398  0.91132  Biso   1.000  C
  O642     1.0000 0.46998  0.65059  0.03042  Biso   1.000  O
  O643     1.0000 0.47004  0.65059  0.03042  Biso   1.000  O
  H1465    1.0000 0.49951  0.56009  0.01152  Biso   1.000  H
  C995     1.0000 0.55301  0.64440  0.92912  Biso   1.000  C
  O644     1.0000 0.40470  0.59611  0.95430  Biso   1.000  O
  C996     1.0000 0.55301  0.64435  0.92912  Biso   1.000  C
  C997     1.0000 0.43090  0.69840  0.85049  Biso   1.000  C
  C998     1.0000 0.27937  0.64437  0.88870  Biso   1.000  C
  H1466    1.0000 0.35580  0.69779  0.93938  Biso   1.000  H
  C999     1.0000 0.27937  0.64443  0.88870  Biso   1.000  C
  C1000    1.0000 0.27944  0.64437  0.88870  Biso   1.000  C
  C1001    1.0000 0.43149  0.60846  0.09852  Biso   1.000  C
  C1002    1.0000 0.43149  0.60851  0.09852  Biso   1.000  C
  O645     1.0000 0.57796  0.59476  0.89111  Biso   1.000  O
  C1003    1.0000 0.51661  0.71528  0.87902  Biso   1.000  C
  H1467    1.0000 0.60397  0.65530  0.95278  Biso   1.000  H
  O646     1.0000 0.57802  0.59476  0.89111  Biso   1.000  O
  O647     1.0000 0.57802  0.59481  0.89111  Biso   1.000  O
  H1468    1.0000 0.60403  0.65530  0.95278  Biso   1.000  H
  O648     1.0000 0.39236  0.76620  0.80840  Biso   1.000  O
  H1469    1.0000 0.44210  0.66476  0.82222  Biso   1.000  H
  O649     1.0000 0.39242  0.76615  0.80840  Biso   1.000  O
  O650     1.0000 0.39242  0.76620  0.80840  Biso   1.000  O
  H1470    1.0000 0.44210  0.66481  0.82222  Biso   1.000  H
  H1471    1.0000 0.24170  0.62308  0.92922  Biso   1.000  H
  H1472    1.0000 0.25168  0.68781  0.85960  Biso   1.000  H
  H1473    1.0000 0.28906  0.60971  0.86289  Biso   1.000  H
  H1474    1.0000 0.25168  0.68775  0.85960  Biso   1.000  H
  H1475    1.0000 0.28913  0.60966  0.86289  Biso   1.000  H
  H1476    1.0000 0.28913  0.60971  0.86289  Biso   1.000  H
  H1477    1.0000 0.25175  0.68781  0.85960  Biso   1.000  H
  C1004    1.0000 0.35856  0.65687  0.12041  Biso   1.000  C
  C1005    1.0000 0.35862  0.65687  0.12041  Biso   1.000  C
  C1006    1.0000 0.50121  0.59078  0.14972  Biso   1.000  C
  H1478    1.0000 0.40539  0.56318  0.09491  Biso   1.000  H
  H1479    1.0000 0.60101  0.55089  0.92179  Biso   1.000  H
  O651     1.0000 0.58149  0.74757  0.82552  Biso   1.000  O
  H1480    1.0000 0.50329  0.74986  0.90593  Biso   1.000  H
  H1481    1.0000 0.50329  0.74988  0.90587  Biso   1.000  H
  H1482    1.0000 0.50329  0.74991  0.90593  Biso   1.000  H
  C1007    1.0000 0.35740  0.76490  0.74322  Biso   1.000  C
  C1008    1.0000 0.35740  0.76485  0.74322  Biso   1.000  C
  C1009    1.0000 0.32218  0.61566  0.19302  Biso   1.000  C
  C1010    1.0000 0.32218  0.61571  0.19302  Biso   1.000  C
  C1011    1.0000 0.32225  0.61571  0.19302  Biso   1.000  C
  O652     1.0000 0.29189  0.67609  0.06968  Biso   1.000  O
  H1483    1.0000 0.38605  0.70209  0.12271  Biso   1.000  H
  H1484    1.0000 0.38612  0.70209  0.12271  Biso   1.000  H
  O653     1.0000 0.46759  0.55328  0.21982  Biso   1.000  O
  C1012    1.0000 0.57378  0.54058  0.13527  Biso   1.000  C
  H1485    1.0000 0.52818  0.63681  0.15040  Biso   1.000  H
  H1486    1.0000 0.52818  0.63676  0.15040  Biso   1.000  H
  C1013    1.0000 0.57377  0.54063  0.13527  Biso   1.000  C
  C1014    1.0000 0.57384  0.54058  0.13527  Biso   1.000  C
  H1487    1.0000 0.52825  0.63681  0.15040  Biso   1.000  H
  H1488    1.0000 0.60246  0.71921  0.79630  Biso   1.000  H
  H1489    1.0000 0.60252  0.71916  0.79630  Biso   1.000  H
  H1490    1.0000 0.60252  0.71921  0.79630  Biso   1.000  H
  C1015    1.0000 0.29868  0.83026  0.72149  Biso   1.000  C
  O654     1.0000 0.42727  0.76827  0.69270  Biso   1.000  O
  H1491    1.0000 0.32311  0.72009  0.75008  Biso   1.000  H
  O655     1.0000 0.42733  0.76827  0.69270  Biso   1.000  O
  C1016    1.0000 0.29868  0.83031  0.72149  Biso   1.000  C
  O656     1.0000 0.42733  0.76832  0.69270  Biso   1.000  O
  O657     1.0000 0.27982  0.55296  0.18878  Biso   1.000  O
  C1017    1.0000 0.39849  0.59508  0.24223  Biso   1.000  C
  O658     1.0000 0.27976  0.55301  0.18878  Biso   1.000  O
  H1492    1.0000 0.27990  0.64699  0.20961  Biso   1.000  H
  C1018    1.0000 0.39849  0.59509  0.24217  Biso   1.000  C
  O659     1.0000 0.27982  0.55301  0.18878  Biso   1.000  O
  H1493    1.0000 0.23617  0.65900  0.09161  Biso   1.000  H
  H1494    1.0000 0.23617  0.65895  0.09161  Biso   1.000  H
  H1495    1.0000 0.23624  0.65900  0.09161  Biso   1.000  H
  H1496    1.0000 0.61649  0.53177  0.17108  Biso   1.000  H
  H1497    1.0000 0.54868  0.49488  0.13522  Biso   1.000  H
  H1498    1.0000 0.60232  0.56347  0.09062  Biso   1.000  H
  H1499    1.0000 0.61649  0.53182  0.17108  Biso   1.000  H
  H1500    1.0000 0.54874  0.49488  0.13522  Biso   1.000  H
  O660     1.0000 0.25772  0.82396  0.66093  Biso   1.000  O
  C1019    1.0000 0.34338  0.90236  0.70071  Biso   1.000  C
  H1501    1.0000 0.25357  0.82870  0.75861  Biso   1.000  H
  O661     1.0000 0.25771  0.82401  0.66093  Biso   1.000  O
  C1020    1.0000 0.34338  0.90241  0.70071  Biso   1.000  C
  H1502    1.0000 0.25364  0.82870  0.75861  Biso   1.000  H
  C1021    1.0000 0.48078  0.83238  0.67872  Biso   1.000  C
  C1022    1.0000 0.48084  0.83238  0.67872  Biso   1.000  C
  H1503    1.0000 0.27116  0.51888  0.23401  Biso   1.000  H
  H1504    1.0000 0.27123  0.51888  0.23401  Biso   1.000  H
  O662     1.0000 0.43409  0.66037  0.25029  Biso   1.000  O
  H1505    1.0000 0.37487  0.56547  0.28809  Biso   1.000  H
  O663     1.0000 0.43409  0.66042  0.25029  Biso   1.000  O
  H1506    1.0000 0.37487  0.56553  0.28809  Biso   1.000  H
  H1507    1.0000 0.37494  0.56547  0.28809  Biso   1.000  H
  H1508    1.0000 0.20048  0.82447  0.68207  Biso   1.000  H
  H1509    1.0000 0.20048  0.82452  0.68207  Biso   1.000  H
  H1510    1.0000 0.20055  0.82452  0.68207  Biso   1.000  H
  O664     1.0000 0.29211  0.96360  0.67181  Biso   1.000  O
  C1023    1.0000 0.42736  0.90139  0.65402  Biso   1.000  C
  H1511    1.0000 0.36468  0.90870  0.74411  Biso   1.000  H
  O665     1.0000 0.29211  0.96355  0.67181  Biso   1.000  O
  C1024    1.0000 0.42742  0.90139  0.65402  Biso   1.000  C
  H1512    1.0000 0.36475  0.90870  0.74411  Biso   1.000  H
  C1025    1.0000 0.55437  0.82556  0.62522  Biso   1.000  C
  H1513    1.0000 0.50838  0.83220  0.72218  Biso   1.000  H
  C1026    1.0000 0.55443  0.82556  0.62522  Biso   1.000  C
  C1027    1.0000 0.55443  0.82561  0.62522  Biso   1.000  C
  H1514    1.0000 0.50845  0.83220  0.72218  Biso   1.000  H
  C1028    1.0000 0.49039  0.65091  0.30960  Biso   1.000  C
  C1029    1.0000 0.49039  0.65086  0.30960  Biso   1.000  C
  H1515    1.0000 0.23270  0.94937  0.66972  Biso   1.000  H
  H1516    1.0000 0.23269  0.94942  0.66972  Biso   1.000  H
  O666     1.0000 0.48391  0.96329  0.65171  Biso   1.000  O
  H1517    1.0000 0.40918  0.90639  0.60638  Biso   1.000  H
  H1518    1.0000 0.58659  0.78058  0.64360  Biso   1.000  H
  H1519    1.0000 0.59395  0.86639  0.61648  Biso   1.000  H
  H1520    1.0000 0.52839  0.82568  0.58229  Biso   1.000  H
  H1521    1.0000 0.59402  0.86639  0.61648  Biso   1.000  H
  C1030    1.0000 0.57818  0.69250  0.28458  Biso   1.000  C
  C1031    1.0000 0.44250  0.68587  0.36028  Biso   1.000  C
  H1522    1.0000 0.50186  0.59868  0.33243  Biso   1.000  H
  H1523    1.0000 0.50193  0.59869  0.33237  Biso   1.000  H
  C1032    1.0000 0.44250  0.68592  0.36028  Biso   1.000  C
  H1524    1.0000 0.50192  0.59868  0.33243  Biso   1.000  H
  C1033    1.0000 0.50789  0.00880  0.58622  Biso   1.000  C
  C1034    1.0000 0.50789  0.00875  0.58622  Biso   1.000  C
  C1035    1.0000 0.62991  0.69610  0.34541  Biso   1.000  C
  O667     1.0000 0.62982  0.66019  0.24039  Biso   1.000  O
  H1525    1.0000 0.56357  0.74286  0.25730  Biso   1.000  H
  H1526    1.0000 0.56357  0.74291  0.25730  Biso   1.000  H
  H1527    1.0000 0.56364  0.74291  0.25730  Biso   1.000  H
  O668     1.0000 0.49476  0.68699  0.41729  Biso   1.000  O
  C1036    1.0000 0.35956  0.64118  0.39561  Biso   1.000  C
  H1528    1.0000 0.42460  0.73611  0.33510  Biso   1.000  H
  O669     1.0000 0.49483  0.68699  0.41729  Biso   1.000  O
  C1037    1.0000 0.35963  0.64118  0.39561  Biso   1.000  C
  H1529    1.0000 0.42460  0.73605  0.33510  Biso   1.000  H
  H1530    1.0000 0.52819  0.97806  0.55690  Biso   1.000  H
  H1531    1.0000 0.52818  0.97811  0.55690  Biso   1.000  H
  C1038    1.0000 0.58338  0.05301  0.59481  Biso   1.000  C
  O670     1.0000 0.43857  0.05481  0.55219  Biso   1.000  O
  C1039    1.0000 0.58338  0.05295  0.59481  Biso   1.000  C
  O671     1.0000 0.43863  0.05476  0.55219  Biso   1.000  O
  C1040    1.0000 0.58344  0.05301  0.59481  Biso   1.000  C
  O672     1.0000 0.43863  0.05481  0.55219  Biso   1.000  O
  C1041    1.0000 0.57381  0.72870  0.39389  Biso   1.000  C
  O673     1.0000 0.65899  0.62496  0.38572  Biso   1.000  O
  H1532    1.0000 0.68166  0.72731  0.32798  Biso   1.000  H
  H1533    1.0000 0.68172  0.72731  0.32798  Biso   1.000  H
  O674     1.0000 0.65899  0.62501  0.38572  Biso   1.000  O
  H1534    1.0000 0.59536  0.65858  0.20218  Biso   1.000  H
  H1535    1.0000 0.59542  0.65858  0.20218  Biso   1.000  H
  H1536    1.0000 0.33099  0.66448  0.42729  Biso   1.000  H
  H1537    1.0000 0.31939  0.63928  0.36038  Biso   1.000  H
  H1538    1.0000 0.37721  0.59226  0.42111  Biso   1.000  H
  H1539    1.0000 0.31939  0.63933  0.36038  Biso   1.000  H
  H1540    1.0000 0.37721  0.59232  0.42111  Biso   1.000  H
  O675     1.0000 0.62490  0.08829  0.52492  Biso   1.000  O
  C1042    1.0000 0.55529  0.11150  0.62931  Biso   1.000  C
  H1541    1.0000 0.62680  0.02016  0.62391  Biso   1.000  H
  H1542    1.0000 0.62680  0.02022  0.62391  Biso   1.000  H
  C1043    1.0000 0.40721  0.10317  0.59062  Biso   1.000  C
  O676     1.0000 0.55477  0.80156  0.36001  Biso   1.000  O
  H1543    1.0000 0.60807  0.72651  0.43488  Biso   1.000  H
  O677     1.0000 0.55477  0.80161  0.36001  Biso   1.000  O
  O678     1.0000 0.55483  0.80161  0.36001  Biso   1.000  O
  H1544    1.0000 0.60814  0.72651  0.43488  Biso   1.000  H
  H1545    1.0000 0.71858  0.61356  0.37582  Biso   1.000  H
  H1546    1.0000 0.71858  0.61362  0.37582  Biso   1.000  H
  H1547    1.0000 0.63669  0.13777  0.49880  Biso   1.000  H
  H1548    1.0000 0.63669  0.13782  0.49880  Biso   1.000  H
  O679     1.0000 0.62710  0.15821  0.63051  Biso   1.000  O
  C1044    1.0000 0.47749  0.15578  0.59528  Biso   1.000  C
  H1549    1.0000 0.53729  0.08631  0.67799  Biso   1.000  H
  O680     1.0000 0.62710  0.15815  0.63051  Biso   1.000  O
  H1550    1.0000 0.53729  0.08626  0.67799  Biso   1.000  H
  C1045    1.0000 0.47749  0.15583  0.59528  Biso   1.000  C
  C1046    1.0000 0.32795  0.14137  0.55340  Biso   1.000  C
  H1551    1.0000 0.38846  0.07399  0.63800  Biso   1.000  H
  C1047    1.0000 0.32802  0.14137  0.55340  Biso   1.000  C
  H1552    1.0000 0.38853  0.07399  0.63800  Biso   1.000  H
  C1048    1.0000 0.32802  0.14142  0.55340  Biso   1.000  C
  C1049    1.0000 0.52248  0.84419  0.40472  Biso   1.000  C
  H1553    1.0000 0.68227  0.13317  0.63972  Biso   1.000  H
  H1554    1.0000 0.68233  0.13317  0.63972  Biso   1.000  H
  O681     1.0000 0.44520  0.19841  0.63999  Biso   1.000  O
  H1555    1.0000 0.49461  0.18790  0.54858  Biso   1.000  H
  O682     1.0000 0.44520  0.19836  0.63999  Biso   1.000  O
  H1556    1.0000 0.28498  0.10566  0.55172  Biso   1.000  H
  H1557    1.0000 0.34551  0.16948  0.50660  Biso   1.000  H
  H1558    1.0000 0.30259  0.17357  0.57800  Biso   1.000  H
  H1559    1.0000 0.28498  0.10571  0.55172  Biso   1.000  H
  H1560    1.0000 0.30259  0.17362  0.57800  Biso   1.000  H
  C1050    1.0000 0.44468  0.88847  0.37069  Biso   1.000  C
  C1051    1.0000 0.59276  0.89680  0.40938  Biso   1.000  C
  H1561    1.0000 0.50536  0.81207  0.45142  Biso   1.000  H
  C1052    1.0000 0.59283  0.89680  0.40938  Biso   1.000  C
  H1562    1.0000 0.50543  0.81207  0.45142  Biso   1.000  H
  C1053    1.0000 0.44468  0.88852  0.37069  Biso   1.000  C
  C1054    1.0000 0.44475  0.88847  0.37069  Biso   1.000  C
  C1055    1.0000 0.42617  0.27127  0.60611  Biso   1.000  C
  C1056    1.0000 0.42623  0.27127  0.60611  Biso   1.000  C
  C1057    1.0000 0.41660  0.94696  0.40519  Biso   1.000  C
  O683     1.0000 0.37287  0.84176  0.36949  Biso   1.000  O
  H1563    1.0000 0.46268  0.91366  0.32201  Biso   1.000  H
  C1058    1.0000 0.41659  0.94702  0.40519  Biso   1.000  C
  O684     1.0000 0.37287  0.84182  0.36949  Biso   1.000  O
  H1564    1.0000 0.46268  0.91371  0.32201  Biso   1.000  H
  O685     1.0000 0.37294  0.84182  0.36949  Biso   1.000  O
  H1565    1.0000 0.46274  0.91371  0.32201  Biso   1.000  H
  O686     1.0000 0.56140  0.94516  0.44781  Biso   1.000  O
  C1059    1.0000 0.67202  0.85860  0.44660  Biso   1.000  C
  H1566    1.0000 0.61151  0.92598  0.36200  Biso   1.000  H
  C1060    1.0000 0.67202  0.85855  0.44660  Biso   1.000  C
  O687     1.0000 0.56140  0.94521  0.44781  Biso   1.000  O
  C1061    1.0000 0.37006  0.30387  0.65459  Biso   1.000  C
  O688     1.0000 0.50521  0.31298  0.58271  Biso   1.000  O
  H1567    1.0000 0.39190  0.27346  0.56512  Biso   1.000  H
  C1062    1.0000 0.37013  0.30387  0.65459  Biso   1.000  C
  C1063    1.0000 0.37012  0.30393  0.65459  Biso   1.000  C
  H1568    1.0000 0.39190  0.27352  0.56512  Biso   1.000  H
  C1064    1.0000 0.49209  0.99117  0.41378  Biso   1.000  C
  O689     1.0000 0.37507  0.91168  0.47508  Biso   1.000  O
  H1569    1.0000 0.37317  0.97981  0.37609  Biso   1.000  H
  O690     1.0000 0.37513  0.91168  0.47508  Biso   1.000  O
  C1065    1.0000 0.49209  0.99122  0.41378  Biso   1.000  C
  O691     1.0000 0.37513  0.91173  0.47508  Biso   1.000  O
  H1570    1.0000 0.37324  0.97981  0.37609  Biso   1.000  H
  H1571    1.0000 0.31771  0.86680  0.36028  Biso   1.000  H
  H1572    1.0000 0.71499  0.89431  0.44828  Biso   1.000  H
  H1573    1.0000 0.65446  0.83049  0.49340  Biso   1.000  H
  H1574    1.0000 0.69738  0.82640  0.42200  Biso   1.000  H
  H1575    1.0000 0.71499  0.89426  0.44828  Biso   1.000  H
  H1576    1.0000 0.65453  0.83049  0.49340  Biso   1.000  H
  H1577    1.0000 0.69745  0.82640  0.42200  Biso   1.000  H
  O692     1.0000 0.34098  0.37501  0.61428  Biso   1.000  O
  C1066    1.0000 0.42179  0.30747  0.71542  Biso   1.000  C
  H1578    1.0000 0.31832  0.27266  0.67202  Biso   1.000  H
  O693     1.0000 0.34098  0.37496  0.61428  Biso   1.000  O
  H1579    1.0000 0.31831  0.27272  0.67202  Biso   1.000  H
  O694     1.0000 0.34105  0.37501  0.61428  Biso   1.000  O
  C1067    1.0000 0.55748  0.31410  0.63972  Biso   1.000  C
  C1068    1.0000 0.55748  0.31405  0.63972  Biso   1.000  C
  C1069    1.0000 0.55754  0.31410  0.63972  Biso   1.000  C
  O695     1.0000 0.51606  0.03667  0.34829  Biso   1.000  O
  H1580    1.0000 0.47179  0.02191  0.44310  Biso   1.000  H
  O696     1.0000 0.51613  0.03667  0.34829  Biso   1.000  O
  H1581    1.0000 0.47179  0.02186  0.44310  Biso   1.000  H
  O697     1.0000 0.51613  0.03673  0.34829  Biso   1.000  O
  H1582    1.0000 0.36329  0.86220  0.50120  Biso   1.000  H
  H1583    1.0000 0.28139  0.38641  0.62418  Biso   1.000  H
  O698     1.0000 0.37016  0.33978  0.75961  Biso   1.000  O
  C1070    1.0000 0.50958  0.34906  0.69040  Biso   1.000  C
  H1584    1.0000 0.43640  0.25711  0.74270  Biso   1.000  H
  O699     1.0000 0.37022  0.33978  0.75961  Biso   1.000  O
  H1585    1.0000 0.43640  0.25706  0.74270  Biso   1.000  H
  C1071    1.0000 0.50958  0.34911  0.69040  Biso   1.000  C
  C1072    1.0000 0.50965  0.34911  0.69040  Biso   1.000  C
  C1073    1.0000 0.64041  0.35879  0.60439  Biso   1.000  C
  H1586    1.0000 0.57537  0.26386  0.66490  Biso   1.000  H
  H1587    1.0000 0.57537  0.26392  0.66490  Biso   1.000  H
  H1588    1.0000 0.57544  0.26386  0.66490  Biso   1.000  H
  C1074    1.0000 0.57262  0.09858  0.34598  Biso   1.000  C
  C1075    1.0000 0.57262  0.09863  0.34598  Biso   1.000  C
  H1589    1.0000 0.40461  0.34139  0.79782  Biso   1.000  H
  O700     1.0000 0.56588  0.33960  0.74971  Biso   1.000  O
  H1590    1.0000 0.49811  0.40129  0.66757  Biso   1.000  H
  O701     1.0000 0.56588  0.33955  0.74971  Biso   1.000  O
  H1591    1.0000 0.66898  0.33549  0.57271  Biso   1.000  H
  H1592    1.0000 0.68058  0.36069  0.63962  Biso   1.000  H
  H1593    1.0000 0.62276  0.40771  0.57889  Biso   1.000  H
  H1594    1.0000 0.62283  0.40765  0.57889  Biso   1.000  H
  H1595    1.0000 0.62283  0.40771  0.57889  Biso   1.000  H
  H1596    1.0000 0.68065  0.36069  0.63962  Biso   1.000  H
  C1076    1.0000 0.65659  0.09761  0.29929  Biso   1.000  C
  C1077    1.0000 0.51920  0.16759  0.32128  Biso   1.000  C
  H1597    1.0000 0.59079  0.09358  0.39362  Biso   1.000  H
  C1078    1.0000 0.65659  0.09756  0.29929  Biso   1.000  C
  C1079    1.0000 0.60149  0.40489  0.75777  Biso   1.000  C
  C1080    1.0000 0.70129  0.16971  0.27851  Biso   1.000  C
  O702     1.0000 0.70787  0.03636  0.32819  Biso   1.000  O
  H1598    1.0000 0.63529  0.09127  0.25589  Biso   1.000  H
  C1081    1.0000 0.70129  0.16966  0.27851  Biso   1.000  C
  O703     1.0000 0.70793  0.03636  0.32819  Biso   1.000  O
  O704     1.0000 0.70793  0.03642  0.32819  Biso   1.000  O
  H1599    1.0000 0.63529  0.09132  0.25589  Biso   1.000  H
  O705     1.0000 0.57271  0.23170  0.30730  Biso   1.000  O
  C1082    1.0000 0.44561  0.17441  0.37478  Biso   1.000  C
  H1600    1.0000 0.49159  0.16777  0.27782  Biso   1.000  H
  C1083    1.0000 0.44561  0.17436  0.37478  Biso   1.000  C
  C1084    1.0000 0.67779  0.38431  0.80698  Biso   1.000  C
  C1085    1.0000 0.67779  0.38426  0.80698  Biso   1.000  C
  O706     1.0000 0.53239  0.44669  0.78018  Biso   1.000  O
  H1601    1.0000 0.62510  0.43450  0.71191  Biso   1.000  H
  C1086    1.0000 0.64257  0.23507  0.25678  Biso   1.000  C
  O707     1.0000 0.74226  0.17601  0.33907  Biso   1.000  O
  H1602    1.0000 0.74640  0.17127  0.24139  Biso   1.000  H
  O708     1.0000 0.74232  0.17601  0.33907  Biso   1.000  O
  C1087    1.0000 0.64257  0.23512  0.25678  Biso   1.000  C
  H1603    1.0000 0.74640  0.17133  0.24139  Biso   1.000  H
  C1088    1.0000 0.64264  0.23507  0.25678  Biso   1.000  C
  H1604    1.0000 0.76728  0.05060  0.33028  Biso   1.000  H
  H1605    1.0000 0.76734  0.05060  0.33028  Biso   1.000  H
  H1606    1.0000 0.41338  0.21939  0.35640  Biso   1.000  H
  H1607    1.0000 0.40602  0.13358  0.38352  Biso   1.000  H
  H1608    1.0000 0.47159  0.17429  0.41771  Biso   1.000  H
  C1089    1.0000 0.64142  0.34310  0.87959  Biso   1.000  C
  O709     1.0000 0.72022  0.44696  0.81122  Biso   1.000  O
  H1609    1.0000 0.72007  0.35298  0.79039  Biso   1.000  H
  O710     1.0000 0.72021  0.44701  0.81122  Biso   1.000  O
  H1610    1.0000 0.72007  0.35303  0.79039  Biso   1.000  H
  H1611    1.0000 0.72014  0.35298  0.79039  Biso   1.000  H
  C1090    1.0000 0.49877  0.40919  0.85028  Biso   1.000  C
  C1091    1.0000 0.49883  0.40919  0.85028  Biso   1.000  C
  O711     1.0000 0.60762  0.23377  0.19160  Biso   1.000  O
  H1612    1.0000 0.67687  0.27988  0.24992  Biso   1.000  H
  O712     1.0000 0.60761  0.23382  0.19160  Biso   1.000  O
  H1613    1.0000 0.67693  0.27988  0.24992  Biso   1.000  H
  H1614    1.0000 0.79949  0.17550  0.31793  Biso   1.000  H
  H1615    1.0000 0.79949  0.17545  0.31793  Biso   1.000  H
  C1092    1.0000 0.56848  0.39151  0.90148  Biso   1.000  C
  C1093    1.0000 0.56854  0.39151  0.90148  Biso   1.000  C
  O713     1.0000 0.70809  0.32388  0.93032  Biso   1.000  O
  H1616    1.0000 0.61392  0.29788  0.87729  Biso   1.000  H
  H1617    1.0000 0.72881  0.48109  0.76599  Biso   1.000  H
  C1094    1.0000 0.42620  0.45939  0.86473  Biso   1.000  C
  H1618    1.0000 0.47179  0.36316  0.84960  Biso   1.000  H
  C1095    1.0000 0.42620  0.45940  0.86467  Biso   1.000  C
  H1619    1.0000 0.47179  0.36321  0.84960  Biso   1.000  H
  C1096    1.0000 0.56907  0.30157  0.14951  Biso   1.000  C
  C1097    1.0000 0.56913  0.30157  0.14951  Biso   1.000  C
  O714     1.0000 0.53000  0.34938  0.96958  Biso   1.000  O
  H1620    1.0000 0.59458  0.43679  0.90509  Biso   1.000  H
  H1621    1.0000 0.59465  0.43679  0.90509  Biso   1.000  H
  H1622    1.0000 0.76380  0.34097  0.90839  Biso   1.000  H
  H1623    1.0000 0.76380  0.34102  0.90839  Biso   1.000  H
  H1624    1.0000 0.38348  0.46820  0.82892  Biso   1.000  H
  H1625    1.0000 0.45130  0.50509  0.86478  Biso   1.000  H
  H1626    1.0000 0.39766  0.43650  0.90938  Biso   1.000  H
  H1627    1.0000 0.38348  0.46815  0.82892  Biso   1.000  H
  H1628    1.0000 0.39772  0.43650  0.90938  Biso   1.000  H
  H1629    1.0000 0.38355  0.46820  0.82892  Biso   1.000  H
  C1098    1.0000 0.48336  0.28469  0.12098  Biso   1.000  C
  C1099    1.0000 0.63398  0.33599  0.08868  Biso   1.000  C
  H1630    1.0000 0.55788  0.33521  0.17778  Biso   1.000  H
  C1100    1.0000 0.48343  0.28469  0.12098  Biso   1.000  C
  H1631    1.0000 0.55788  0.33516  0.17778  Biso   1.000  H
  C1101    1.0000 0.63404  0.33599  0.08868  Biso   1.000  C
  H1632    1.0000 0.55794  0.33521  0.17778  Biso   1.000  H
  C1102    1.0000 0.52277  0.39159  0.01550  Biso   1.000  C
  C1103    1.0000 0.52283  0.39159  0.01550  Biso   1.000  C
  C1104    1.0000 0.44697  0.35557  0.07088  Biso   1.000  C
  O715     1.0000 0.41848  0.25240  0.17448  Biso   1.000  O
  H1633    1.0000 0.49668  0.25011  0.09407  Biso   1.000  H
  C1105    1.0000 0.44703  0.35557  0.07088  Biso   1.000  C
  H1634    1.0000 0.49669  0.25006  0.09407  Biso   1.000  H
  C1106    1.0000 0.44703  0.35562  0.07088  Biso   1.000  C
  O716     1.0000 0.41854  0.25240  0.17448  Biso   1.000  O
  O717     1.0000 0.59528  0.40386  0.04570  Biso   1.000  O
  C1107    1.0000 0.72060  0.35560  0.11130  Biso   1.000  C
  H1635    1.0000 0.64417  0.30218  0.06062  Biso   1.000  H
  O718     1.0000 0.59528  0.40391  0.04570  Biso   1.000  O
  O719     1.0000 0.59534  0.40391  0.04570  Biso   1.000  O
  H1636    1.0000 0.64424  0.30218  0.06062  Biso   1.000  H
  H1637    1.0000 0.50046  0.43988  0.98848  Biso   1.000  H
  H1638    1.0000 0.50053  0.43988  0.98848  Biso   1.000  H
  H1639    1.0000 0.50052  0.43993  0.98848  Biso   1.000  H
  O720     1.0000 0.42201  0.40521  0.10889  Biso   1.000  O
  H1640    1.0000 0.39600  0.34467  0.04722  Biso   1.000  H
  O721     1.0000 0.42201  0.40516  0.10889  Biso   1.000  O
  H1641    1.0000 0.39752  0.28076  0.20370  Biso   1.000  H
  H1642    1.0000 0.39751  0.28081  0.20370  Biso   1.000  H
  H1643    1.0000 0.75827  0.37688  0.07078  Biso   1.000  H
  H1644    1.0000 0.74829  0.31216  0.14040  Biso   1.000  H
  H1645    1.0000 0.71091  0.39026  0.13711  Biso   1.000  H
  H1646    1.0000 0.74829  0.31222  0.14040  Biso   1.000  H
  H1647    1.0000 0.71091  0.39031  0.13711  Biso   1.000  H
  H1648    1.0000 0.75834  0.37688  0.07078  Biso   1.000  H
  H1649    1.0000 0.39896  0.44908  0.07821  Biso   1.000  H
  H1650    1.0000 0.39903  0.44908  0.07821  Biso   1.000  H
  O722     1.0000 0.40470  0.59606  0.95430  Biso   1.000  O
  C1108    1.0000 0.47720  0.60838  0.98450  Biso   1.000  C
  C1109    1.0000 0.36600  0.66398  0.91132  Biso   1.000  C
  O723     1.0000 0.46998  0.65059  0.03042  Biso   1.000  O
  O724     1.0000 0.47004  0.65059  0.03042  Biso   1.000  O
  H1651    1.0000 0.49951  0.56009  0.01152  Biso   1.000  H
  C1110    1.0000 0.55301  0.64440  0.92912  Biso   1.000  C
  O725     1.0000 0.40470  0.59611  0.95430  Biso   1.000  O
  C1111    1.0000 0.55301  0.64435  0.92912  Biso   1.000  C
  C1112    1.0000 0.43090  0.69840  0.85049  Biso   1.000  C
  C1113    1.0000 0.27937  0.64437  0.88870  Biso   1.000  C
  H1652    1.0000 0.35580  0.69779  0.93938  Biso   1.000  H
  C1114    1.0000 0.27937  0.64443  0.88870  Biso   1.000  C
  C1115    1.0000 0.27944  0.64437  0.88870  Biso   1.000  C
  C1116    1.0000 0.43149  0.60846  0.09852  Biso   1.000  C
  C1117    1.0000 0.43149  0.60851  0.09852  Biso   1.000  C
  O726     1.0000 0.57796  0.59476  0.89111  Biso   1.000  O
  C1118    1.0000 0.51661  0.71528  0.87902  Biso   1.000  C
  H1653    1.0000 0.60397  0.65530  0.95278  Biso   1.000  H
  O727     1.0000 0.57802  0.59476  0.89111  Biso   1.000  O
  O728     1.0000 0.57802  0.59481  0.89111  Biso   1.000  O
  H1654    1.0000 0.60403  0.65530  0.95278  Biso   1.000  H
  O729     1.0000 0.39236  0.76620  0.80840  Biso   1.000  O
  H1655    1.0000 0.44210  0.66476  0.82222  Biso   1.000  H
  O730     1.0000 0.39242  0.76615  0.80840  Biso   1.000  O
  O731     1.0000 0.39242  0.76620  0.80840  Biso   1.000  O
  H1656    1.0000 0.44210  0.66481  0.82222  Biso   1.000  H
  H1657    1.0000 0.24170  0.62308  0.92922  Biso   1.000  H
  H1658    1.0000 0.25168  0.68781  0.85960  Biso   1.000  H
  H1659    1.0000 0.28906  0.60971  0.86289  Biso   1.000  H
  H1660    1.0000 0.25168  0.68775  0.85960  Biso   1.000  H
  H1661    1.0000 0.28913  0.60966  0.86289  Biso   1.000  H
  H1662    1.0000 0.28913  0.60971  0.86289  Biso   1.000  H
  H1663    1.0000 0.25175  0.68781  0.85960  Biso   1.000  H
  C1119    1.0000 0.35862  0.65687  0.12041  Biso   1.000  C
  C1120    1.0000 0.35856  0.65687  0.12041  Biso   1.000  C
  C1121    1.0000 0.50121  0.59078  0.14972  Biso   1.000  C
  H1664    1.0000 0.40539  0.56318  0.09491  Biso   1.000  H
  H1665    1.0000 0.60101  0.55089  0.92179  Biso   1.000  H
  O732     1.0000 0.58149  0.74757  0.82552  Biso   1.000  O
  H1666    1.0000 0.50329  0.74986  0.90593  Biso   1.000  H
  H1667    1.0000 0.50329  0.74988  0.90587  Biso   1.000  H
  H1668    1.0000 0.50329  0.74991  0.90593  Biso   1.000  H
  C1122    1.0000 0.35740  0.76490  0.74322  Biso   1.000  C
  C1123    1.0000 0.35740  0.76485  0.74322  Biso   1.000  C
  C1124    1.0000 0.32218  0.61566  0.19302  Biso   1.000  C
  C1125    1.0000 0.32218  0.61571  0.19302  Biso   1.000  C
  C1126    1.0000 0.32225  0.61571  0.19302  Biso   1.000  C
  O733     1.0000 0.29189  0.67609  0.06968  Biso   1.000  O
  H1669    1.0000 0.38612  0.70209  0.12271  Biso   1.000  H
  H1670    1.0000 0.38605  0.70209  0.12271  Biso   1.000  H
  O734     1.0000 0.46759  0.55328  0.21982  Biso   1.000  O
  C1127    1.0000 0.57378  0.54058  0.13527  Biso   1.000  C
  H1671    1.0000 0.52818  0.63681  0.15040  Biso   1.000  H
  H1672    1.0000 0.52818  0.63676  0.15040  Biso   1.000  H
  C1128    1.0000 0.57377  0.54063  0.13527  Biso   1.000  C
  C1129    1.0000 0.57384  0.54058  0.13527  Biso   1.000  C
  H1673    1.0000 0.52825  0.63681  0.15040  Biso   1.000  H
  H1674    1.0000 0.60246  0.71921  0.79630  Biso   1.000  H
  H1675    1.0000 0.60252  0.71916  0.79630  Biso   1.000  H
  H1676    1.0000 0.60252  0.71921  0.79630  Biso   1.000  H
  C1130    1.0000 0.29868  0.83026  0.72149  Biso   1.000  C
  O735     1.0000 0.42727  0.76827  0.69270  Biso   1.000  O
  H1677    1.0000 0.32311  0.72009  0.75008  Biso   1.000  H
  O736     1.0000 0.42733  0.76827  0.69270  Biso   1.000  O
  C1131    1.0000 0.29868  0.83031  0.72149  Biso   1.000  C
  O737     1.0000 0.42733  0.76832  0.69270  Biso   1.000  O
  O738     1.0000 0.27982  0.55301  0.18878  Biso   1.000  O
  H1678    1.0000 0.27990  0.64699  0.20961  Biso   1.000  H
  C1132    1.0000 0.39849  0.59508  0.24223  Biso   1.000  C
  C1133    1.0000 0.39849  0.59509  0.24217  Biso   1.000  C
  O739     1.0000 0.27976  0.55301  0.18878  Biso   1.000  O
  O740     1.0000 0.27982  0.55296  0.18878  Biso   1.000  O
  H1679    1.0000 0.23617  0.65900  0.09161  Biso   1.000  H
  H1680    1.0000 0.23617  0.65895  0.09161  Biso   1.000  H
  H1681    1.0000 0.23624  0.65900  0.09161  Biso   1.000  H
  H1682    1.0000 0.61649  0.53177  0.17108  Biso   1.000  H
  H1683    1.0000 0.54868  0.49488  0.13522  Biso   1.000  H
  H1684    1.0000 0.60232  0.56347  0.09062  Biso   1.000  H
  H1685    1.0000 0.61649  0.53182  0.17108  Biso   1.000  H
  H1686    1.0000 0.54874  0.49488  0.13522  Biso   1.000  H
  O741     1.0000 0.25772  0.82396  0.66093  Biso   1.000  O
  C1134    1.0000 0.34338  0.90236  0.70071  Biso   1.000  C
  H1687    1.0000 0.25357  0.82870  0.75861  Biso   1.000  H
  O742     1.0000 0.25771  0.82401  0.66093  Biso   1.000  O
  C1135    1.0000 0.34338  0.90241  0.70071  Biso   1.000  C
  H1688    1.0000 0.25364  0.82870  0.75861  Biso   1.000  H
  C1136    1.0000 0.48078  0.83238  0.67872  Biso   1.000  C
  C1137    1.0000 0.48084  0.83238  0.67872  Biso   1.000  C
  H1689    1.0000 0.27123  0.51888  0.23401  Biso   1.000  H
  H1690    1.0000 0.27116  0.51888  0.23401  Biso   1.000  H
  O743     1.0000 0.43409  0.66037  0.25029  Biso   1.000  O
  H1691    1.0000 0.37487  0.56547  0.28809  Biso   1.000  H
  O744     1.0000 0.43409  0.66042  0.25029  Biso   1.000  O
  H1692    1.0000 0.37487  0.56553  0.28809  Biso   1.000  H
  H1693    1.0000 0.37494  0.56547  0.28809  Biso   1.000  H
  H1694    1.0000 0.20048  0.82447  0.68207  Biso   1.000  H
  H1695    1.0000 0.20048  0.82452  0.68207  Biso   1.000  H
  H1696    1.0000 0.20055  0.82452  0.68207  Biso   1.000  H
  O745     1.0000 0.29211  0.96360  0.67181  Biso   1.000  O
  C1138    1.0000 0.42736  0.90139  0.65402  Biso   1.000  C
  H1697    1.0000 0.36468  0.90870  0.74411  Biso   1.000  H
  O746     1.0000 0.29211  0.96355  0.67181  Biso   1.000  O
  C1139    1.0000 0.42742  0.90139  0.65402  Biso   1.000  C
  H1698    1.0000 0.36475  0.90870  0.74411  Biso   1.000  H
  C1140    1.0000 0.55437  0.82556  0.62522  Biso   1.000  C
  H1699    1.0000 0.50838  0.83220  0.72218  Biso   1.000  H
  C1141    1.0000 0.55443  0.82556  0.62522  Biso   1.000  C
  C1142    1.0000 0.55443  0.82561  0.62522  Biso   1.000  C
  H1700    1.0000 0.50845  0.83220  0.72218  Biso   1.000  H
  C1143    1.0000 0.49039  0.65091  0.30960  Biso   1.000  C
  C1144    1.0000 0.49039  0.65086  0.30960  Biso   1.000  C
  H1701    1.0000 0.23270  0.94937  0.66972  Biso   1.000  H
  H1702    1.0000 0.23269  0.94942  0.66972  Biso   1.000  H
  O747     1.0000 0.48391  0.96329  0.65171  Biso   1.000  O
  H1703    1.0000 0.40918  0.90639  0.60638  Biso   1.000  H
  H1704    1.0000 0.58659  0.78058  0.64360  Biso   1.000  H
  H1705    1.0000 0.59395  0.86639  0.61648  Biso   1.000  H
  H1706    1.0000 0.52839  0.82568  0.58229  Biso   1.000  H
  H1707    1.0000 0.59402  0.86639  0.61648  Biso   1.000  H
  C1145    1.0000 0.57818  0.69250  0.28458  Biso   1.000  C
  C1146    1.0000 0.44250  0.68587  0.36028  Biso   1.000  C
  C1147    1.0000 0.44250  0.68592  0.36028  Biso   1.000  C
  H1708    1.0000 0.50193  0.59869  0.33237  Biso   1.000  H
  H1709    1.0000 0.50186  0.59868  0.33243  Biso   1.000  H
  H1710    1.0000 0.50192  0.59868  0.33243  Biso   1.000  H
  C1148    1.0000 0.50789  0.00880  0.58622  Biso   1.000  C
  C1149    1.0000 0.50789  0.00875  0.58622  Biso   1.000  C
  C1150    1.0000 0.62991  0.69610  0.34541  Biso   1.000  C
  O748     1.0000 0.62982  0.66019  0.24039  Biso   1.000  O
  H1711    1.0000 0.56357  0.74286  0.25730  Biso   1.000  H
  H1712    1.0000 0.56357  0.74291  0.25730  Biso   1.000  H
  H1713    1.0000 0.56364  0.74291  0.25730  Biso   1.000  H
  O749     1.0000 0.49483  0.68699  0.41729  Biso   1.000  O
  C1151    1.0000 0.35963  0.64118  0.39561  Biso   1.000  C
  H1714    1.0000 0.42460  0.73611  0.33510  Biso   1.000  H
  O750     1.0000 0.49476  0.68699  0.41729  Biso   1.000  O
  C1152    1.0000 0.35956  0.64118  0.39561  Biso   1.000  C
  H1715    1.0000 0.42460  0.73605  0.33510  Biso   1.000  H
  H1716    1.0000 0.52819  0.97806  0.55690  Biso   1.000  H
  H1717    1.0000 0.52818  0.97811  0.55690  Biso   1.000  H
  C1153    1.0000 0.58338  0.05301  0.59481  Biso   1.000  C
  O751     1.0000 0.43857  0.05481  0.55219  Biso   1.000  O
  C1154    1.0000 0.58338  0.05295  0.59481  Biso   1.000  C
  O752     1.0000 0.43863  0.05476  0.55219  Biso   1.000  O
  C1155    1.0000 0.58344  0.05301  0.59481  Biso   1.000  C
  O753     1.0000 0.43863  0.05481  0.55219  Biso   1.000  O
  C1156    1.0000 0.57381  0.72870  0.39389  Biso   1.000  C
  O754     1.0000 0.65899  0.62496  0.38572  Biso   1.000  O
  H1718    1.0000 0.68172  0.72731  0.32798  Biso   1.000  H
  H1719    1.0000 0.68166  0.72731  0.32798  Biso   1.000  H
  O755     1.0000 0.65899  0.62501  0.38572  Biso   1.000  O
  H1720    1.0000 0.59542  0.65858  0.20218  Biso   1.000  H
  H1721    1.0000 0.59536  0.65858  0.20218  Biso   1.000  H
  H1722    1.0000 0.33099  0.66448  0.42729  Biso   1.000  H
  H1723    1.0000 0.31939  0.63928  0.36038  Biso   1.000  H
  H1724    1.0000 0.37721  0.59226  0.42111  Biso   1.000  H
  H1725    1.0000 0.31939  0.63933  0.36038  Biso   1.000  H
  H1726    1.0000 0.37721  0.59232  0.42111  Biso   1.000  H
  O756     1.0000 0.62490  0.08829  0.52492  Biso   1.000  O
  C1157    1.0000 0.55529  0.11150  0.62931  Biso   1.000  C
  H1727    1.0000 0.62680  0.02016  0.62391  Biso   1.000  H
  H1728    1.0000 0.62680  0.02022  0.62391  Biso   1.000  H
  C1158    1.0000 0.40721  0.10317  0.59062  Biso   1.000  C
  O757     1.0000 0.55477  0.80156  0.36001  Biso   1.000  O
  H1729    1.0000 0.60807  0.72651  0.43488  Biso   1.000  H
  O758     1.0000 0.55477  0.80161  0.36001  Biso   1.000  O
  O759     1.0000 0.55483  0.80161  0.36001  Biso   1.000  O
  H1730    1.0000 0.60814  0.72651  0.43488  Biso   1.000  H
  H1731    1.0000 0.71858  0.61356  0.37582  Biso   1.000  H
  H1732    1.0000 0.71858  0.61362  0.37582  Biso   1.000  H
  H1733    1.0000 0.63669  0.13777  0.49880  Biso   1.000  H
  H1734    1.0000 0.63669  0.13782  0.49880  Biso   1.000  H
  O760     1.0000 0.62710  0.15821  0.63051  Biso   1.000  O
  C1159    1.0000 0.47749  0.15578  0.59528  Biso   1.000  C
  H1735    1.0000 0.53729  0.08631  0.67799  Biso   1.000  H
  O761     1.0000 0.62710  0.15815  0.63051  Biso   1.000  O
  H1736    1.0000 0.53729  0.08626  0.67799  Biso   1.000  H
  C1160    1.0000 0.47749  0.15583  0.59528  Biso   1.000  C
  C1161    1.0000 0.32795  0.14137  0.55340  Biso   1.000  C
  H1737    1.0000 0.38846  0.07399  0.63800  Biso   1.000  H
  C1162    1.0000 0.32802  0.14137  0.55340  Biso   1.000  C
  H1738    1.0000 0.38853  0.07399  0.63800  Biso   1.000  H
  C1163    1.0000 0.32802  0.14142  0.55340  Biso   1.000  C
  C1164    1.0000 0.52248  0.84419  0.40472  Biso   1.000  C
  H1739    1.0000 0.68227  0.13317  0.63972  Biso   1.000  H
  H1740    1.0000 0.68233  0.13317  0.63972  Biso   1.000  H
  O762     1.0000 0.44520  0.19841  0.63999  Biso   1.000  O
  H1741    1.0000 0.49461  0.18790  0.54858  Biso   1.000  H
  O763     1.0000 0.44520  0.19836  0.63999  Biso   1.000  O
  H1742    1.0000 0.28498  0.10566  0.55172  Biso   1.000  H
  H1743    1.0000 0.34551  0.16948  0.50660  Biso   1.000  H
  H1744    1.0000 0.30259  0.17357  0.57800  Biso   1.000  H
  H1745    1.0000 0.28498  0.10571  0.55172  Biso   1.000  H
  H1746    1.0000 0.30259  0.17362  0.57800  Biso   1.000  H
  C1165    1.0000 0.44468  0.88847  0.37069  Biso   1.000  C
  C1166    1.0000 0.59283  0.89680  0.40938  Biso   1.000  C
  H1747    1.0000 0.50543  0.81207  0.45142  Biso   1.000  H
  C1167    1.0000 0.59276  0.89680  0.40938  Biso   1.000  C
  H1748    1.0000 0.50536  0.81207  0.45142  Biso   1.000  H
  C1168    1.0000 0.44468  0.88852  0.37069  Biso   1.000  C
  C1169    1.0000 0.44475  0.88847  0.37069  Biso   1.000  C
  C1170    1.0000 0.42617  0.27127  0.60611  Biso   1.000  C
  C1171    1.0000 0.42623  0.27127  0.60611  Biso   1.000  C
  C1172    1.0000 0.41660  0.94696  0.40519  Biso   1.000  C
  O764     1.0000 0.37287  0.84176  0.36949  Biso   1.000  O
  H1749    1.0000 0.46268  0.91366  0.32201  Biso   1.000  H
  C1173    1.0000 0.41659  0.94702  0.40519  Biso   1.000  C
  O765     1.0000 0.37287  0.84182  0.36949  Biso   1.000  O
  H1750    1.0000 0.46268  0.91371  0.32201  Biso   1.000  H
  O766     1.0000 0.37294  0.84182  0.36949  Biso   1.000  O
  H1751    1.0000 0.46274  0.91371  0.32201  Biso   1.000  H
  O767     1.0000 0.56140  0.94516  0.44781  Biso   1.000  O
  H1752    1.0000 0.61151  0.92598  0.36200  Biso   1.000  H
  C1174    1.0000 0.67202  0.85860  0.44660  Biso   1.000  C
  O768     1.0000 0.56140  0.94521  0.44781  Biso   1.000  O
  C1175    1.0000 0.67202  0.85855  0.44660  Biso   1.000  C
  C1176    1.0000 0.37006  0.30387  0.65459  Biso   1.000  C
  O769     1.0000 0.50521  0.31298  0.58271  Biso   1.000  O
  H1753    1.0000 0.39190  0.27346  0.56512  Biso   1.000  H
  C1177    1.0000 0.37013  0.30387  0.65459  Biso   1.000  C
  C1178    1.0000 0.37012  0.30393  0.65459  Biso   1.000  C
  H1754    1.0000 0.39190  0.27352  0.56512  Biso   1.000  H
  C1179    1.0000 0.49209  0.99117  0.41378  Biso   1.000  C
  H1755    1.0000 0.37317  0.97981  0.37609  Biso   1.000  H
  C1180    1.0000 0.49209  0.99122  0.41378  Biso   1.000  C
  O770     1.0000 0.37513  0.91168  0.47508  Biso   1.000  O
  O771     1.0000 0.37507  0.91168  0.47508  Biso   1.000  O
  O772     1.0000 0.37513  0.91173  0.47508  Biso   1.000  O
  H1756    1.0000 0.37324  0.97981  0.37609  Biso   1.000  H
  H1757    1.0000 0.31771  0.86680  0.36028  Biso   1.000  H
  H1758    1.0000 0.69738  0.82640  0.42200  Biso   1.000  H
  H1759    1.0000 0.71499  0.89431  0.44828  Biso   1.000  H
  H1760    1.0000 0.65453  0.83049  0.49340  Biso   1.000  H
  H1761    1.0000 0.65446  0.83049  0.49340  Biso   1.000  H
  H1762    1.0000 0.71499  0.89426  0.44828  Biso   1.000  H
  H1763    1.0000 0.69745  0.82640  0.42200  Biso   1.000  H
  O773     1.0000 0.34098  0.37501  0.61428  Biso   1.000  O
  C1181    1.0000 0.42179  0.30747  0.71542  Biso   1.000  C
  H1764    1.0000 0.31832  0.27266  0.67202  Biso   1.000  H
  O774     1.0000 0.34098  0.37496  0.61428  Biso   1.000  O
  H1765    1.0000 0.31831  0.27272  0.67202  Biso   1.000  H
  O775     1.0000 0.34105  0.37501  0.61428  Biso   1.000  O
  C1182    1.0000 0.55748  0.31410  0.63972  Biso   1.000  C
  C1183    1.0000 0.55748  0.31405  0.63972  Biso   1.000  C
  C1184    1.0000 0.55754  0.31410  0.63972  Biso   1.000  C
  O776     1.0000 0.51606  0.03667  0.34829  Biso   1.000  O
  H1766    1.0000 0.47179  0.02191  0.44310  Biso   1.000  H
  O777     1.0000 0.51613  0.03667  0.34829  Biso   1.000  O
  H1767    1.0000 0.47179  0.02186  0.44310  Biso   1.000  H
  O778     1.0000 0.51613  0.03673  0.34829  Biso   1.000  O
  H1768    1.0000 0.36329  0.86220  0.50120  Biso   1.000  H
  H1769    1.0000 0.28139  0.38641  0.62418  Biso   1.000  H
  O779     1.0000 0.37016  0.33978  0.75961  Biso   1.000  O
  C1185    1.0000 0.50958  0.34906  0.69040  Biso   1.000  C
  H1770    1.0000 0.43640  0.25711  0.74270  Biso   1.000  H
  O780     1.0000 0.37022  0.33978  0.75961  Biso   1.000  O
  H1771    1.0000 0.43640  0.25706  0.74270  Biso   1.000  H
  C1186    1.0000 0.50958  0.34911  0.69040  Biso   1.000  C
  C1187    1.0000 0.50965  0.34911  0.69040  Biso   1.000  C
  C1188    1.0000 0.64041  0.35879  0.60439  Biso   1.000  C
  H1772    1.0000 0.57537  0.26386  0.66490  Biso   1.000  H
  H1773    1.0000 0.57537  0.26392  0.66490  Biso   1.000  H
  H1774    1.0000 0.57544  0.26386  0.66490  Biso   1.000  H
  C1189    1.0000 0.57262  0.09858  0.34598  Biso   1.000  C
  C1190    1.0000 0.57262  0.09863  0.34598  Biso   1.000  C
  H1775    1.0000 0.40461  0.34139  0.79782  Biso   1.000  H
  O781     1.0000 0.56588  0.33960  0.74971  Biso   1.000  O
  H1776    1.0000 0.49811  0.40129  0.66757  Biso   1.000  H
  O782     1.0000 0.56588  0.33955  0.74971  Biso   1.000  O
  H1777    1.0000 0.66898  0.33549  0.57271  Biso   1.000  H
  H1778    1.0000 0.68058  0.36069  0.63962  Biso   1.000  H
  H1779    1.0000 0.62276  0.40771  0.57889  Biso   1.000  H
  H1780    1.0000 0.62283  0.40765  0.57889  Biso   1.000  H
  H1781    1.0000 0.62283  0.40771  0.57889  Biso   1.000  H
  H1782    1.0000 0.68065  0.36069  0.63962  Biso   1.000  H
  C1191    1.0000 0.65659  0.09761  0.29929  Biso   1.000  C
  C1192    1.0000 0.51920  0.16759  0.32128  Biso   1.000  C
  H1783    1.0000 0.59079  0.09358  0.39362  Biso   1.000  H
  C1193    1.0000 0.65659  0.09756  0.29929  Biso   1.000  C
  C1194    1.0000 0.60149  0.40489  0.75777  Biso   1.000  C
  C1195    1.0000 0.70129  0.16971  0.27851  Biso   1.000  C
  O783     1.0000 0.70787  0.03636  0.32819  Biso   1.000  O
  H1784    1.0000 0.63529  0.09127  0.25589  Biso   1.000  H
  C1196    1.0000 0.70129  0.16966  0.27851  Biso   1.000  C
  O784     1.0000 0.70793  0.03636  0.32819  Biso   1.000  O
  O785     1.0000 0.70793  0.03642  0.32819  Biso   1.000  O
  H1785    1.0000 0.63529  0.09132  0.25589  Biso   1.000  H
  O786     1.0000 0.57271  0.23170  0.30730  Biso   1.000  O
  C1197    1.0000 0.44561  0.17441  0.37478  Biso   1.000  C
  H1786    1.0000 0.49159  0.16777  0.27782  Biso   1.000  H
  C1198    1.0000 0.44561  0.17436  0.37478  Biso   1.000  C
  C1199    1.0000 0.67779  0.38431  0.80698  Biso   1.000  C
  C1200    1.0000 0.67779  0.38426  0.80698  Biso   1.000  C
  O787     1.0000 0.53239  0.44669  0.78018  Biso   1.000  O
  H1787    1.0000 0.62510  0.43450  0.71191  Biso   1.000  H
  C1201    1.0000 0.64257  0.23507  0.25678  Biso   1.000  C
  O788     1.0000 0.74226  0.17601  0.33907  Biso   1.000  O
  H1788    1.0000 0.74640  0.17127  0.24139  Biso   1.000  H
  O789     1.0000 0.74232  0.17601  0.33907  Biso   1.000  O
  C1202    1.0000 0.64257  0.23512  0.25678  Biso   1.000  C
  H1789    1.0000 0.74640  0.17133  0.24139  Biso   1.000  H
  C1203    1.0000 0.64264  0.23507  0.25678  Biso   1.000  C
  H1790    1.0000 0.76728  0.05060  0.33028  Biso   1.000  H
  H1791    1.0000 0.76734  0.05060  0.33028  Biso   1.000  H
  H1792    1.0000 0.41338  0.21939  0.35640  Biso   1.000  H
  H1793    1.0000 0.40602  0.13358  0.38352  Biso   1.000  H
  H1794    1.0000 0.47159  0.17429  0.41771  Biso   1.000  H
  C1204    1.0000 0.64142  0.34310  0.87959  Biso   1.000  C
  O790     1.0000 0.72022  0.44696  0.81122  Biso   1.000  O
  H1795    1.0000 0.72007  0.35298  0.79039  Biso   1.000  H
  O791     1.0000 0.72021  0.44701  0.81122  Biso   1.000  O
  H1796    1.0000 0.72007  0.35303  0.79039  Biso   1.000  H
  H1797    1.0000 0.72014  0.35298  0.79039  Biso   1.000  H
  C1205    1.0000 0.49877  0.40919  0.85028  Biso   1.000  C
  C1206    1.0000 0.49883  0.40919  0.85028  Biso   1.000  C
  O792     1.0000 0.60762  0.23377  0.19160  Biso   1.000  O
  H1798    1.0000 0.67687  0.27988  0.24992  Biso   1.000  H
  O793     1.0000 0.60761  0.23382  0.19160  Biso   1.000  O
  H1799    1.0000 0.67693  0.27988  0.24992  Biso   1.000  H
  H1800    1.0000 0.79949  0.17550  0.31793  Biso   1.000  H
  H1801    1.0000 0.79949  0.17545  0.31793  Biso   1.000  H
  C1207    1.0000 0.56848  0.39151  0.90148  Biso   1.000  C
  C1208    1.0000 0.56854  0.39151  0.90148  Biso   1.000  C
  O794     1.0000 0.70809  0.32388  0.93032  Biso   1.000  O
  H1802    1.0000 0.61392  0.29788  0.87729  Biso   1.000  H
  H1803    1.0000 0.72881  0.48109  0.76599  Biso   1.000  H
  C1209    1.0000 0.42620  0.45939  0.86473  Biso   1.000  C
  H1804    1.0000 0.47179  0.36316  0.84960  Biso   1.000  H
  C1210    1.0000 0.42620  0.45940  0.86467  Biso   1.000  C
  H1805    1.0000 0.47179  0.36321  0.84960  Biso   1.000  H
  C1211    1.0000 0.56907  0.30157  0.14951  Biso   1.000  C
  C1212    1.0000 0.56913  0.30157  0.14951  Biso   1.000  C
  O795     1.0000 0.53000  0.34938  0.96958  Biso   1.000  O
  H1806    1.0000 0.59458  0.43679  0.90509  Biso   1.000  H
  H1807    1.0000 0.59465  0.43679  0.90509  Biso   1.000  H
  H1808    1.0000 0.76380  0.34097  0.90839  Biso   1.000  H
  H1809    1.0000 0.76380  0.34102  0.90839  Biso   1.000  H
  H1810    1.0000 0.38348  0.46820  0.82892  Biso   1.000  H
  H1811    1.0000 0.45130  0.50509  0.86478  Biso   1.000  H
  H1812    1.0000 0.39766  0.43650  0.90938  Biso   1.000  H
  H1813    1.0000 0.38348  0.46815  0.82892  Biso   1.000  H
  H1814    1.0000 0.39772  0.43650  0.90938  Biso   1.000  H
  H1815    1.0000 0.38355  0.46820  0.82892  Biso   1.000  H
  C1213    1.0000 0.48336  0.28469  0.12098  Biso   1.000  C
  C1214    1.0000 0.63398  0.33599  0.08868  Biso   1.000  C
  H1816    1.0000 0.55788  0.33521  0.17778  Biso   1.000  H
  C1215    1.0000 0.48343  0.28469  0.12098  Biso   1.000  C
  H1817    1.0000 0.55788  0.33516  0.17778  Biso   1.000  H
  C1216    1.0000 0.63404  0.33599  0.08868  Biso   1.000  C
  H1818    1.0000 0.55794  0.33521  0.17778  Biso   1.000  H
  C1217    1.0000 0.52277  0.39159  0.01550  Biso   1.000  C
  C1218    1.0000 0.52283  0.39159  0.01550  Biso   1.000  C
  C1219    1.0000 0.44697  0.35557  0.07088  Biso   1.000  C
  O796     1.0000 0.41848  0.25240  0.17448  Biso   1.000  O
  H1819    1.0000 0.49668  0.25011  0.09407  Biso   1.000  H
  C1220    1.0000 0.44703  0.35557  0.07088  Biso   1.000  C
  H1820    1.0000 0.49669  0.25006  0.09407  Biso   1.000  H
  C1221    1.0000 0.44703  0.35562  0.07088  Biso   1.000  C
  O797     1.0000 0.41854  0.25240  0.17448  Biso   1.000  O
  O798     1.0000 0.59528  0.40386  0.04570  Biso   1.000  O
  C1222    1.0000 0.72060  0.35560  0.11130  Biso   1.000  C
  H1821    1.0000 0.64417  0.30218  0.06062  Biso   1.000  H
  O799     1.0000 0.59528  0.40391  0.04570  Biso   1.000  O
  O800     1.0000 0.59534  0.40391  0.04570  Biso   1.000  O
  H1822    1.0000 0.64424  0.30218  0.06062  Biso   1.000  H
  H1823    1.0000 0.50046  0.43988  0.98848  Biso   1.000  H
  H1824    1.0000 0.50053  0.43988  0.98848  Biso   1.000  H
  H1825    1.0000 0.50052  0.43993  0.98848  Biso   1.000  H
  O801     1.0000 0.42201  0.40521  0.10889  Biso   1.000  O
  H1826    1.0000 0.39600  0.34467  0.04722  Biso   1.000  H
  O802     1.0000 0.42201  0.40516  0.10889  Biso   1.000  O
  H1827    1.0000 0.39752  0.28076  0.20370  Biso   1.000  H
  H1828    1.0000 0.39751  0.28081  0.20370  Biso   1.000  H
  H1829    1.0000 0.75827  0.37688  0.07078  Biso   1.000  H
  H1830    1.0000 0.74829  0.31216  0.14040  Biso   1.000  H
  H1831    1.0000 0.71091  0.39026  0.13711  Biso   1.000  H
  H1832    1.0000 0.74829  0.31222  0.14040  Biso   1.000  H
  H1833    1.0000 0.71091  0.39031  0.13711  Biso   1.000  H
  H1834    1.0000 0.75834  0.37688  0.07078  Biso   1.000  H
  H1835    1.0000 0.39896  0.44908  0.07821  Biso   1.000  H
  H1836    1.0000 0.39903  0.44908  0.07821  Biso   1.000  H
  O803     1.0000 0.40470  0.59606  0.95430  Biso   1.000  O
  C1223    1.0000 0.47720  0.60838  0.98450  Biso   1.000  C
  C1224    1.0000 0.36600  0.66398  0.91132  Biso   1.000  C
  O804     1.0000 0.46998  0.65059  0.03042  Biso   1.000  O
  O805     1.0000 0.47004  0.65059  0.03042  Biso   1.000  O
  H1837    1.0000 0.49951  0.56009  0.01152  Biso   1.000  H
  C1225    1.0000 0.55301  0.64440  0.92912  Biso   1.000  C
  O806     1.0000 0.40470  0.59611  0.95430  Biso   1.000  O
  C1226    1.0000 0.55301  0.64435  0.92912  Biso   1.000  C
  C1227    1.0000 0.43090  0.69840  0.85049  Biso   1.000  C
  C1228    1.0000 0.27937  0.64437  0.88870  Biso   1.000  C
  H1838    1.0000 0.35580  0.69779  0.93938  Biso   1.000  H
  C1229    1.0000 0.27937  0.64443  0.88870  Biso   1.000  C
  C1230    1.0000 0.27944  0.64437  0.88870  Biso   1.000  C
  C1231    1.0000 0.43149  0.60846  0.09852  Biso   1.000  C
  C1232    1.0000 0.43149  0.60851  0.09852  Biso   1.000  C
  O807     1.0000 0.57796  0.59476  0.89111  Biso   1.000  O
  C1233    1.0000 0.51661  0.71528  0.87902  Biso   1.000  C
  H1839    1.0000 0.60397  0.65530  0.95278  Biso   1.000  H
  O808     1.0000 0.57802  0.59476  0.89111  Biso   1.000  O
  O809     1.0000 0.57802  0.59481  0.89111  Biso   1.000  O
  H1840    1.0000 0.60403  0.65530  0.95278  Biso   1.000  H
  O810     1.0000 0.39236  0.76620  0.80840  Biso   1.000  O
  H1841    1.0000 0.44210  0.66476  0.82222  Biso   1.000  H
  O811     1.0000 0.39242  0.76615  0.80840  Biso   1.000  O
  O812     1.0000 0.39242  0.76620  0.80840  Biso   1.000  O
  H1842    1.0000 0.44210  0.66481  0.82222  Biso   1.000  H
  H1843    1.0000 0.24170  0.62308  0.92922  Biso   1.000  H
  H1844    1.0000 0.25168  0.68781  0.85960  Biso   1.000  H
  H1845    1.0000 0.28906  0.60971  0.86289  Biso   1.000  H
  H1846    1.0000 0.25168  0.68775  0.85960  Biso   1.000  H
  H1847    1.0000 0.28913  0.60966  0.86289  Biso   1.000  H
  H1848    1.0000 0.28913  0.60971  0.86289  Biso   1.000  H
  H1849    1.0000 0.25175  0.68781  0.85960  Biso   1.000  H
  C1234    1.0000 0.50121  0.59078  0.14972  Biso   1.000  C
  H1850    1.0000 0.40539  0.56318  0.09491  Biso   1.000  H
  C1235    1.0000 0.35862  0.65687  0.12041  Biso   1.000  C
  C1236    1.0000 0.35856  0.65687  0.12041  Biso   1.000  C
  H1851    1.0000 0.60101  0.55089  0.92179  Biso   1.000  H
  O813     1.0000 0.58149  0.74757  0.82552  Biso   1.000  O
  H1852    1.0000 0.50329  0.74986  0.90593  Biso   1.000  H
  H1853    1.0000 0.50329  0.74988  0.90587  Biso   1.000  H
  H1854    1.0000 0.50329  0.74991  0.90593  Biso   1.000  H
  C1237    1.0000 0.35740  0.76490  0.74322  Biso   1.000  C
  C1238    1.0000 0.35740  0.76485  0.74322  Biso   1.000  C
  O814     1.0000 0.46759  0.55328  0.21982  Biso   1.000  O
  C1239    1.0000 0.57378  0.54058  0.13527  Biso   1.000  C
  H1855    1.0000 0.52818  0.63681  0.15040  Biso   1.000  H
  H1856    1.0000 0.52818  0.63676  0.15040  Biso   1.000  H
  C1240    1.0000 0.57377  0.54063  0.13527  Biso   1.000  C
  C1241    1.0000 0.57384  0.54058  0.13527  Biso   1.000  C
  H1857    1.0000 0.52825  0.63681  0.15040  Biso   1.000  H
  C1242    1.0000 0.32218  0.61566  0.19302  Biso   1.000  C
  C1243    1.0000 0.32218  0.61571  0.19302  Biso   1.000  C
  C1244    1.0000 0.32225  0.61571  0.19302  Biso   1.000  C
  O815     1.0000 0.29189  0.67609  0.06968  Biso   1.000  O
  H1858    1.0000 0.38612  0.70209  0.12271  Biso   1.000  H
  H1859    1.0000 0.38605  0.70209  0.12271  Biso   1.000  H
  H1860    1.0000 0.60246  0.71921  0.79630  Biso   1.000  H
  H1861    1.0000 0.60252  0.71916  0.79630  Biso   1.000  H
  H1862    1.0000 0.60252  0.71921  0.79630  Biso   1.000  H
  C1245    1.0000 0.29868  0.83026  0.72149  Biso   1.000  C
  O816     1.0000 0.42727  0.76827  0.69270  Biso   1.000  O
  H1863    1.0000 0.32311  0.72009  0.75008  Biso   1.000  H
  O817     1.0000 0.42733  0.76827  0.69270  Biso   1.000  O
  C1246    1.0000 0.29868  0.83031  0.72149  Biso   1.000  C
  O818     1.0000 0.42733  0.76832  0.69270  Biso   1.000  O
  C1247    1.0000 0.39849  0.59508  0.24223  Biso   1.000  C
  C1248    1.0000 0.39849  0.59509  0.24217  Biso   1.000  C
  H1864    1.0000 0.54868  0.49488  0.13522  Biso   1.000  H
  H1865    1.0000 0.60232  0.56347  0.09062  Biso   1.000  H
  H1866    1.0000 0.61649  0.53177  0.17108  Biso   1.000  H
  H1867    1.0000 0.61649  0.53182  0.17108  Biso   1.000  H
  H1868    1.0000 0.54874  0.49488  0.13522  Biso   1.000  H
  H1869    1.0000 0.27990  0.64699  0.20961  Biso   1.000  H
  O819     1.0000 0.27976  0.55301  0.18878  Biso   1.000  O
  O820     1.0000 0.27982  0.55296  0.18878  Biso   1.000  O
  O821     1.0000 0.27982  0.55301  0.18878  Biso   1.000  O
  H1870    1.0000 0.23617  0.65900  0.09161  Biso   1.000  H
  H1871    1.0000 0.23617  0.65895  0.09161  Biso   1.000  H
  H1872    1.0000 0.23624  0.65900  0.09161  Biso   1.000  H
  O822     1.0000 0.25772  0.82396  0.66093  Biso   1.000  O
  C1249    1.0000 0.34338  0.90236  0.70071  Biso   1.000  C
  H1873    1.0000 0.25357  0.82870  0.75861  Biso   1.000  H
  O823     1.0000 0.25771  0.82401  0.66093  Biso   1.000  O
  C1250    1.0000 0.34338  0.90241  0.70071  Biso   1.000  C
  H1874    1.0000 0.25364  0.82870  0.75861  Biso   1.000  H
  C1251    1.0000 0.48078  0.83238  0.67872  Biso   1.000  C
  C1252    1.0000 0.48084  0.83238  0.67872  Biso   1.000  C
  O824     1.0000 0.43409  0.66037  0.25029  Biso   1.000  O
  H1875    1.0000 0.37487  0.56547  0.28809  Biso   1.000  H
  O825     1.0000 0.43409  0.66042  0.25029  Biso   1.000  O
  H1876    1.0000 0.37487  0.56553  0.28809  Biso   1.000  H
  H1877    1.0000 0.37494  0.56547  0.28809  Biso   1.000  H
  H1878    1.0000 0.27123  0.51888  0.23401  Biso   1.000  H
  H1879    1.0000 0.27116  0.51888  0.23401  Biso   1.000  H
  H1880    1.0000 0.20048  0.82447  0.68207  Biso   1.000  H
  H1881    1.0000 0.20048  0.82452  0.68207  Biso   1.000  H
  H1882    1.0000 0.20055  0.82452  0.68207  Biso   1.000  H
  O826     1.0000 0.29211  0.96360  0.67181  Biso   1.000  O
  C1253    1.0000 0.42736  0.90139  0.65402  Biso   1.000  C
  H1883    1.0000 0.36468  0.90870  0.74411  Biso   1.000  H
  O827     1.0000 0.29211  0.96355  0.67181  Biso   1.000  O
  C1254    1.0000 0.42742  0.90139  0.65402  Biso   1.000  C
  H1884    1.0000 0.36475  0.90870  0.74411  Biso   1.000  H
  C1255    1.0000 0.55437  0.82556  0.62522  Biso   1.000  C
  H1885    1.0000 0.50838  0.83220  0.72218  Biso   1.000  H
  C1256    1.0000 0.55443  0.82556  0.62522  Biso   1.000  C
  C1257    1.0000 0.55443  0.82561  0.62522  Biso   1.000  C
  H1886    1.0000 0.50845  0.83220  0.72218  Biso   1.000  H
  C1258    1.0000 0.49039  0.65091  0.30960  Biso   1.000  C
  C1259    1.0000 0.49039  0.65086  0.30960  Biso   1.000  C
  H1887    1.0000 0.23270  0.94937  0.66972  Biso   1.000  H
  H1888    1.0000 0.23269  0.94942  0.66972  Biso   1.000  H
  O828     1.0000 0.48391  0.96329  0.65171  Biso   1.000  O
  H1889    1.0000 0.40918  0.90639  0.60638  Biso   1.000  H
  H1890    1.0000 0.58659  0.78058  0.64360  Biso   1.000  H
  H1891    1.0000 0.59395  0.86639  0.61648  Biso   1.000  H
  H1892    1.0000 0.52839  0.82568  0.58229  Biso   1.000  H
  H1893    1.0000 0.59402  0.86639  0.61648  Biso   1.000  H
  C1260    1.0000 0.57818  0.69250  0.28458  Biso   1.000  C
  C1261    1.0000 0.44250  0.68587  0.36028  Biso   1.000  C
  H1894    1.0000 0.50186  0.59868  0.33243  Biso   1.000  H
  H1895    1.0000 0.50193  0.59869  0.33237  Biso   1.000  H
  C1262    1.0000 0.44250  0.68592  0.36028  Biso   1.000  C
  H1896    1.0000 0.50192  0.59868  0.33243  Biso   1.000  H
  C1263    1.0000 0.50789  0.00880  0.58622  Biso   1.000  C
  C1264    1.0000 0.50789  0.00875  0.58622  Biso   1.000  C
  C1265    1.0000 0.62991  0.69610  0.34541  Biso   1.000  C
  O829     1.0000 0.62982  0.66019  0.24039  Biso   1.000  O
  H1897    1.0000 0.56357  0.74286  0.25730  Biso   1.000  H
  H1898    1.0000 0.56357  0.74291  0.25730  Biso   1.000  H
  H1899    1.0000 0.56364  0.74291  0.25730  Biso   1.000  H
  O830     1.0000 0.49483  0.68699  0.41729  Biso   1.000  O
  C1266    1.0000 0.35963  0.64118  0.39561  Biso   1.000  C
  H1900    1.0000 0.42460  0.73611  0.33510  Biso   1.000  H
  O831     1.0000 0.49476  0.68699  0.41729  Biso   1.000  O
  C1267    1.0000 0.35956  0.64118  0.39561  Biso   1.000  C
  H1901    1.0000 0.42460  0.73605  0.33510  Biso   1.000  H
  H1902    1.0000 0.52819  0.97806  0.55690  Biso   1.000  H
  H1903    1.0000 0.52818  0.97811  0.55690  Biso   1.000  H
  C1268    1.0000 0.58338  0.05301  0.59481  Biso   1.000  C
  O832     1.0000 0.43857  0.05481  0.55219  Biso   1.000  O
  C1269    1.0000 0.58338  0.05295  0.59481  Biso   1.000  C
  O833     1.0000 0.43863  0.05476  0.55219  Biso   1.000  O
  C1270    1.0000 0.58344  0.05301  0.59481  Biso   1.000  C
  O834     1.0000 0.43863  0.05481  0.55219  Biso   1.000  O
  C1271    1.0000 0.57381  0.72870  0.39389  Biso   1.000  C
  O835     1.0000 0.65899  0.62496  0.38572  Biso   1.000  O
  H1904    1.0000 0.68172  0.72731  0.32798  Biso   1.000  H
  H1905    1.0000 0.68166  0.72731  0.32798  Biso   1.000  H
  O836     1.0000 0.65899  0.62501  0.38572  Biso   1.000  O
  H1906    1.0000 0.59542  0.65858  0.20218  Biso   1.000  H
  H1907    1.0000 0.59536  0.65858  0.20218  Biso   1.000  H
  H1908    1.0000 0.33099  0.66448  0.42729  Biso   1.000  H
  H1909    1.0000 0.31939  0.63928  0.36038  Biso   1.000  H
  H1910    1.0000 0.37721  0.59226  0.42111  Biso   1.000  H
  H1911    1.0000 0.31939  0.63933  0.36038  Biso   1.000  H
  H1912    1.0000 0.37721  0.59232  0.42111  Biso   1.000  H
  O837     1.0000 0.62490  0.08829  0.52492  Biso   1.000  O
  C1272    1.0000 0.55529  0.11150  0.62931  Biso   1.000  C
  H1913    1.0000 0.62680  0.02016  0.62391  Biso   1.000  H
  H1914    1.0000 0.62680  0.02022  0.62391  Biso   1.000  H
  C1273    1.0000 0.40721  0.10317  0.59062  Biso   1.000  C
  H1915    1.0000 0.60807  0.72651  0.43488  Biso   1.000  H
  O838     1.0000 0.55477  0.80156  0.36001  Biso   1.000  O
  O839     1.0000 0.55477  0.80161  0.36001  Biso   1.000  O
  O840     1.0000 0.55483  0.80161  0.36001  Biso   1.000  O
  H1916    1.0000 0.60814  0.72651  0.43488  Biso   1.000  H
  H1917    1.0000 0.71858  0.61356  0.37582  Biso   1.000  H
  H1918    1.0000 0.71858  0.61362  0.37582  Biso   1.000  H
  H1919    1.0000 0.63669  0.13777  0.49880  Biso   1.000  H
  H1920    1.0000 0.63669  0.13782  0.49880  Biso   1.000  H
  O841     1.0000 0.62710  0.15821  0.63051  Biso   1.000  O
  C1274    1.0000 0.47749  0.15578  0.59528  Biso   1.000  C
  H1921    1.0000 0.53729  0.08631  0.67799  Biso   1.000  H
  O842     1.0000 0.62710  0.15815  0.63051  Biso   1.000  O
  H1922    1.0000 0.53729  0.08626  0.67799  Biso   1.000  H
  C1275    1.0000 0.47749  0.15583  0.59528  Biso   1.000  C
  C1276    1.0000 0.32795  0.14137  0.55340  Biso   1.000  C
  H1923    1.0000 0.38846  0.07399  0.63800  Biso   1.000  H
  C1277    1.0000 0.32802  0.14137  0.55340  Biso   1.000  C
  H1924    1.0000 0.38853  0.07399  0.63800  Biso   1.000  H
  C1278    1.0000 0.32802  0.14142  0.55340  Biso   1.000  C
  C1279    1.0000 0.52248  0.84419  0.40472  Biso   1.000  C
  H1925    1.0000 0.68227  0.13317  0.63972  Biso   1.000  H
  H1926    1.0000 0.68233  0.13317  0.63972  Biso   1.000  H
  O843     1.0000 0.44520  0.19841  0.63999  Biso   1.000  O
  H1927    1.0000 0.49461  0.18790  0.54858  Biso   1.000  H
  O844     1.0000 0.44520  0.19836  0.63999  Biso   1.000  O
  H1928    1.0000 0.28498  0.10566  0.55172  Biso   1.000  H
  H1929    1.0000 0.34551  0.16948  0.50660  Biso   1.000  H
  H1930    1.0000 0.30259  0.17357  0.57800  Biso   1.000  H
  H1931    1.0000 0.28498  0.10571  0.55172  Biso   1.000  H
  H1932    1.0000 0.30259  0.17362  0.57800  Biso   1.000  H
  C1280    1.0000 0.59283  0.89680  0.40938  Biso   1.000  C
  H1933    1.0000 0.50543  0.81207  0.45142  Biso   1.000  H
  C1281    1.0000 0.44468  0.88847  0.37069  Biso   1.000  C
  C1282    1.0000 0.59276  0.89680  0.40938  Biso   1.000  C
  H1934    1.0000 0.50536  0.81207  0.45142  Biso   1.000  H
  C1283    1.0000 0.44468  0.88852  0.37069  Biso   1.000  C
  C1284    1.0000 0.44475  0.88847  0.37069  Biso   1.000  C
  C1285    1.0000 0.42617  0.27127  0.60611  Biso   1.000  C
  C1286    1.0000 0.42623  0.27127  0.60611  Biso   1.000  C
  H1935    1.0000 0.61151  0.92598  0.36200  Biso   1.000  H
  C1287    1.0000 0.67202  0.85860  0.44660  Biso   1.000  C
  O845     1.0000 0.56140  0.94516  0.44781  Biso   1.000  O
  C1288    1.0000 0.67202  0.85855  0.44660  Biso   1.000  C
  O846     1.0000 0.56140  0.94521  0.44781  Biso   1.000  O
  C1289    1.0000 0.41660  0.94696  0.40519  Biso   1.000  C
  O847     1.0000 0.37287  0.84176  0.36949  Biso   1.000  O
  H1936    1.0000 0.46268  0.91366  0.32201  Biso   1.000  H
  C1290    1.0000 0.41659  0.94702  0.40519  Biso   1.000  C
  O848     1.0000 0.37287  0.84182  0.36949  Biso   1.000  O
  H1937    1.0000 0.46268  0.91371  0.32201  Biso   1.000  H
  O849     1.0000 0.37294  0.84182  0.36949  Biso   1.000  O
  H1938    1.0000 0.46274  0.91371  0.32201  Biso   1.000  H
  C1291    1.0000 0.37006  0.30387  0.65459  Biso   1.000  C
  O850     1.0000 0.50521  0.31298  0.58271  Biso   1.000  O
  H1939    1.0000 0.39190  0.27346  0.56512  Biso   1.000  H
  C1292    1.0000 0.37013  0.30387  0.65459  Biso   1.000  C
  C1293    1.0000 0.37012  0.30393  0.65459  Biso   1.000  C
  H1940    1.0000 0.39190  0.27352  0.56512  Biso   1.000  H
  H1941    1.0000 0.69738  0.82640  0.42200  Biso   1.000  H
  H1942    1.0000 0.71499  0.89431  0.44828  Biso   1.000  H
  H1943    1.0000 0.65453  0.83049  0.49340  Biso   1.000  H
  H1944    1.0000 0.65446  0.83049  0.49340  Biso   1.000  H
  H1945    1.0000 0.71499  0.89426  0.44828  Biso   1.000  H
  H1946    1.0000 0.69745  0.82640  0.42200  Biso   1.000  H
  C1294    1.0000 0.49209  0.99117  0.41378  Biso   1.000  C
  C1295    1.0000 0.49209  0.99122  0.41378  Biso   1.000  C
  H1947    1.0000 0.37317  0.97981  0.37609  Biso   1.000  H
  O851     1.0000 0.37507  0.91168  0.47508  Biso   1.000  O
  O852     1.0000 0.37513  0.91168  0.47508  Biso   1.000  O
  O853     1.0000 0.37513  0.91173  0.47508  Biso   1.000  O
  H1948    1.0000 0.37324  0.97981  0.37609  Biso   1.000  H
  H1949    1.0000 0.31771  0.86680  0.36028  Biso   1.000  H
  O854     1.0000 0.34098  0.37501  0.61428  Biso   1.000  O
  C1296    1.0000 0.42179  0.30747  0.71542  Biso   1.000  C
  H1950    1.0000 0.31832  0.27266  0.67202  Biso   1.000  H
  O855     1.0000 0.34098  0.37496  0.61428  Biso   1.000  O
  H1951    1.0000 0.31831  0.27272  0.67202  Biso   1.000  H
  O856     1.0000 0.34105  0.37501  0.61428  Biso   1.000  O
  C1297    1.0000 0.55748  0.31410  0.63972  Biso   1.000  C
  C1298    1.0000 0.55748  0.31405  0.63972  Biso   1.000  C
  C1299    1.0000 0.55754  0.31410  0.63972  Biso   1.000  C
  O857     1.0000 0.51606  0.03667  0.34829  Biso   1.000  O
  H1952    1.0000 0.47179  0.02191  0.44310  Biso   1.000  H
  O858     1.0000 0.51613  0.03667  0.34829  Biso   1.000  O
  H1953    1.0000 0.47179  0.02186  0.44310  Biso   1.000  H
  O859     1.0000 0.51613  0.03673  0.34829  Biso   1.000  O
  H1954    1.0000 0.36329  0.86220  0.50120  Biso   1.000  H
  H1955    1.0000 0.28139  0.38641  0.62418  Biso   1.000  H
  O860     1.0000 0.37016  0.33978  0.75961  Biso   1.000  O
  C1300    1.0000 0.50958  0.34906  0.69040  Biso   1.000  C
  H1956    1.0000 0.43640  0.25711  0.74270  Biso   1.000  H
  O861     1.0000 0.37022  0.33978  0.75961  Biso   1.000  O
  H1957    1.0000 0.43640  0.25706  0.74270  Biso   1.000  H
  C1301    1.0000 0.50958  0.34911  0.69040  Biso   1.000  C
  C1302    1.0000 0.50965  0.34911  0.69040  Biso   1.000  C
  C1303    1.0000 0.64041  0.35879  0.60439  Biso   1.000  C
  H1958    1.0000 0.57537  0.26386  0.66490  Biso   1.000  H
  H1959    1.0000 0.57537  0.26392  0.66490  Biso   1.000  H
  H1960    1.0000 0.57544  0.26386  0.66490  Biso   1.000  H
  C1304    1.0000 0.57262  0.09858  0.34598  Biso   1.000  C
  C1305    1.0000 0.57262  0.09863  0.34598  Biso   1.000  C
  H1961    1.0000 0.40461  0.34139  0.79782  Biso   1.000  H
  O862     1.0000 0.56588  0.33960  0.74971  Biso   1.000  O
  H1962    1.0000 0.49811  0.40129  0.66757  Biso   1.000  H
  O863     1.0000 0.56588  0.33955  0.74971  Biso   1.000  O
  H1963    1.0000 0.66898  0.33549  0.57271  Biso   1.000  H
  H1964    1.0000 0.68058  0.36069  0.63962  Biso   1.000  H
  H1965    1.0000 0.62276  0.40771  0.57889  Biso   1.000  H
  H1966    1.0000 0.62283  0.40765  0.57889  Biso   1.000  H
  H1967    1.0000 0.62283  0.40771  0.57889  Biso   1.000  H
  H1968    1.0000 0.68065  0.36069  0.63962  Biso   1.000  H
  C1306    1.0000 0.65659  0.09761  0.29929  Biso   1.000  C
  C1307    1.0000 0.51920  0.16759  0.32128  Biso   1.000  C
  H1969    1.0000 0.59079  0.09358  0.39362  Biso   1.000  H
  C1308    1.0000 0.65659  0.09756  0.29929  Biso   1.000  C
  C1309    1.0000 0.60149  0.40489  0.75777  Biso   1.000  C
  C1310    1.0000 0.70129  0.16971  0.27851  Biso   1.000  C
  O864     1.0000 0.70787  0.03636  0.32819  Biso   1.000  O
  H1970    1.0000 0.63529  0.09127  0.25589  Biso   1.000  H
  C1311    1.0000 0.70129  0.16966  0.27851  Biso   1.000  C
  O865     1.0000 0.70793  0.03636  0.32819  Biso   1.000  O
  O866     1.0000 0.70793  0.03642  0.32819  Biso   1.000  O
  H1971    1.0000 0.63529  0.09132  0.25589  Biso   1.000  H
  O867     1.0000 0.57271  0.23170  0.30730  Biso   1.000  O
  C1312    1.0000 0.44561  0.17441  0.37478  Biso   1.000  C
  H1972    1.0000 0.49159  0.16777  0.27782  Biso   1.000  H
  C1313    1.0000 0.44561  0.17436  0.37478  Biso   1.000  C
  C1314    1.0000 0.67779  0.38431  0.80698  Biso   1.000  C
  O868     1.0000 0.53239  0.44669  0.78018  Biso   1.000  O
  H1973    1.0000 0.62510  0.43450  0.71191  Biso   1.000  H
  C1315    1.0000 0.67779  0.38426  0.80698  Biso   1.000  C
  C1316    1.0000 0.64257  0.23507  0.25678  Biso   1.000  C
  O869     1.0000 0.74226  0.17601  0.33907  Biso   1.000  O
  H1974    1.0000 0.74640  0.17127  0.24139  Biso   1.000  H
  O870     1.0000 0.74232  0.17601  0.33907  Biso   1.000  O
  C1317    1.0000 0.64257  0.23512  0.25678  Biso   1.000  C
  H1975    1.0000 0.74640  0.17133  0.24139  Biso   1.000  H
  C1318    1.0000 0.64264  0.23507  0.25678  Biso   1.000  C
  H1976    1.0000 0.76728  0.05060  0.33028  Biso   1.000  H
  H1977    1.0000 0.76734  0.05060  0.33028  Biso   1.000  H
  H1978    1.0000 0.41338  0.21939  0.35640  Biso   1.000  H
  H1979    1.0000 0.40602  0.13358  0.38352  Biso   1.000  H
  H1980    1.0000 0.47159  0.17429  0.41771  Biso   1.000  H
  C1319    1.0000 0.64142  0.34310  0.87959  Biso   1.000  C
  O871     1.0000 0.72022  0.44696  0.81122  Biso   1.000  O
  H1981    1.0000 0.72007  0.35298  0.79039  Biso   1.000  H
  O872     1.0000 0.72021  0.44701  0.81122  Biso   1.000  O
  H1982    1.0000 0.72007  0.35303  0.79039  Biso   1.000  H
  H1983    1.0000 0.72014  0.35298  0.79039  Biso   1.000  H
  C1320    1.0000 0.49877  0.40919  0.85028  Biso   1.000  C
  C1321    1.0000 0.49883  0.40919  0.85028  Biso   1.000  C
  O873     1.0000 0.60762  0.23377  0.19160  Biso   1.000  O
  H1984    1.0000 0.67687  0.27988  0.24992  Biso   1.000  H
  O874     1.0000 0.60761  0.23382  0.19160  Biso   1.000  O
  H1985    1.0000 0.67693  0.27988  0.24992  Biso   1.000  H
  H1986    1.0000 0.79949  0.17550  0.31793  Biso   1.000  H
  H1987    1.0000 0.79949  0.17545  0.31793  Biso   1.000  H
  C1322    1.0000 0.56848  0.39151  0.90148  Biso   1.000  C
  C1323    1.0000 0.56854  0.39151  0.90148  Biso   1.000  C
  O875     1.0000 0.70809  0.32388  0.93032  Biso   1.000  O
  H1988    1.0000 0.61392  0.29788  0.87729  Biso   1.000  H
  H1989    1.0000 0.72881  0.48109  0.76599  Biso   1.000  H
  C1324    1.0000 0.42620  0.45939  0.86473  Biso   1.000  C
  H1990    1.0000 0.47179  0.36316  0.84960  Biso   1.000  H
  C1325    1.0000 0.42620  0.45940  0.86467  Biso   1.000  C
  H1991    1.0000 0.47179  0.36321  0.84960  Biso   1.000  H
  C1326    1.0000 0.56907  0.30157  0.14951  Biso   1.000  C
  C1327    1.0000 0.56913  0.30157  0.14951  Biso   1.000  C
  O876     1.0000 0.53000  0.34938  0.96958  Biso   1.000  O
  H1992    1.0000 0.59458  0.43679  0.90509  Biso   1.000  H
  H1993    1.0000 0.59465  0.43679  0.90509  Biso   1.000  H
  H1994    1.0000 0.76380  0.34097  0.90839  Biso   1.000  H
  H1995    1.0000 0.76380  0.34102  0.90839  Biso   1.000  H
  H1996    1.0000 0.38348  0.46820  0.82892  Biso   1.000  H
  H1997    1.0000 0.45130  0.50509  0.86478  Biso   1.000  H
  H1998    1.0000 0.39766  0.43650  0.90938  Biso   1.000  H
  H1999    1.0000 0.38348  0.46815  0.82892  Biso   1.000  H
  H2000    1.0000 0.39772  0.43650  0.90938  Biso   1.000  H
  H2001    1.0000 0.38355  0.46820  0.82892  Biso   1.000  H
  C1328    1.0000 0.48336  0.28469  0.12098  Biso   1.000  C
  C1329    1.0000 0.63398  0.33599  0.08868  Biso   1.000  C
  H2002    1.0000 0.55788  0.33521  0.17778  Biso   1.000  H
  C1330    1.0000 0.48343  0.28469  0.12098  Biso   1.000  C
  H2003    1.0000 0.55788  0.33516  0.17778  Biso   1.000  H
  C1331    1.0000 0.63404  0.33599  0.08868  Biso   1.000  C
  H2004    1.0000 0.55794  0.33521  0.17778  Biso   1.000  H
  C1332    1.0000 0.52277  0.39159  0.01550  Biso   1.000  C
  C1333    1.0000 0.52283  0.39159  0.01550  Biso   1.000  C
  C1334    1.0000 0.44697  0.35557  0.07088  Biso   1.000  C
  O877     1.0000 0.41848  0.25240  0.17448  Biso   1.000  O
  H2005    1.0000 0.49668  0.25011  0.09407  Biso   1.000  H
  C1335    1.0000 0.44703  0.35557  0.07088  Biso   1.000  C
  H2006    1.0000 0.49669  0.25006  0.09407  Biso   1.000  H
  C1336    1.0000 0.44703  0.35562  0.07088  Biso   1.000  C
  O878     1.0000 0.41854  0.25240  0.17448  Biso   1.000  O
  O879     1.0000 0.59528  0.40386  0.04570  Biso   1.000  O
  C1337    1.0000 0.72060  0.35560  0.11130  Biso   1.000  C
  H2007    1.0000 0.64417  0.30218  0.06062  Biso   1.000  H
  O880     1.0000 0.59528  0.40391  0.04570  Biso   1.000  O
  O881     1.0000 0.59534  0.40391  0.04570  Biso   1.000  O
  H2008    1.0000 0.64424  0.30218  0.06062  Biso   1.000  H
  H2009    1.0000 0.50046  0.43988  0.98848  Biso   1.000  H
  H2010    1.0000 0.50053  0.43988  0.98848  Biso   1.000  H
  H2011    1.0000 0.50052  0.43993  0.98848  Biso   1.000  H
  O882     1.0000 0.42201  0.40521  0.10889  Biso   1.000  O
  H2012    1.0000 0.39600  0.34467  0.04722  Biso   1.000  H
  O883     1.0000 0.42201  0.40516  0.10889  Biso   1.000  O
  H2013    1.0000 0.39752  0.28076  0.20370  Biso   1.000  H
  H2014    1.0000 0.39751  0.28081  0.20370  Biso   1.000  H
  H2015    1.0000 0.75827  0.37688  0.07078  Biso   1.000  H
  H2016    1.0000 0.74829  0.31216  0.14040  Biso   1.000  H
  H2017    1.0000 0.71091  0.39026  0.13711  Biso   1.000  H
  H2018    1.0000 0.74829  0.31222  0.14040  Biso   1.000  H
  H2019    1.0000 0.71091  0.39031  0.13711  Biso   1.000  H
  H2020    1.0000 0.75834  0.37688  0.07078  Biso   1.000  H
  H2021    1.0000 0.39896  0.44908  0.07821  Biso   1.000  H
  H2022    1.0000 0.39903  0.44908  0.07821  Biso   1.000  H
  O884     1.0000 0.40470  0.59606  0.95430  Biso   1.000  O
  C1338    1.0000 0.47720  0.60838  0.98450  Biso   1.000  C
  C1339    1.0000 0.36600  0.66398  0.91132  Biso   1.000  C
  O885     1.0000 0.46998  0.65059  0.03042  Biso   1.000  O
  O886     1.0000 0.47004  0.65059  0.03042  Biso   1.000  O
  H2023    1.0000 0.49951  0.56009  0.01152  Biso   1.000  H
  C1340    1.0000 0.55301  0.64440  0.92912  Biso   1.000  C
  O887     1.0000 0.40470  0.59611  0.95430  Biso   1.000  O
  C1341    1.0000 0.55301  0.64435  0.92912  Biso   1.000  C
  C1342    1.0000 0.43090  0.69840  0.85049  Biso   1.000  C
  C1343    1.0000 0.27937  0.64437  0.88870  Biso   1.000  C
  H2024    1.0000 0.35580  0.69779  0.93938  Biso   1.000  H
  C1344    1.0000 0.27937  0.64443  0.88870  Biso   1.000  C
  C1345    1.0000 0.27944  0.64437  0.88870  Biso   1.000  C
  C1346    1.0000 0.43149  0.60846  0.09852  Biso   1.000  C
  C1347    1.0000 0.43149  0.60851  0.09852  Biso   1.000  C
  O888     1.0000 0.57796  0.59476  0.89111  Biso   1.000  O
  C1348    1.0000 0.51661  0.71528  0.87902  Biso   1.000  C
  H2025    1.0000 0.60397  0.65530  0.95278  Biso   1.000  H
  O889     1.0000 0.57802  0.59476  0.89111  Biso   1.000  O
  O890     1.0000 0.57802  0.59481  0.89111  Biso   1.000  O
  H2026    1.0000 0.60403  0.65530  0.95278  Biso   1.000  H
  O891     1.0000 0.39236  0.76620  0.80840  Biso   1.000  O
  H2027    1.0000 0.44210  0.66476  0.82222  Biso   1.000  H
  O892     1.0000 0.39242  0.76615  0.80840  Biso   1.000  O
  O893     1.0000 0.39242  0.76620  0.80840  Biso   1.000  O
  H2028    1.0000 0.44210  0.66481  0.82222  Biso   1.000  H
  H2029    1.0000 0.24170  0.62308  0.92922  Biso   1.000  H
  H2030    1.0000 0.25168  0.68781  0.85960  Biso   1.000  H
  H2031    1.0000 0.28906  0.60971  0.86289  Biso   1.000  H
  H2032    1.0000 0.25168  0.68775  0.85960  Biso   1.000  H
  H2033    1.0000 0.28913  0.60966  0.86289  Biso   1.000  H
  H2034    1.0000 0.28913  0.60971  0.86289  Biso   1.000  H
  H2035    1.0000 0.25175  0.68781  0.85960  Biso   1.000  H
  C1349    1.0000 0.50121  0.59078  0.14972  Biso   1.000  C
  H2036    1.0000 0.40539  0.56318  0.09491  Biso   1.000  H
  C1350    1.0000 0.35856  0.65687  0.12041  Biso   1.000  C
  C1351    1.0000 0.35862  0.65687  0.12041  Biso   1.000  C
  H2037    1.0000 0.60101  0.55089  0.92179  Biso   1.000  H
  O894     1.0000 0.58149  0.74757  0.82552  Biso   1.000  O
  H2038    1.0000 0.50329  0.74986  0.90593  Biso   1.000  H
  H2039    1.0000 0.50329  0.74988  0.90587  Biso   1.000  H
  H2040    1.0000 0.50329  0.74991  0.90593  Biso   1.000  H
  C1352    1.0000 0.35740  0.76490  0.74322  Biso   1.000  C
  C1353    1.0000 0.35740  0.76485  0.74322  Biso   1.000  C
  O895     1.0000 0.46759  0.55328  0.21982  Biso   1.000  O
  C1354    1.0000 0.57378  0.54058  0.13527  Biso   1.000  C
  H2041    1.0000 0.52818  0.63681  0.15040  Biso   1.000  H
  H2042    1.0000 0.52818  0.63676  0.15040  Biso   1.000  H
  C1355    1.0000 0.57377  0.54063  0.13527  Biso   1.000  C
  C1356    1.0000 0.57384  0.54058  0.13527  Biso   1.000  C
  H2043    1.0000 0.52825  0.63681  0.15040  Biso   1.000  H
  C1357    1.0000 0.32218  0.61566  0.19302  Biso   1.000  C
  C1358    1.0000 0.32218  0.61571  0.19302  Biso   1.000  C
  C1359    1.0000 0.32225  0.61571  0.19302  Biso   1.000  C
  O896     1.0000 0.29189  0.67609  0.06968  Biso   1.000  O
  H2044    1.0000 0.38605  0.70209  0.12271  Biso   1.000  H
  H2045    1.0000 0.38612  0.70209  0.12271  Biso   1.000  H
  H2046    1.0000 0.60246  0.71921  0.79630  Biso   1.000  H
  H2047    1.0000 0.60252  0.71916  0.79630  Biso   1.000  H
  H2048    1.0000 0.60252  0.71921  0.79630  Biso   1.000  H
  C1360    1.0000 0.29868  0.83026  0.72149  Biso   1.000  C
  O897     1.0000 0.42727  0.76827  0.69270  Biso   1.000  O
  H2049    1.0000 0.32311  0.72009  0.75008  Biso   1.000  H
  O898     1.0000 0.42733  0.76827  0.69270  Biso   1.000  O
  C1361    1.0000 0.29868  0.83031  0.72149  Biso   1.000  C
  O899     1.0000 0.42733  0.76832  0.69270  Biso   1.000  O
  C1362    1.0000 0.39849  0.59508  0.24223  Biso   1.000  C
  C1363    1.0000 0.39849  0.59509  0.24217  Biso   1.000  C
  H2050    1.0000 0.60232  0.56347  0.09062  Biso   1.000  H
  H2051    1.0000 0.61649  0.53177  0.17108  Biso   1.000  H
  H2052    1.0000 0.54868  0.49488  0.13522  Biso   1.000  H
  H2053    1.0000 0.61649  0.53182  0.17108  Biso   1.000  H
  H2054    1.0000 0.54874  0.49488  0.13522  Biso   1.000  H
  H2055    1.0000 0.27990  0.64699  0.20961  Biso   1.000  H
  O900     1.0000 0.27976  0.55301  0.18878  Biso   1.000  O
  O901     1.0000 0.27982  0.55296  0.18878  Biso   1.000  O
  O902     1.0000 0.27982  0.55301  0.18878  Biso   1.000  O
  H2056    1.0000 0.23617  0.65900  0.09161  Biso   1.000  H
  H2057    1.0000 0.23617  0.65895  0.09161  Biso   1.000  H
  H2058    1.0000 0.23624  0.65900  0.09161  Biso   1.000  H
  O903     1.0000 0.25772  0.82396  0.66093  Biso   1.000  O
  C1364    1.0000 0.34338  0.90236  0.70071  Biso   1.000  C
  H2059    1.0000 0.25357  0.82870  0.75861  Biso   1.000  H
  O904     1.0000 0.25771  0.82401  0.66093  Biso   1.000  O
  C1365    1.0000 0.34338  0.90241  0.70071  Biso   1.000  C
  H2060    1.0000 0.25364  0.82870  0.75861  Biso   1.000  H
  C1366    1.0000 0.48078  0.83238  0.67872  Biso   1.000  C
  C1367    1.0000 0.48084  0.83238  0.67872  Biso   1.000  C
  O905     1.0000 0.43409  0.66037  0.25029  Biso   1.000  O
  H2061    1.0000 0.37487  0.56547  0.28809  Biso   1.000  H
  O906     1.0000 0.43409  0.66042  0.25029  Biso   1.000  O
  H2062    1.0000 0.37487  0.56553  0.28809  Biso   1.000  H
  H2063    1.0000 0.37494  0.56547  0.28809  Biso   1.000  H
  H2064    1.0000 0.27116  0.51888  0.23401  Biso   1.000  H
  H2065    1.0000 0.27123  0.51888  0.23401  Biso   1.000  H
  H2066    1.0000 0.20048  0.82447  0.68207  Biso   1.000  H
  H2067    1.0000 0.20048  0.82452  0.68207  Biso   1.000  H
  H2068    1.0000 0.20055  0.82452  0.68207  Biso   1.000  H
  O907     1.0000 0.29211  0.96360  0.67181  Biso   1.000  O
  C1368    1.0000 0.42736  0.90139  0.65402  Biso   1.000  C
  H2069    1.0000 0.36468  0.90870  0.74411  Biso   1.000  H
  O908     1.0000 0.29211  0.96355  0.67181  Biso   1.000  O
  C1369    1.0000 0.42742  0.90139  0.65402  Biso   1.000  C
  H2070    1.0000 0.36475  0.90870  0.74411  Biso   1.000  H
  C1370    1.0000 0.55437  0.82556  0.62522  Biso   1.000  C
  H2071    1.0000 0.50838  0.83220  0.72218  Biso   1.000  H
  C1371    1.0000 0.55443  0.82556  0.62522  Biso   1.000  C
  C1372    1.0000 0.55443  0.82561  0.62522  Biso   1.000  C
  H2072    1.0000 0.50845  0.83220  0.72218  Biso   1.000  H
  C1373    1.0000 0.49039  0.65091  0.30960  Biso   1.000  C
  C1374    1.0000 0.49039  0.65086  0.30960  Biso   1.000  C
  H2073    1.0000 0.23270  0.94937  0.66972  Biso   1.000  H
  H2074    1.0000 0.23269  0.94942  0.66972  Biso   1.000  H
  O909     1.0000 0.48391  0.96329  0.65171  Biso   1.000  O
  H2075    1.0000 0.40918  0.90639  0.60638  Biso   1.000  H
  H2076    1.0000 0.58659  0.78058  0.64360  Biso   1.000  H
  H2077    1.0000 0.59395  0.86639  0.61648  Biso   1.000  H
  H2078    1.0000 0.52839  0.82568  0.58229  Biso   1.000  H
  H2079    1.0000 0.59402  0.86639  0.61648  Biso   1.000  H
  C1375    1.0000 0.57818  0.69250  0.28458  Biso   1.000  C
  C1376    1.0000 0.44250  0.68587  0.36028  Biso   1.000  C
  H2080    1.0000 0.50186  0.59868  0.33243  Biso   1.000  H
  H2081    1.0000 0.50193  0.59869  0.33237  Biso   1.000  H
  C1377    1.0000 0.44250  0.68592  0.36028  Biso   1.000  C
  H2082    1.0000 0.50192  0.59868  0.33243  Biso   1.000  H
  C1378    1.0000 0.50789  0.00880  0.58622  Biso   1.000  C
  C1379    1.0000 0.50789  0.00875  0.58622  Biso   1.000  C
  C1380    1.0000 0.62991  0.69610  0.34541  Biso   1.000  C
  O910     1.0000 0.62982  0.66019  0.24039  Biso   1.000  O
  H2083    1.0000 0.56357  0.74286  0.25730  Biso   1.000  H
  H2084    1.0000 0.56357  0.74291  0.25730  Biso   1.000  H
  H2085    1.0000 0.56364  0.74291  0.25730  Biso   1.000  H
  O911     1.0000 0.49476  0.68699  0.41729  Biso   1.000  O
  C1381    1.0000 0.35956  0.64118  0.39561  Biso   1.000  C
  H2086    1.0000 0.42460  0.73611  0.33510  Biso   1.000  H
  O912     1.0000 0.49483  0.68699  0.41729  Biso   1.000  O
  C1382    1.0000 0.35963  0.64118  0.39561  Biso   1.000  C
  H2087    1.0000 0.42460  0.73605  0.33510  Biso   1.000  H
  H2088    1.0000 0.52819  0.97806  0.55690  Biso   1.000  H
  H2089    1.0000 0.52818  0.97811  0.55690  Biso   1.000  H
  C1383    1.0000 0.58338  0.05301  0.59481  Biso   1.000  C
  O913     1.0000 0.43857  0.05481  0.55219  Biso   1.000  O
  C1384    1.0000 0.58338  0.05295  0.59481  Biso   1.000  C
  O914     1.0000 0.43863  0.05476  0.55219  Biso   1.000  O
  C1385    1.0000 0.58344  0.05301  0.59481  Biso   1.000  C
  O915     1.0000 0.43863  0.05481  0.55219  Biso   1.000  O
  C1386    1.0000 0.57381  0.72870  0.39389  Biso   1.000  C
  O916     1.0000 0.65899  0.62496  0.38572  Biso   1.000  O
  H2090    1.0000 0.68166  0.72731  0.32798  Biso   1.000  H
  H2091    1.0000 0.68172  0.72731  0.32798  Biso   1.000  H
  O917     1.0000 0.65899  0.62501  0.38572  Biso   1.000  O
  H2092    1.0000 0.59536  0.65858  0.20218  Biso   1.000  H
  H2093    1.0000 0.59542  0.65858  0.20218  Biso   1.000  H
  H2094    1.0000 0.33099  0.66448  0.42729  Biso   1.000  H
  H2095    1.0000 0.31939  0.63928  0.36038  Biso   1.000  H
  H2096    1.0000 0.37721  0.59226  0.42111  Biso   1.000  H
  H2097    1.0000 0.31939  0.63933  0.36038  Biso   1.000  H
  H2098    1.0000 0.37721  0.59232  0.42111  Biso   1.000  H
  O918     1.0000 0.62490  0.08829  0.52492  Biso   1.000  O
  C1387    1.0000 0.55529  0.11150  0.62931  Biso   1.000  C
  H2099    1.0000 0.62680  0.02016  0.62391  Biso   1.000  H
  H2100    1.0000 0.62680  0.02022  0.62391  Biso   1.000  H
  C1388    1.0000 0.40721  0.10317  0.59062  Biso   1.000  C
  O919     1.0000 0.55477  0.80156  0.36001  Biso   1.000  O
  H2101    1.0000 0.60807  0.72651  0.43488  Biso   1.000  H
  O920     1.0000 0.55477  0.80161  0.36001  Biso   1.000  O
  O921     1.0000 0.55483  0.80161  0.36001  Biso   1.000  O
  H2102    1.0000 0.60814  0.72651  0.43488  Biso   1.000  H
  H2103    1.0000 0.71858  0.61356  0.37582  Biso   1.000  H
  H2104    1.0000 0.71858  0.61362  0.37582  Biso   1.000  H
  H2105    1.0000 0.63669  0.13777  0.49880  Biso   1.000  H
  H2106    1.0000 0.63669  0.13782  0.49880  Biso   1.000  H
  O922     1.0000 0.62710  0.15821  0.63051  Biso   1.000  O
  C1389    1.0000 0.47749  0.15578  0.59528  Biso   1.000  C
  H2107    1.0000 0.53729  0.08631  0.67799  Biso   1.000  H
  O923     1.0000 0.62710  0.15815  0.63051  Biso   1.000  O
  H2108    1.0000 0.53729  0.08626  0.67799  Biso   1.000  H
  C1390    1.0000 0.47749  0.15583  0.59528  Biso   1.000  C
  C1391    1.0000 0.32795  0.14137  0.55340  Biso   1.000  C
  H2109    1.0000 0.38846  0.07399  0.63800  Biso   1.000  H
  C1392    1.0000 0.32802  0.14137  0.55340  Biso   1.000  C
  H2110    1.0000 0.38853  0.07399  0.63800  Biso   1.000  H
  C1393    1.0000 0.32802  0.14142  0.55340  Biso   1.000  C
  C1394    1.0000 0.52248  0.84419  0.40472  Biso   1.000  C
  H2111    1.0000 0.68227  0.13317  0.63972  Biso   1.000  H
  H2112    1.0000 0.68233  0.13317  0.63972  Biso   1.000  H
  O924     1.0000 0.44520  0.19841  0.63999  Biso   1.000  O
  H2113    1.0000 0.49461  0.18790  0.54858  Biso   1.000  H
  O925     1.0000 0.44520  0.19836  0.63999  Biso   1.000  O
  H2114    1.0000 0.28498  0.10566  0.55172  Biso   1.000  H
  H2115    1.0000 0.34551  0.16948  0.50660  Biso   1.000  H
  H2116    1.0000 0.30259  0.17357  0.57800  Biso   1.000  H
  H2117    1.0000 0.28498  0.10571  0.55172  Biso   1.000  H
  H2118    1.0000 0.30259  0.17362  0.57800  Biso   1.000  H
  C1395    1.0000 0.44468  0.88847  0.37069  Biso   1.000  C
  C1396    1.0000 0.59276  0.89680  0.40938  Biso   1.000  C
  H2119    1.0000 0.50536  0.81207  0.45142  Biso   1.000  H
  C1397    1.0000 0.59283  0.89680  0.40938  Biso   1.000  C
  H2120    1.0000 0.50543  0.81207  0.45142  Biso   1.000  H
  C1398    1.0000 0.44468  0.88852  0.37069  Biso   1.000  C
  C1399    1.0000 0.44475  0.88847  0.37069  Biso   1.000  C
  C1400    1.0000 0.42617  0.27127  0.60611  Biso   1.000  C
  C1401    1.0000 0.42623  0.27127  0.60611  Biso   1.000  C
  C1402    1.0000 0.41660  0.94696  0.40519  Biso   1.000  C
  O926     1.0000 0.37287  0.84176  0.36949  Biso   1.000  O
  H2121    1.0000 0.46268  0.91366  0.32201  Biso   1.000  H
  C1403    1.0000 0.41659  0.94702  0.40519  Biso   1.000  C
  O927     1.0000 0.37287  0.84182  0.36949  Biso   1.000  O
  H2122    1.0000 0.46268  0.91371  0.32201  Biso   1.000  H
  O928     1.0000 0.37294  0.84182  0.36949  Biso   1.000  O
  H2123    1.0000 0.46274  0.91371  0.32201  Biso   1.000  H
  H2124    1.0000 0.61151  0.92598  0.36200  Biso   1.000  H
  O929     1.0000 0.56140  0.94516  0.44781  Biso   1.000  O
  C1404    1.0000 0.67202  0.85860  0.44660  Biso   1.000  C
  C1405    1.0000 0.67202  0.85855  0.44660  Biso   1.000  C
  O930     1.0000 0.56140  0.94521  0.44781  Biso   1.000  O
  C1406    1.0000 0.37006  0.30387  0.65459  Biso   1.000  C
  O931     1.0000 0.50521  0.31298  0.58271  Biso   1.000  O
  H2125    1.0000 0.39190  0.27346  0.56512  Biso   1.000  H
  C1407    1.0000 0.37013  0.30387  0.65459  Biso   1.000  C
  C1408    1.0000 0.37012  0.30393  0.65459  Biso   1.000  C
  H2126    1.0000 0.39190  0.27352  0.56512  Biso   1.000  H
  C1409    1.0000 0.49209  0.99117  0.41378  Biso   1.000  C
  O932     1.0000 0.37507  0.91168  0.47508  Biso   1.000  O
  H2127    1.0000 0.37317  0.97981  0.37609  Biso   1.000  H
  O933     1.0000 0.37513  0.91168  0.47508  Biso   1.000  O
  C1410    1.0000 0.49209  0.99122  0.41378  Biso   1.000  C
  O934     1.0000 0.37513  0.91173  0.47508  Biso   1.000  O
  H2128    1.0000 0.37324  0.97981  0.37609  Biso   1.000  H
  H2129    1.0000 0.31771  0.86680  0.36028  Biso   1.000  H
  H2130    1.0000 0.71499  0.89431  0.44828  Biso   1.000  H
  H2131    1.0000 0.65446  0.83049  0.49340  Biso   1.000  H
  H2132    1.0000 0.69738  0.82640  0.42200  Biso   1.000  H
  H2133    1.0000 0.71499  0.89426  0.44828  Biso   1.000  H
  H2134    1.0000 0.65453  0.83049  0.49340  Biso   1.000  H
  H2135    1.0000 0.69745  0.82640  0.42200  Biso   1.000  H
  O935     1.0000 0.34098  0.37501  0.61428  Biso   1.000  O
  C1411    1.0000 0.42179  0.30747  0.71542  Biso   1.000  C
  H2136    1.0000 0.31832  0.27266  0.67202  Biso   1.000  H
  O936     1.0000 0.34098  0.37496  0.61428  Biso   1.000  O
  H2137    1.0000 0.31831  0.27272  0.67202  Biso   1.000  H
  O937     1.0000 0.34105  0.37501  0.61428  Biso   1.000  O
  C1412    1.0000 0.55748  0.31410  0.63972  Biso   1.000  C
  C1413    1.0000 0.55748  0.31405  0.63972  Biso   1.000  C
  C1414    1.0000 0.55754  0.31410  0.63972  Biso   1.000  C
  O938     1.0000 0.51606  0.03667  0.34829  Biso   1.000  O
  H2138    1.0000 0.47179  0.02191  0.44310  Biso   1.000  H
  O939     1.0000 0.51613  0.03667  0.34829  Biso   1.000  O
  H2139    1.0000 0.47179  0.02186  0.44310  Biso   1.000  H
  O940     1.0000 0.51613  0.03673  0.34829  Biso   1.000  O
  H2140    1.0000 0.36329  0.86220  0.50120  Biso   1.000  H
  H2141    1.0000 0.28139  0.38641  0.62418  Biso   1.000  H
  O941     1.0000 0.37016  0.33978  0.75961  Biso   1.000  O
  C1415    1.0000 0.50958  0.34906  0.69040  Biso   1.000  C
  H2142    1.0000 0.43640  0.25711  0.74270  Biso   1.000  H
  O942     1.0000 0.37022  0.33978  0.75961  Biso   1.000  O
  H2143    1.0000 0.43640  0.25706  0.74270  Biso   1.000  H
  C1416    1.0000 0.50958  0.34911  0.69040  Biso   1.000  C
  C1417    1.0000 0.50965  0.34911  0.69040  Biso   1.000  C
  C1418    1.0000 0.64041  0.35879  0.60439  Biso   1.000  C
  H2144    1.0000 0.57537  0.26386  0.66490  Biso   1.000  H
  H2145    1.0000 0.57537  0.26392  0.66490  Biso   1.000  H
  H2146    1.0000 0.57544  0.26386  0.66490  Biso   1.000  H
  C1419    1.0000 0.57262  0.09858  0.34598  Biso   1.000  C
  C1420    1.0000 0.57262  0.09863  0.34598  Biso   1.000  C
  H2147    1.0000 0.40461  0.34139  0.79782  Biso   1.000  H
  O943     1.0000 0.56588  0.33960  0.74971  Biso   1.000  O
  H2148    1.0000 0.49811  0.40129  0.66757  Biso   1.000  H
  O944     1.0000 0.56588  0.33955  0.74971  Biso   1.000  O
  H2149    1.0000 0.66898  0.33549  0.57271  Biso   1.000  H
  H2150    1.0000 0.68058  0.36069  0.63962  Biso   1.000  H
  H2151    1.0000 0.62276  0.40771  0.57889  Biso   1.000  H
  H2152    1.0000 0.62283  0.40765  0.57889  Biso   1.000  H
  H2153    1.0000 0.62283  0.40771  0.57889  Biso   1.000  H
  H2154    1.0000 0.68065  0.36069  0.63962  Biso   1.000  H
  C1421    1.0000 0.65659  0.09761  0.29929  Biso   1.000  C
  C1422    1.0000 0.51920  0.16759  0.32128  Biso   1.000  C
  H2155    1.0000 0.59079  0.09358  0.39362  Biso   1.000  H
  C1423    1.0000 0.65659  0.09756  0.29929  Biso   1.000  C
  C1424    1.0000 0.60149  0.40489  0.75777  Biso   1.000  C
  C1425    1.0000 0.70129  0.16971  0.27851  Biso   1.000  C
  O945     1.0000 0.70787  0.03636  0.32819  Biso   1.000  O
  H2156    1.0000 0.63529  0.09127  0.25589  Biso   1.000  H
  C1426    1.0000 0.70129  0.16966  0.27851  Biso   1.000  C
  O946     1.0000 0.70793  0.03636  0.32819  Biso   1.000  O
  O947     1.0000 0.70793  0.03642  0.32819  Biso   1.000  O
  H2157    1.0000 0.63529  0.09132  0.25589  Biso   1.000  H
  O948     1.0000 0.57271  0.23170  0.30730  Biso   1.000  O
  C1427    1.0000 0.44561  0.17441  0.37478  Biso   1.000  C
  H2158    1.0000 0.49159  0.16777  0.27782  Biso   1.000  H
  C1428    1.0000 0.44561  0.17436  0.37478  Biso   1.000  C
  C1429    1.0000 0.67779  0.38431  0.80698  Biso   1.000  C
  O949     1.0000 0.53239  0.44669  0.78018  Biso   1.000  O
  H2159    1.0000 0.62510  0.43450  0.71191  Biso   1.000  H
  C1430    1.0000 0.67779  0.38426  0.80698  Biso   1.000  C
  C1431    1.0000 0.64257  0.23507  0.25678  Biso   1.000  C
  O950     1.0000 0.74226  0.17601  0.33907  Biso   1.000  O
  H2160    1.0000 0.74640  0.17127  0.24139  Biso   1.000  H
  O951     1.0000 0.74232  0.17601  0.33907  Biso   1.000  O
  C1432    1.0000 0.64257  0.23512  0.25678  Biso   1.000  C
  H2161    1.0000 0.74640  0.17133  0.24139  Biso   1.000  H
  C1433    1.0000 0.64264  0.23507  0.25678  Biso   1.000  C
  H2162    1.0000 0.76728  0.05060  0.33028  Biso   1.000  H
  H2163    1.0000 0.76734  0.05060  0.33028  Biso   1.000  H
  H2164    1.0000 0.41338  0.21939  0.35640  Biso   1.000  H
  H2165    1.0000 0.40602  0.13358  0.38352  Biso   1.000  H
  H2166    1.0000 0.47159  0.17429  0.41771  Biso   1.000  H
  C1434    1.0000 0.64142  0.34310  0.87959  Biso   1.000  C
  O952     1.0000 0.72022  0.44696  0.81122  Biso   1.000  O
  H2167    1.0000 0.72007  0.35298  0.79039  Biso   1.000  H
  O953     1.0000 0.72021  0.44701  0.81122  Biso   1.000  O
  H2168    1.0000 0.72007  0.35303  0.79039  Biso   1.000  H
  H2169    1.0000 0.72014  0.35298  0.79039  Biso   1.000  H
  C1435    1.0000 0.49877  0.40919  0.85028  Biso   1.000  C
  C1436    1.0000 0.49883  0.40919  0.85028  Biso   1.000  C
  O954     1.0000 0.60762  0.23377  0.19160  Biso   1.000  O
  H2170    1.0000 0.67687  0.27988  0.24992  Biso   1.000  H
  O955     1.0000 0.60761  0.23382  0.19160  Biso   1.000  O
  H2171    1.0000 0.67693  0.27988  0.24992  Biso   1.000  H
  H2172    1.0000 0.79949  0.17550  0.31793  Biso   1.000  H
  H2173    1.0000 0.79949  0.17545  0.31793  Biso   1.000  H
  C1437    1.0000 0.56848  0.39151  0.90148  Biso   1.000  C
  C1438    1.0000 0.56854  0.39151  0.90148  Biso   1.000  C
  O956     1.0000 0.70809  0.32388  0.93032  Biso   1.000  O
  H2174    1.0000 0.61392  0.29788  0.87729  Biso   1.000  H
  H2175    1.0000 0.72881  0.48109  0.76599  Biso   1.000  H
  C1439    1.0000 0.42620  0.45939  0.86473  Biso   1.000  C
  H2176    1.0000 0.47179  0.36316  0.84960  Biso   1.000  H
  C1440    1.0000 0.42620  0.45940  0.86467  Biso   1.000  C
  H2177    1.0000 0.47179  0.36321  0.84960  Biso   1.000  H
  C1441    1.0000 0.56907  0.30157  0.14951  Biso   1.000  C
  C1442    1.0000 0.56913  0.30157  0.14951  Biso   1.000  C
  O957     1.0000 0.53000  0.34938  0.96958  Biso   1.000  O
  H2178    1.0000 0.59458  0.43679  0.90509  Biso   1.000  H
  H2179    1.0000 0.59465  0.43679  0.90509  Biso   1.000  H
  H2180    1.0000 0.76380  0.34097  0.90839  Biso   1.000  H
  H2181    1.0000 0.76380  0.34102  0.90839  Biso   1.000  H
  H2182    1.0000 0.38348  0.46820  0.82892  Biso   1.000  H
  H2183    1.0000 0.45130  0.50509  0.86478  Biso   1.000  H
  H2184    1.0000 0.39766  0.43650  0.90938  Biso   1.000  H
  H2185    1.0000 0.38348  0.46815  0.82892  Biso   1.000  H
  H2186    1.0000 0.39772  0.43650  0.90938  Biso   1.000  H
  H2187    1.0000 0.38355  0.46820  0.82892  Biso   1.000  H
  C1443    1.0000 0.48336  0.28469  0.12098  Biso   1.000  C
  C1444    1.0000 0.63398  0.33599  0.08868  Biso   1.000  C
  H2188    1.0000 0.55788  0.33521  0.17778  Biso   1.000  H
  C1445    1.0000 0.48343  0.28469  0.12098  Biso   1.000  C
  H2189    1.0000 0.55788  0.33516  0.17778  Biso   1.000  H
  C1446    1.0000 0.63404  0.33599  0.08868  Biso   1.000  C
  H2190    1.0000 0.55794  0.33521  0.17778  Biso   1.000  H
  C1447    1.0000 0.52277  0.39159  0.01550  Biso   1.000  C
  C1448    1.0000 0.52283  0.39159  0.01550  Biso   1.000  C
  C1449    1.0000 0.44697  0.35557  0.07088  Biso   1.000  C
  O958     1.0000 0.41848  0.25240  0.17448  Biso   1.000  O
  H2191    1.0000 0.49668  0.25011  0.09407  Biso   1.000  H
  C1450    1.0000 0.44703  0.35557  0.07088  Biso   1.000  C
  H2192    1.0000 0.49669  0.25006  0.09407  Biso   1.000  H
  C1451    1.0000 0.44703  0.35562  0.07088  Biso   1.000  C
  O959     1.0000 0.41854  0.25240  0.17448  Biso   1.000  O
  O960     1.0000 0.59528  0.40386  0.04570  Biso   1.000  O
  C1452    1.0000 0.72060  0.35560  0.11130  Biso   1.000  C
  H2193    1.0000 0.64417  0.30218  0.06062  Biso   1.000  H
  O961     1.0000 0.59528  0.40391  0.04570  Biso   1.000  O
  O962     1.0000 0.59534  0.40391  0.04570  Biso   1.000  O
  H2194    1.0000 0.64424  0.30218  0.06062  Biso   1.000  H
  H2195    1.0000 0.50046  0.43988  0.98848  Biso   1.000  H
  H2196    1.0000 0.50053  0.43988  0.98848  Biso   1.000  H
  H2197    1.0000 0.50052  0.43993  0.98848  Biso   1.000  H
  O963     1.0000 0.42201  0.40521  0.10889  Biso   1.000  O
  H2198    1.0000 0.39600  0.34467  0.04722  Biso   1.000  H
  O964     1.0000 0.42201  0.40516  0.10889  Biso   1.000  O
  H2199    1.0000 0.39752  0.28076  0.20370  Biso   1.000  H
  H2200    1.0000 0.39751  0.28081  0.20370  Biso   1.000  H
  H2201    1.0000 0.75827  0.37688  0.07078  Biso   1.000  H
  H2202    1.0000 0.74829  0.31216  0.14040  Biso   1.000  H
  H2203    1.0000 0.71091  0.39026  0.13711  Biso   1.000  H
  H2204    1.0000 0.74829  0.31222  0.14040  Biso   1.000  H
  H2205    1.0000 0.71091  0.39031  0.13711  Biso   1.000  H
  H2206    1.0000 0.75834  0.37688  0.07078  Biso   1.000  H
  H2207    1.0000 0.39896  0.44908  0.07821  Biso   1.000  H
  H2208    1.0000 0.39903  0.44908  0.07821  Biso   1.000  H
