data_image0
_cell_length_a       25.629
_cell_length_b       25.629
_cell_length_c       11.185
_cell_angle_alpha    90
_cell_angle_beta     90
_cell_angle_gamma    120

_symmetry_space_group_name_H-M    "P 1"
_symmetry_int_tables_number       1

loop_
  _symmetry_equiv_pos_as_xyz
  'x, y, z'

loop_
  _atom_site_label
  _atom_site_occupancy
  _atom_site_fract_x
  _atom_site_fract_y
  _atom_site_fract_z
  _atom_site_thermal_displace_type
  _atom_site_B_iso_or_equiv
  _atom_site_type_symbol
  C1       1.0000 0.81417  0.88496  0.56156  Biso   1.000  C
  C2       1.0000 0.81065  0.93614  0.53196  Biso   1.000  C
  C3       1.0000 0.81063  0.93619  0.53196  Biso   1.000  C
  H1       1.0000 0.80504  0.85446  0.50380  Biso   1.000  H
  C4       1.0000 0.83106  0.87964  0.67564  Biso   1.000  C
  C5       1.0000 0.83104  0.87969  0.67564  Biso   1.000  C
  C6       1.0000 0.78613  0.94024  0.41144  Biso   1.000  C
  C7       1.0000 0.78615  0.94029  0.41144  Biso   1.000  C
  C8       1.0000 0.78609  0.94024  0.41144  Biso   1.000  C
  C9       1.0000 0.82744  0.98196  0.61332  Biso   1.000  C
  C10      1.0000 0.81413  0.88496  0.56156  Biso   1.000  C
  C11      1.0000 0.84817  0.92596  0.75771  Biso   1.000  C
  C12      1.0000 0.82845  0.82143  0.71113  Biso   1.000  C
  C13      1.0000 0.84813  0.92596  0.75771  Biso   1.000  C
  C14      1.0000 0.82843  0.82148  0.71113  Biso   1.000  C
  N1       1.0000 0.76994  0.90185  0.33420  Biso   1.000  N
  N2       1.0000 0.76990  0.90185  0.33420  Biso   1.000  N
  H2       1.0000 0.78325  0.97507  0.39508  Biso   1.000  H
  H3       1.0000 0.78321  0.97507  0.39508  Biso   1.000  H
  C15      1.0000 0.84625  0.97714  0.72767  Biso   1.000  C
  C16      1.0000 0.84623  0.97719  0.72767  Biso   1.000  C
  H4       1.0000 0.82630  0.01715  0.59142  Biso   1.000  H
  H5       1.0000 0.86136  0.92244  0.83514  Biso   1.000  H
  H6       1.0000 0.86132  0.92244  0.83514  Biso   1.000  H
  N3       1.0000 0.83394  0.81206  0.82003  Biso   1.000  N
  H7       1.0000 0.82263  0.79224  0.65239  Biso   1.000  H
  H8       1.0000 0.82265  0.79228  0.65239  Biso   1.000  H
  C17      1.0000 0.74325  0.91114  0.22611  Biso   1.000  C
  C18      1.0000 0.74323  0.91118  0.22611  Biso   1.000  C
  C19      1.0000 0.86393  0.02607  0.81663  Biso   1.000  C
  C20      1.0000 0.86389  0.02607  0.81663  Biso   1.000  C
  C21      1.0000 0.82625  0.75313  0.85042  Biso   1.000  C
  C22      1.0000 0.82623  0.75318  0.85042  Biso   1.000  C
  C23      1.0000 0.82621  0.75313  0.85042  Biso   1.000  C
  C24      1.0000 0.67532  0.86955  0.22682  Biso   1.000  C
  C25      1.0000 0.77166  0.90397  0.11310  Biso   1.000  C
  H9       1.0000 0.75114  0.95353  0.22789  Biso   1.000  H
  C26      1.0000 0.67536  0.86955  0.22682  Biso   1.000  C
  C27      1.0000 0.77162  0.90397  0.11310  Biso   1.000  C
  H10      1.0000 0.75113  0.95358  0.22789  Biso   1.000  H
  N4       1.0000 0.85535  0.06955  0.80125  Biso   1.000  N
  H11      1.0000 0.88261  0.02427  0.88851  Biso   1.000  H
  N5       1.0000 0.85527  0.06955  0.80125  Biso   1.000  N
  C28      1.0000 0.88702  0.76214  0.89531  Biso   1.000  C
  H12      1.0000 0.81356  0.72704  0.77765  Biso   1.000  H
  C29      1.0000 0.77874  0.72475  0.94385  Biso   1.000  C
  C30      1.0000 0.88704  0.76219  0.89531  Biso   1.000  C
  H13      1.0000 0.81354  0.72709  0.77765  Biso   1.000  H
  C31      1.0000 0.88698  0.76214  0.89531  Biso   1.000  C
  H14      1.0000 0.65833  0.87653  0.30058  Biso   1.000  H
  H15      1.0000 0.66626  0.82715  0.22763  Biso   1.000  H
  C32      1.0000 0.64576  0.87964  0.11846  Biso   1.000  C
  H16      1.0000 0.65835  0.87658  0.30058  Biso   1.000  H
  H17      1.0000 0.66622  0.82715  0.22763  Biso   1.000  H
  C33      1.0000 0.64574  0.87969  0.11846  Biso   1.000  C
  C34      1.0000 0.64572  0.87964  0.11846  Biso   1.000  C
  N6       1.0000 0.83555  0.94605  0.10845  Biso   1.000  N
  H18      1.0000 0.76485  0.86194  0.10988  Biso   1.000  H
  C35      1.0000 0.74173  0.91434  0.00376  Biso   1.000  C
  H19      1.0000 0.76483  0.86198  0.10988  Biso   1.000  H
  C36      1.0000 0.74175  0.91438  0.00376  Biso   1.000  C
  C37      1.0000 0.87509  0.11294  0.89531  Biso   1.000  C
  C38      1.0000 0.87511  0.11298  0.89531  Biso   1.000  C
  N7       1.0000 0.93043  0.78575  0.80125  Biso   1.000  N
  H20      1.0000 0.90144  0.79066  0.96451  Biso   1.000  H
  C39      1.0000 0.87793  0.69925  0.93581  Biso   1.000  C
  N8       1.0000 0.93039  0.78575  0.80125  Biso   1.000  N
  C40      1.0000 0.87789  0.69925  0.93581  Biso   1.000  C
  H21      1.0000 0.74054  0.71983  0.91185  Biso   1.000  H
  C41      1.0000 0.76824  0.66356  0.98543  Biso   1.000  C
  H22      1.0000 0.74052  0.71988  0.91185  Biso   1.000  H
  H23      1.0000 0.79036  0.75205  0.01359  Biso   1.000  H
  H24      1.0000 0.79032  0.75205  0.01359  Biso   1.000  H
  H25      1.0000 0.60194  0.85045  0.11962  Biso   1.000  H
  H26      1.0000 0.65132  0.92073  0.12168  Biso   1.000  H
  C42      1.0000 0.67304  0.87216  0.00367  Biso   1.000  C
  H27      1.0000 0.65134  0.92078  0.12168  Biso   1.000  H
  C43      1.0000 0.87135  0.92573  0.09656  Biso   1.000  C
  C44      1.0000 0.87133  0.92578  0.09656  Biso   1.000  C
  H28      1.0000 0.75082  0.95664  0.00349  Biso   1.000  H
  H29      1.0000 0.75085  0.95669  0.00349  Biso   1.000  H
  H30      1.0000 0.75079  0.95664  0.00349  Biso   1.000  H
  H31      1.0000 0.75893  0.90753  0.93000  Biso   1.000  H
  H32      1.0000 0.75895  0.90758  0.93000  Biso   1.000  H
  H33      1.0000 0.88925  0.09856  0.96451  Biso   1.000  H
  C45      1.0000 0.92696  0.17376  0.85042  Biso   1.000  C
  C46      1.0000 0.82131  0.12204  0.93581  Biso   1.000  C
  C47      1.0000 0.92688  0.17376  0.85042  Biso   1.000  C
  C48      1.0000 0.82129  0.12208  0.93581  Biso   1.000  C
  C49      1.0000 0.97395  0.83783  0.81663  Biso   1.000  C
  C50      1.0000 0.97394  0.83788  0.81663  Biso   1.000  C
  H34      1.0000 0.86744  0.67226  0.86571  Biso   1.000  H
  H35      1.0000 0.91595  0.70474  0.97032  Biso   1.000  H
  H36      1.0000 0.91593  0.70479  0.97032  Biso   1.000  H
  H37      1.0000 0.86740  0.67226  0.86571  Biso   1.000  H
  C51      1.0000 0.82833  0.67113  0.02772  Biso   1.000  C
  C52      1.0000 0.82835  0.67118  0.02772  Biso   1.000  C
  H38      1.0000 0.75205  0.63423  0.91873  Biso   1.000  H
  H39      1.0000 0.75204  0.63428  0.91873  Biso   1.000  H
  H40      1.0000 0.73865  0.64824  0.05168  Biso   1.000  H
  H41      1.0000 0.73864  0.64829  0.05168  Biso   1.000  H
  H42      1.0000 0.73861  0.64824  0.05168  Biso   1.000  H
  H43      1.0000 0.65513  0.88154  0.93420  Biso   1.000  H
  H44      1.0000 0.66363  0.82986  0.99616  Biso   1.000  H
  H45      1.0000 0.65516  0.88158  0.93420  Biso   1.000  H
  H46      1.0000 0.66359  0.82986  0.99616  Biso   1.000  H
  C53      1.0000 0.93616  0.96367  0.09227  Biso   1.000  C
  H47      1.0000 0.85464  0.88334  0.08994  Biso   1.000  H
  C54      1.0000 0.93612  0.96367  0.09227  Biso   1.000  C
  H48      1.0000 0.85462  0.88338  0.08994  Biso   1.000  H
  H49      1.0000 0.85460  0.88334  0.08994  Biso   1.000  H
  N9       1.0000 0.97817  0.16605  0.82003  Biso   1.000  N
  H50      1.0000 0.91353  0.18646  0.77765  Biso   1.000  H
  C55      1.0000 0.94599  0.22125  0.94385  Biso   1.000  C
  N10      1.0000 0.97813  0.16605  0.82003  Biso   1.000  N
  H51      1.0000 0.80482  0.13253  0.86571  Biso   1.000  H
  H52      1.0000 0.78882  0.08406  0.97032  Biso   1.000  H
  H53      1.0000 0.80485  0.13258  0.86571  Biso   1.000  H
  H54      1.0000 0.78878  0.08406  0.97032  Biso   1.000  H
  C56      1.0000 0.84283  0.17164  0.02772  Biso   1.000  C
  C57      1.0000 0.84286  0.17169  0.02772  Biso   1.000  C
  H55      1.0000 0.97573  0.85833  0.88851  Biso   1.000  H
  H56      1.0000 0.97576  0.85838  0.88851  Biso   1.000  H
  C58      1.0000 0.02285  0.86906  0.72767  Biso   1.000  C
  H57      1.0000 0.84123  0.69663  0.10058  Biso   1.000  H
  H58      1.0000 0.82235  0.63117  0.04998  Biso   1.000  H
  H59      1.0000 0.84126  0.69668  0.10058  Biso   1.000  H
  H60      1.0000 0.82231  0.63117  0.04998  Biso   1.000  H
  C59      1.0000 0.97265  0.93754  0.09245  Biso   1.000  C
  C60      1.0000 0.97263  0.93758  0.09245  Biso   1.000  C
  C61      1.0000 0.97261  0.93754  0.09245  Biso   1.000  C
  C62      1.0000 0.96495  0.02733  0.09245  Biso   1.000  C
  C63      1.0000 0.96493  0.02738  0.09245  Biso   1.000  C
  C64      1.0000 0.99305  0.17155  0.71113  Biso   1.000  C
  C65      1.0000 0.99301  0.17155  0.71113  Biso   1.000  C
  H61      1.0000 0.97933  0.25945  0.91185  Biso   1.000  H
  C66      1.0000 0.89532  0.23174  0.98543  Biso   1.000  C
  C67      1.0000 0.89534  0.23179  0.98543  Biso   1.000  C
  H62      1.0000 0.96169  0.20967  0.01359  Biso   1.000  H
  H63      1.0000 0.85539  0.15876  0.10058  Biso   1.000  H
  H64      1.0000 0.80880  0.17763  0.04998  Biso   1.000  H
  H65      1.0000 0.80882  0.17768  0.04998  Biso   1.000  H
  C68      1.0000 0.07404  0.92213  0.75771  Biso   1.000  C
  C69      1.0000 0.01803  0.84545  0.61332  Biso   1.000  C
  C70      1.0000 0.07403  0.92217  0.75771  Biso   1.000  C
  H66      1.0000 0.95417  0.89487  0.09262  Biso   1.000  H
  H67      1.0000 0.95413  0.89487  0.09262  Biso   1.000  H
  C71      1.0000 0.03635  0.97246  0.09227  Biso   1.000  C
  H68      1.0000 0.94069  0.04585  0.09262  Biso   1.000  H
  C72      1.0000 0.02751  0.06387  0.09227  Biso   1.000  C
  H69      1.0000 0.96966  0.17736  0.65239  Biso   1.000  H
  H70      1.0000 0.96958  0.17736  0.65239  Biso   1.000  H
  C73      1.0000 0.04863  0.16894  0.67564  Biso   1.000  C
  C74      1.0000 0.04865  0.16898  0.67564  Biso   1.000  C
  H71      1.0000 0.88224  0.24796  0.91873  Biso   1.000  H
  H72      1.0000 0.90961  0.26134  0.05168  Biso   1.000  H
  C75      1.0000 0.12035  0.95137  0.67564  Biso   1.000  C
  H73      1.0000 0.07752  0.93884  0.83514  Biso   1.000  H
  C76      1.0000 0.06386  0.87446  0.53196  Biso   1.000  C
  C77      1.0000 0.06383  0.87446  0.53196  Biso   1.000  C
  H74      1.0000 0.98282  0.80913  0.59142  Biso   1.000  H
  H75      1.0000 0.98284  0.80918  0.59142  Biso   1.000  H
  C78      1.0000 0.07425  0.94556  0.09656  Biso   1.000  C
  C79      1.0000 0.06245  0.03504  0.09245  Biso   1.000  C
  C80      1.0000 0.06239  0.03508  0.09245  Biso   1.000  C
  C81      1.0000 0.05440  0.12866  0.09656  Biso   1.000  C
  C82      1.0000 0.07081  0.18583  0.56156  Biso   1.000  C
  C83      1.0000 0.07786  0.15186  0.75771  Biso   1.000  C
  C84      1.0000 0.07084  0.18588  0.56156  Biso   1.000  C
  C85      1.0000 0.07782  0.15186  0.75771  Biso   1.000  C
  C86      1.0000 0.11505  0.92916  0.56156  Biso   1.000  C
  C87      1.0000 0.11501  0.92916  0.56156  Biso   1.000  C
  C88      1.0000 0.17850  0.00697  0.71113  Biso   1.000  C
  C89      1.0000 0.05974  0.84585  0.41144  Biso   1.000  C
  N11      1.0000 0.05396  0.88946  0.10845  Biso   1.000  N
  H76      1.0000 0.11662  0.97124  0.08994  Biso   1.000  H
  N12      1.0000 0.05393  0.88946  0.10845  Biso   1.000  N
  H77      1.0000 0.11665  0.97128  0.08994  Biso   1.000  H
  H78      1.0000 0.10510  0.05923  0.09262  Biso   1.000  H
  H79      1.0000 0.10508  0.05928  0.09262  Biso   1.000  H
  N13      1.0000 0.11052  0.16443  0.10845  Biso   1.000  N
  H80      1.0000 0.02871  0.14533  0.08994  Biso   1.000  H
  N14      1.0000 0.11055  0.16448  0.10845  Biso   1.000  N
  H81      1.0000 0.02873  0.14537  0.08994  Biso   1.000  H
  C90      1.0000 0.12552  0.18935  0.53196  Biso   1.000  C
  C91      1.0000 0.12548  0.18935  0.53196  Biso   1.000  C
  H82      1.0000 0.04946  0.19493  0.50380  Biso   1.000  H
  H83      1.0000 0.04940  0.19498  0.50380  Biso   1.000  H
  H84      1.0000 0.06112  0.13866  0.83514  Biso   1.000  H
  C92      1.0000 0.13094  0.15375  0.72767  Biso   1.000  C
  H85      1.0000 0.14554  0.95056  0.50380  Biso   1.000  H
  N15      1.0000 0.18792  0.02183  0.82003  Biso   1.000  N
  H86      1.0000 0.20775  0.03035  0.65239  Biso   1.000  H
  N16      1.0000 0.18795  0.02188  0.82003  Biso   1.000  N
  H87      1.0000 0.20767  0.03035  0.65239  Biso   1.000  H
  N17      1.0000 0.09816  0.86806  0.33420  Biso   1.000  N
  N18      1.0000 0.09812  0.86806  0.33420  Biso   1.000  N
  H88      1.0000 0.02493  0.80814  0.39508  Biso   1.000  H
  H89      1.0000 0.02495  0.80819  0.39508  Biso   1.000  H
  C93      1.0000 0.09605  0.86766  0.11310  Biso   1.000  C
  C94      1.0000 0.13235  0.22836  0.11310  Biso   1.000  C
  C95      1.0000 0.15412  0.21386  0.41144  Biso   1.000  C
  C96      1.0000 0.15449  0.17254  0.61332  Biso   1.000  C
  C97      1.0000 0.15452  0.17259  0.61332  Biso   1.000  C
  C98      1.0000 0.16212  0.13605  0.81663  Biso   1.000  C
  C99      1.0000 0.24682  0.07306  0.85042  Biso   1.000  C
  C100     1.0000 0.24678  0.07306  0.85042  Biso   1.000  C
  C101     1.0000 0.08886  0.83207  0.22611  Biso   1.000  C
  C102     1.0000 0.08883  0.83207  0.22611  Biso   1.000  C
  H90      1.0000 0.13803  0.90285  0.10988  Biso   1.000  H
  C103     1.0000 0.08564  0.82733  0.00376  Biso   1.000  C
  C104     1.0000 0.08562  0.82738  0.00376  Biso   1.000  C
  H91      1.0000 0.09712  0.23517  0.10988  Biso   1.000  H
  C105     1.0000 0.16796  0.25675  0.22611  Biso   1.000  C
  C106     1.0000 0.17264  0.25824  0.00376  Biso   1.000  C
  C107     1.0000 0.16792  0.25675  0.22611  Biso   1.000  C
  C108     1.0000 0.17259  0.25828  0.00376  Biso   1.000  C
  N19      1.0000 0.13193  0.23003  0.33420  Biso   1.000  N
  N20      1.0000 0.13195  0.23008  0.33420  Biso   1.000  N
  H92      1.0000 0.19185  0.21674  0.39508  Biso   1.000  H
  H93      1.0000 0.19183  0.21679  0.39508  Biso   1.000  H
  H94      1.0000 0.19080  0.17367  0.59142  Biso   1.000  H
  N21      1.0000 0.21422  0.14465  0.80125  Biso   1.000  N
  H95      1.0000 0.14165  0.11735  0.88851  Biso   1.000  H
  H96      1.0000 0.14161  0.11735  0.88851  Biso   1.000  H
  C109     1.0000 0.23778  0.12483  0.89531  Biso   1.000  C
  C110     1.0000 0.23780  0.12487  0.89531  Biso   1.000  C
  H97      1.0000 0.27290  0.08644  0.77765  Biso   1.000  H
  C111     1.0000 0.27523  0.05396  0.94385  Biso   1.000  C
  H98      1.0000 0.27293  0.08649  0.77765  Biso   1.000  H
  H99      1.0000 0.04644  0.79755  0.22789  Biso   1.000  H
  C112     1.0000 0.13045  0.80575  0.22682  Biso   1.000  C
  C113     1.0000 0.13041  0.80575  0.22682  Biso   1.000  C
  H100     1.0000 0.09246  0.85135  0.93000  Biso   1.000  H
  H101     1.0000 0.09242  0.85135  0.93000  Biso   1.000  H
  C114     1.0000 0.12784  0.80084  0.00367  Biso   1.000  C
  H102     1.0000 0.04332  0.79413  0.00349  Biso   1.000  H
  C115     1.0000 0.12786  0.80089  0.00367  Biso   1.000  C
  H103     1.0000 0.04335  0.79417  0.00349  Biso   1.000  H
  H104     1.0000 0.20241  0.24886  0.22789  Biso   1.000  H
  C116     1.0000 0.19426  0.32465  0.22682  Biso   1.000  C
  C117     1.0000 0.19422  0.32465  0.22682  Biso   1.000  C
  H105     1.0000 0.14861  0.24107  0.93000  Biso   1.000  H
  C118     1.0000 0.19915  0.32694  0.00367  Biso   1.000  C
  H106     1.0000 0.20578  0.24913  0.00349  Biso   1.000  H
  C119     1.0000 0.19910  0.32699  0.00367  Biso   1.000  C
  H107     1.0000 0.20581  0.24918  0.00349  Biso   1.000  H
  H108     1.0000 0.20937  0.11077  0.96451  Biso   1.000  H
  C120     1.0000 0.30076  0.17867  0.93581  Biso   1.000  C
  H109     1.0000 0.20929  0.11077  0.96451  Biso   1.000  H
  C121     1.0000 0.30072  0.17867  0.93581  Biso   1.000  C
  H110     1.0000 0.28016  0.02066  0.91185  Biso   1.000  H
  C122     1.0000 0.33643  0.10465  0.98543  Biso   1.000  C
  H111     1.0000 0.28012  0.02066  0.91185  Biso   1.000  H
  H112     1.0000 0.24790  0.03823  0.01359  Biso   1.000  H
  H113     1.0000 0.24788  0.03828  0.01359  Biso   1.000  H
  H114     1.0000 0.12344  0.78174  0.30058  Biso   1.000  H
  H115     1.0000 0.17285  0.83905  0.22763  Biso   1.000  H
  C123     1.0000 0.12036  0.76606  0.11846  Biso   1.000  C
  H116     1.0000 0.12346  0.78178  0.30058  Biso   1.000  H
  H117     1.0000 0.17281  0.83905  0.22763  Biso   1.000  H
  C124     1.0000 0.12032  0.76606  0.11846  Biso   1.000  C
  H118     1.0000 0.12340  0.78174  0.30058  Biso   1.000  H
  H119     1.0000 0.11844  0.77354  0.93420  Biso   1.000  H
  H120     1.0000 0.17015  0.83373  0.99616  Biso   1.000  H
  H121     1.0000 0.11842  0.77358  0.93420  Biso   1.000  H
  H122     1.0000 0.17014  0.83378  0.99616  Biso   1.000  H
  H123     1.0000 0.21824  0.34163  0.30058  Biso   1.000  H
  H124     1.0000 0.16092  0.33375  0.22763  Biso   1.000  H
  C125     1.0000 0.23395  0.35425  0.11846  Biso   1.000  C
  H125     1.0000 0.21819  0.34168  0.30058  Biso   1.000  H
  C126     1.0000 0.23391  0.35425  0.11846  Biso   1.000  C
  H126     1.0000 0.22640  0.34483  0.93420  Biso   1.000  H
  H127     1.0000 0.16621  0.33636  0.99616  Biso   1.000  H
  H128     1.0000 0.22638  0.34488  0.93420  Biso   1.000  H
  H129     1.0000 0.32773  0.19516  0.86571  Biso   1.000  H
  H130     1.0000 0.29523  0.21115  0.97032  Biso   1.000  H
  H131     1.0000 0.32769  0.19516  0.86571  Biso   1.000  H
  H132     1.0000 0.29519  0.21115  0.97032  Biso   1.000  H
  C127     1.0000 0.32885  0.15713  0.02772  Biso   1.000  C
  C128     1.0000 0.32879  0.15718  0.02772  Biso   1.000  C
  H133     1.0000 0.36570  0.11776  0.91873  Biso   1.000  H
  H134     1.0000 0.35177  0.09036  0.05168  Biso   1.000  H
  H135     1.0000 0.35173  0.09036  0.05168  Biso   1.000  H
  H136     1.0000 0.14954  0.75146  0.11962  Biso   1.000  H
  H137     1.0000 0.07924  0.73056  0.12168  Biso   1.000  H
  H138     1.0000 0.24855  0.39804  0.11962  Biso   1.000  H
  H139     1.0000 0.26944  0.34866  0.12168  Biso   1.000  H
  H140     1.0000 0.24850  0.39808  0.11962  Biso   1.000  H
  H141     1.0000 0.30333  0.14456  0.10058  Biso   1.000  H
  H142     1.0000 0.36880  0.19115  0.04998  Biso   1.000  H
  H143     1.0000 0.30329  0.14456  0.10058  Biso   1.000  H
  C129     1.0000 0.81417  0.88496  0.56156  Biso   1.000  C
  C130     1.0000 0.81065  0.93614  0.53196  Biso   1.000  C
  C131     1.0000 0.81063  0.93619  0.53196  Biso   1.000  C
  H144     1.0000 0.80504  0.85446  0.50380  Biso   1.000  H
  C132     1.0000 0.83106  0.87964  0.67564  Biso   1.000  C
  C133     1.0000 0.83104  0.87969  0.67564  Biso   1.000  C
  C134     1.0000 0.78615  0.94029  0.41144  Biso   1.000  C
  C135     1.0000 0.78613  0.94024  0.41144  Biso   1.000  C
  C136     1.0000 0.78609  0.94024  0.41144  Biso   1.000  C
  C137     1.0000 0.82744  0.98196  0.61332  Biso   1.000  C
  C138     1.0000 0.81413  0.88496  0.56156  Biso   1.000  C
  C139     1.0000 0.84813  0.92596  0.75771  Biso   1.000  C
  C140     1.0000 0.84817  0.92596  0.75771  Biso   1.000  C
  C141     1.0000 0.82845  0.82143  0.71113  Biso   1.000  C
  C142     1.0000 0.82843  0.82148  0.71113  Biso   1.000  C
  N22      1.0000 0.76994  0.90185  0.33420  Biso   1.000  N
  N23      1.0000 0.76990  0.90185  0.33420  Biso   1.000  N
  H145     1.0000 0.78325  0.97507  0.39508  Biso   1.000  H
  H146     1.0000 0.78321  0.97507  0.39508  Biso   1.000  H
  C143     1.0000 0.84625  0.97714  0.72767  Biso   1.000  C
  C144     1.0000 0.84623  0.97719  0.72767  Biso   1.000  C
  H147     1.0000 0.82630  0.01715  0.59142  Biso   1.000  H
  H148     1.0000 0.86132  0.92244  0.83514  Biso   1.000  H
  H149     1.0000 0.86136  0.92244  0.83514  Biso   1.000  H
  N24      1.0000 0.83394  0.81206  0.82003  Biso   1.000  N
  H150     1.0000 0.82263  0.79224  0.65239  Biso   1.000  H
  H151     1.0000 0.82265  0.79228  0.65239  Biso   1.000  H
  C145     1.0000 0.74325  0.91114  0.22611  Biso   1.000  C
  C146     1.0000 0.74323  0.91118  0.22611  Biso   1.000  C
  C147     1.0000 0.86393  0.02607  0.81663  Biso   1.000  C
  C148     1.0000 0.86389  0.02607  0.81663  Biso   1.000  C
  C149     1.0000 0.82623  0.75318  0.85042  Biso   1.000  C
  C150     1.0000 0.82625  0.75313  0.85042  Biso   1.000  C
  C151     1.0000 0.82621  0.75313  0.85042  Biso   1.000  C
  C152     1.0000 0.67532  0.86955  0.22682  Biso   1.000  C
  C153     1.0000 0.77166  0.90397  0.11310  Biso   1.000  C
  H152     1.0000 0.75114  0.95353  0.22789  Biso   1.000  H
  C154     1.0000 0.67536  0.86955  0.22682  Biso   1.000  C
  C155     1.0000 0.77162  0.90397  0.11310  Biso   1.000  C
  H153     1.0000 0.75113  0.95358  0.22789  Biso   1.000  H
  N25      1.0000 0.85535  0.06955  0.80125  Biso   1.000  N
  H154     1.0000 0.88261  0.02427  0.88851  Biso   1.000  H
  N26      1.0000 0.85527  0.06955  0.80125  Biso   1.000  N
  C156     1.0000 0.77874  0.72475  0.94385  Biso   1.000  C
  H155     1.0000 0.81356  0.72704  0.77765  Biso   1.000  H
  C157     1.0000 0.88704  0.76219  0.89531  Biso   1.000  C
  H156     1.0000 0.81354  0.72709  0.77765  Biso   1.000  H
  C158     1.0000 0.88702  0.76214  0.89531  Biso   1.000  C
  C159     1.0000 0.88698  0.76214  0.89531  Biso   1.000  C
  H157     1.0000 0.65833  0.87653  0.30058  Biso   1.000  H
  H158     1.0000 0.66626  0.82715  0.22763  Biso   1.000  H
  H159     1.0000 0.65835  0.87658  0.30058  Biso   1.000  H
  H160     1.0000 0.66622  0.82715  0.22763  Biso   1.000  H
  C160     1.0000 0.64574  0.87969  0.11846  Biso   1.000  C
  C161     1.0000 0.64576  0.87964  0.11846  Biso   1.000  C
  C162     1.0000 0.64572  0.87964  0.11846  Biso   1.000  C
  N27      1.0000 0.83555  0.94605  0.10845  Biso   1.000  N
  H161     1.0000 0.76485  0.86194  0.10988  Biso   1.000  H
  C163     1.0000 0.74173  0.91434  0.00376  Biso   1.000  C
  H162     1.0000 0.76483  0.86198  0.10988  Biso   1.000  H
  C164     1.0000 0.74175  0.91438  0.00376  Biso   1.000  C
  C165     1.0000 0.87509  0.11294  0.89531  Biso   1.000  C
  C166     1.0000 0.87511  0.11298  0.89531  Biso   1.000  C
  C167     1.0000 0.76824  0.66356  0.98543  Biso   1.000  C
  H163     1.0000 0.74054  0.71983  0.91185  Biso   1.000  H
  H164     1.0000 0.74052  0.71988  0.91185  Biso   1.000  H
  H165     1.0000 0.79036  0.75205  0.01359  Biso   1.000  H
  H166     1.0000 0.79032  0.75205  0.01359  Biso   1.000  H
  N28      1.0000 0.93043  0.78575  0.80125  Biso   1.000  N
  H167     1.0000 0.90144  0.79066  0.96451  Biso   1.000  H
  C168     1.0000 0.87793  0.69925  0.93581  Biso   1.000  C
  N29      1.0000 0.93039  0.78575  0.80125  Biso   1.000  N
  C169     1.0000 0.87789  0.69925  0.93581  Biso   1.000  C
  H168     1.0000 0.60194  0.85045  0.11962  Biso   1.000  H
  C170     1.0000 0.67304  0.87216  0.00367  Biso   1.000  C
  H169     1.0000 0.65132  0.92073  0.12168  Biso   1.000  H
  H170     1.0000 0.65134  0.92078  0.12168  Biso   1.000  H
  C171     1.0000 0.87135  0.92573  0.09656  Biso   1.000  C
  C172     1.0000 0.87133  0.92578  0.09656  Biso   1.000  C
  H171     1.0000 0.75085  0.95669  0.00349  Biso   1.000  H
  H172     1.0000 0.75893  0.90753  0.93000  Biso   1.000  H
  H173     1.0000 0.75895  0.90758  0.93000  Biso   1.000  H
  H174     1.0000 0.75082  0.95664  0.00349  Biso   1.000  H
  H175     1.0000 0.75079  0.95664  0.00349  Biso   1.000  H
  H176     1.0000 0.88925  0.09856  0.96451  Biso   1.000  H
  C173     1.0000 0.92696  0.17376  0.85042  Biso   1.000  C
  C174     1.0000 0.82131  0.12204  0.93581  Biso   1.000  C
  C175     1.0000 0.92688  0.17376  0.85042  Biso   1.000  C
  C176     1.0000 0.82129  0.12208  0.93581  Biso   1.000  C
  H177     1.0000 0.75205  0.63423  0.91873  Biso   1.000  H
  H178     1.0000 0.75204  0.63428  0.91873  Biso   1.000  H
  H179     1.0000 0.73865  0.64824  0.05168  Biso   1.000  H
  C177     1.0000 0.82833  0.67113  0.02772  Biso   1.000  C
  H180     1.0000 0.73864  0.64829  0.05168  Biso   1.000  H
  C178     1.0000 0.82835  0.67118  0.02772  Biso   1.000  C
  H181     1.0000 0.73861  0.64824  0.05168  Biso   1.000  H
  C179     1.0000 0.97395  0.83783  0.81663  Biso   1.000  C
  C180     1.0000 0.97394  0.83788  0.81663  Biso   1.000  C
  H182     1.0000 0.86744  0.67226  0.86571  Biso   1.000  H
  H183     1.0000 0.91595  0.70474  0.97032  Biso   1.000  H
  H184     1.0000 0.91593  0.70479  0.97032  Biso   1.000  H
  H185     1.0000 0.86740  0.67226  0.86571  Biso   1.000  H
  H186     1.0000 0.65513  0.88154  0.93420  Biso   1.000  H
  H187     1.0000 0.66363  0.82986  0.99616  Biso   1.000  H
  H188     1.0000 0.65516  0.88158  0.93420  Biso   1.000  H
  H189     1.0000 0.66359  0.82986  0.99616  Biso   1.000  H
  C181     1.0000 0.93616  0.96367  0.09227  Biso   1.000  C
  C182     1.0000 0.93612  0.96367  0.09227  Biso   1.000  C
  H190     1.0000 0.85462  0.88338  0.08994  Biso   1.000  H
  H191     1.0000 0.85464  0.88334  0.08994  Biso   1.000  H
  H192     1.0000 0.85460  0.88334  0.08994  Biso   1.000  H
  N30      1.0000 0.97817  0.16605  0.82003  Biso   1.000  N
  H193     1.0000 0.91353  0.18646  0.77765  Biso   1.000  H
  C183     1.0000 0.94599  0.22125  0.94385  Biso   1.000  C
  N31      1.0000 0.97813  0.16605  0.82003  Biso   1.000  N
  H194     1.0000 0.80482  0.13253  0.86571  Biso   1.000  H
  H195     1.0000 0.78882  0.08406  0.97032  Biso   1.000  H
  H196     1.0000 0.80485  0.13258  0.86571  Biso   1.000  H
  H197     1.0000 0.78878  0.08406  0.97032  Biso   1.000  H
  C184     1.0000 0.84283  0.17164  0.02772  Biso   1.000  C
  C185     1.0000 0.84286  0.17169  0.02772  Biso   1.000  C
  H198     1.0000 0.84123  0.69663  0.10058  Biso   1.000  H
  H199     1.0000 0.82235  0.63117  0.04998  Biso   1.000  H
  H200     1.0000 0.84126  0.69668  0.10058  Biso   1.000  H
  H201     1.0000 0.82231  0.63117  0.04998  Biso   1.000  H
  H202     1.0000 0.97573  0.85833  0.88851  Biso   1.000  H
  H203     1.0000 0.97576  0.85838  0.88851  Biso   1.000  H
  C186     1.0000 0.02285  0.86906  0.72767  Biso   1.000  C
  C187     1.0000 0.97263  0.93758  0.09245  Biso   1.000  C
  C188     1.0000 0.97265  0.93754  0.09245  Biso   1.000  C
  C189     1.0000 0.97261  0.93754  0.09245  Biso   1.000  C
  C190     1.0000 0.96495  0.02733  0.09245  Biso   1.000  C
  C191     1.0000 0.96493  0.02738  0.09245  Biso   1.000  C
  C192     1.0000 0.99305  0.17155  0.71113  Biso   1.000  C
  C193     1.0000 0.99301  0.17155  0.71113  Biso   1.000  C
  H204     1.0000 0.97933  0.25945  0.91185  Biso   1.000  H
  C194     1.0000 0.89532  0.23174  0.98543  Biso   1.000  C
  C195     1.0000 0.89534  0.23179  0.98543  Biso   1.000  C
  H205     1.0000 0.96169  0.20967  0.01359  Biso   1.000  H
  H206     1.0000 0.85539  0.15876  0.10058  Biso   1.000  H
  H207     1.0000 0.80880  0.17763  0.04998  Biso   1.000  H
  H208     1.0000 0.80882  0.17768  0.04998  Biso   1.000  H
  C196     1.0000 0.07404  0.92213  0.75771  Biso   1.000  C
  C197     1.0000 0.01803  0.84545  0.61332  Biso   1.000  C
  C198     1.0000 0.07403  0.92217  0.75771  Biso   1.000  C
  H209     1.0000 0.95417  0.89487  0.09262  Biso   1.000  H
  H210     1.0000 0.95413  0.89487  0.09262  Biso   1.000  H
  C199     1.0000 0.03635  0.97246  0.09227  Biso   1.000  C
  H211     1.0000 0.94069  0.04585  0.09262  Biso   1.000  H
  C200     1.0000 0.02751  0.06387  0.09227  Biso   1.000  C
  H212     1.0000 0.96966  0.17736  0.65239  Biso   1.000  H
  H213     1.0000 0.96958  0.17736  0.65239  Biso   1.000  H
  C201     1.0000 0.04863  0.16894  0.67564  Biso   1.000  C
  C202     1.0000 0.04865  0.16898  0.67564  Biso   1.000  C
  H214     1.0000 0.90961  0.26134  0.05168  Biso   1.000  H
  H215     1.0000 0.88224  0.24796  0.91873  Biso   1.000  H
  C203     1.0000 0.12035  0.95137  0.67564  Biso   1.000  C
  H216     1.0000 0.07752  0.93884  0.83514  Biso   1.000  H
  C204     1.0000 0.06386  0.87446  0.53196  Biso   1.000  C
  C205     1.0000 0.06383  0.87446  0.53196  Biso   1.000  C
  H217     1.0000 0.98282  0.80913  0.59142  Biso   1.000  H
  H218     1.0000 0.98284  0.80918  0.59142  Biso   1.000  H
  C206     1.0000 0.07425  0.94556  0.09656  Biso   1.000  C
  C207     1.0000 0.06245  0.03504  0.09245  Biso   1.000  C
  C208     1.0000 0.06239  0.03508  0.09245  Biso   1.000  C
  C209     1.0000 0.05440  0.12866  0.09656  Biso   1.000  C
  C210     1.0000 0.07081  0.18583  0.56156  Biso   1.000  C
  C211     1.0000 0.07786  0.15186  0.75771  Biso   1.000  C
  C212     1.0000 0.07084  0.18588  0.56156  Biso   1.000  C
  C213     1.0000 0.07782  0.15186  0.75771  Biso   1.000  C
  C214     1.0000 0.11505  0.92916  0.56156  Biso   1.000  C
  C215     1.0000 0.11501  0.92916  0.56156  Biso   1.000  C
  C216     1.0000 0.17850  0.00697  0.71113  Biso   1.000  C
  C217     1.0000 0.05974  0.84585  0.41144  Biso   1.000  C
  N32      1.0000 0.05396  0.88946  0.10845  Biso   1.000  N
  H219     1.0000 0.11662  0.97124  0.08994  Biso   1.000  H
  N33      1.0000 0.05393  0.88946  0.10845  Biso   1.000  N
  H220     1.0000 0.11665  0.97128  0.08994  Biso   1.000  H
  H221     1.0000 0.10510  0.05923  0.09262  Biso   1.000  H
  H222     1.0000 0.10508  0.05928  0.09262  Biso   1.000  H
  N34      1.0000 0.11052  0.16443  0.10845  Biso   1.000  N
  H223     1.0000 0.02871  0.14533  0.08994  Biso   1.000  H
  N35      1.0000 0.11055  0.16448  0.10845  Biso   1.000  N
  H224     1.0000 0.02873  0.14537  0.08994  Biso   1.000  H
  C218     1.0000 0.12552  0.18935  0.53196  Biso   1.000  C
  C219     1.0000 0.12548  0.18935  0.53196  Biso   1.000  C
  H225     1.0000 0.04946  0.19493  0.50380  Biso   1.000  H
  H226     1.0000 0.04940  0.19498  0.50380  Biso   1.000  H
  H227     1.0000 0.06112  0.13866  0.83514  Biso   1.000  H
  C220     1.0000 0.13094  0.15375  0.72767  Biso   1.000  C
  H228     1.0000 0.14554  0.95056  0.50380  Biso   1.000  H
  N36      1.0000 0.18792  0.02183  0.82003  Biso   1.000  N
  H229     1.0000 0.20775  0.03035  0.65239  Biso   1.000  H
  N37      1.0000 0.18795  0.02188  0.82003  Biso   1.000  N
  H230     1.0000 0.20767  0.03035  0.65239  Biso   1.000  H
  N38      1.0000 0.09816  0.86806  0.33420  Biso   1.000  N
  N39      1.0000 0.09812  0.86806  0.33420  Biso   1.000  N
  H231     1.0000 0.02493  0.80814  0.39508  Biso   1.000  H
  H232     1.0000 0.02495  0.80819  0.39508  Biso   1.000  H
  C221     1.0000 0.09605  0.86766  0.11310  Biso   1.000  C
  C222     1.0000 0.13235  0.22836  0.11310  Biso   1.000  C
  C223     1.0000 0.15412  0.21386  0.41144  Biso   1.000  C
  C224     1.0000 0.15449  0.17254  0.61332  Biso   1.000  C
  C225     1.0000 0.15452  0.17259  0.61332  Biso   1.000  C
  C226     1.0000 0.16212  0.13605  0.81663  Biso   1.000  C
  C227     1.0000 0.24682  0.07306  0.85042  Biso   1.000  C
  C228     1.0000 0.24678  0.07306  0.85042  Biso   1.000  C
  C229     1.0000 0.08886  0.83207  0.22611  Biso   1.000  C
  C230     1.0000 0.08883  0.83207  0.22611  Biso   1.000  C
  H233     1.0000 0.13803  0.90285  0.10988  Biso   1.000  H
  C231     1.0000 0.08564  0.82733  0.00376  Biso   1.000  C
  C232     1.0000 0.08562  0.82738  0.00376  Biso   1.000  C
  H234     1.0000 0.09712  0.23517  0.10988  Biso   1.000  H
  C233     1.0000 0.16796  0.25675  0.22611  Biso   1.000  C
  C234     1.0000 0.17264  0.25824  0.00376  Biso   1.000  C
  C235     1.0000 0.16792  0.25675  0.22611  Biso   1.000  C
  C236     1.0000 0.17259  0.25828  0.00376  Biso   1.000  C
  N40      1.0000 0.13193  0.23003  0.33420  Biso   1.000  N
  N41      1.0000 0.13195  0.23008  0.33420  Biso   1.000  N
  H235     1.0000 0.19185  0.21674  0.39508  Biso   1.000  H
  H236     1.0000 0.19183  0.21679  0.39508  Biso   1.000  H
  H237     1.0000 0.19080  0.17367  0.59142  Biso   1.000  H
  N42      1.0000 0.21422  0.14465  0.80125  Biso   1.000  N
  H238     1.0000 0.14165  0.11735  0.88851  Biso   1.000  H
  H239     1.0000 0.14161  0.11735  0.88851  Biso   1.000  H
  C237     1.0000 0.23778  0.12483  0.89531  Biso   1.000  C
  C238     1.0000 0.23780  0.12487  0.89531  Biso   1.000  C
  H240     1.0000 0.27290  0.08644  0.77765  Biso   1.000  H
  C239     1.0000 0.27523  0.05396  0.94385  Biso   1.000  C
  H241     1.0000 0.27293  0.08649  0.77765  Biso   1.000  H
  H242     1.0000 0.04644  0.79755  0.22789  Biso   1.000  H
  C240     1.0000 0.13045  0.80575  0.22682  Biso   1.000  C
  C241     1.0000 0.13041  0.80575  0.22682  Biso   1.000  C
  H243     1.0000 0.09246  0.85135  0.93000  Biso   1.000  H
  H244     1.0000 0.09242  0.85135  0.93000  Biso   1.000  H
  C242     1.0000 0.12784  0.80084  0.00367  Biso   1.000  C
  H245     1.0000 0.04332  0.79413  0.00349  Biso   1.000  H
  C243     1.0000 0.12786  0.80089  0.00367  Biso   1.000  C
  H246     1.0000 0.04335  0.79417  0.00349  Biso   1.000  H
  H247     1.0000 0.20241  0.24886  0.22789  Biso   1.000  H
  C244     1.0000 0.19426  0.32465  0.22682  Biso   1.000  C
  C245     1.0000 0.19422  0.32465  0.22682  Biso   1.000  C
  H248     1.0000 0.14861  0.24107  0.93000  Biso   1.000  H
  C246     1.0000 0.19915  0.32694  0.00367  Biso   1.000  C
  H249     1.0000 0.20578  0.24913  0.00349  Biso   1.000  H
  C247     1.0000 0.19910  0.32699  0.00367  Biso   1.000  C
  H250     1.0000 0.20581  0.24918  0.00349  Biso   1.000  H
  H251     1.0000 0.20937  0.11077  0.96451  Biso   1.000  H
  C248     1.0000 0.30076  0.17867  0.93581  Biso   1.000  C
  H252     1.0000 0.20929  0.11077  0.96451  Biso   1.000  H
  C249     1.0000 0.30072  0.17867  0.93581  Biso   1.000  C
  H253     1.0000 0.28016  0.02066  0.91185  Biso   1.000  H
  C250     1.0000 0.33643  0.10465  0.98543  Biso   1.000  C
  H254     1.0000 0.28012  0.02066  0.91185  Biso   1.000  H
  H255     1.0000 0.24790  0.03823  0.01359  Biso   1.000  H
  H256     1.0000 0.24788  0.03828  0.01359  Biso   1.000  H
  H257     1.0000 0.12344  0.78174  0.30058  Biso   1.000  H
  H258     1.0000 0.17285  0.83905  0.22763  Biso   1.000  H
  C251     1.0000 0.12036  0.76606  0.11846  Biso   1.000  C
  H259     1.0000 0.12346  0.78178  0.30058  Biso   1.000  H
  H260     1.0000 0.17281  0.83905  0.22763  Biso   1.000  H
  C252     1.0000 0.12032  0.76606  0.11846  Biso   1.000  C
  H261     1.0000 0.12340  0.78174  0.30058  Biso   1.000  H
  H262     1.0000 0.11844  0.77354  0.93420  Biso   1.000  H
  H263     1.0000 0.17015  0.83373  0.99616  Biso   1.000  H
  H264     1.0000 0.11842  0.77358  0.93420  Biso   1.000  H
  H265     1.0000 0.17014  0.83378  0.99616  Biso   1.000  H
  H266     1.0000 0.16092  0.33375  0.22763  Biso   1.000  H
  H267     1.0000 0.21824  0.34163  0.30058  Biso   1.000  H
  C253     1.0000 0.23395  0.35425  0.11846  Biso   1.000  C
  H268     1.0000 0.21819  0.34168  0.30058  Biso   1.000  H
  C254     1.0000 0.23391  0.35425  0.11846  Biso   1.000  C
  H269     1.0000 0.22640  0.34483  0.93420  Biso   1.000  H
  H270     1.0000 0.16621  0.33636  0.99616  Biso   1.000  H
  H271     1.0000 0.22638  0.34488  0.93420  Biso   1.000  H
  H272     1.0000 0.32773  0.19516  0.86571  Biso   1.000  H
  H273     1.0000 0.29523  0.21115  0.97032  Biso   1.000  H
  H274     1.0000 0.32769  0.19516  0.86571  Biso   1.000  H
  H275     1.0000 0.29519  0.21115  0.97032  Biso   1.000  H
  C255     1.0000 0.32885  0.15713  0.02772  Biso   1.000  C
  C256     1.0000 0.32879  0.15718  0.02772  Biso   1.000  C
  H276     1.0000 0.36570  0.11776  0.91873  Biso   1.000  H
  H277     1.0000 0.35177  0.09036  0.05168  Biso   1.000  H
  H278     1.0000 0.35173  0.09036  0.05168  Biso   1.000  H
  H279     1.0000 0.14954  0.75146  0.11962  Biso   1.000  H
  H280     1.0000 0.07924  0.73056  0.12168  Biso   1.000  H
  H281     1.0000 0.24855  0.39804  0.11962  Biso   1.000  H
  H282     1.0000 0.26944  0.34866  0.12168  Biso   1.000  H
  H283     1.0000 0.24850  0.39808  0.11962  Biso   1.000  H
  H284     1.0000 0.30333  0.14456  0.10058  Biso   1.000  H
  H285     1.0000 0.36880  0.19115  0.04998  Biso   1.000  H
  H286     1.0000 0.30329  0.14456  0.10058  Biso   1.000  H
  C257     1.0000 0.81417  0.88496  0.56156  Biso   1.000  C
  C258     1.0000 0.81065  0.93614  0.53196  Biso   1.000  C
  C259     1.0000 0.81063  0.93619  0.53196  Biso   1.000  C
  H287     1.0000 0.80504  0.85446  0.50380  Biso   1.000  H
  C260     1.0000 0.83106  0.87964  0.67564  Biso   1.000  C
  C261     1.0000 0.83104  0.87969  0.67564  Biso   1.000  C
  C262     1.0000 0.78613  0.94024  0.41144  Biso   1.000  C
  C263     1.0000 0.78615  0.94029  0.41144  Biso   1.000  C
  C264     1.0000 0.78609  0.94024  0.41144  Biso   1.000  C
  C265     1.0000 0.82744  0.98196  0.61332  Biso   1.000  C
  C266     1.0000 0.81413  0.88496  0.56156  Biso   1.000  C
  C267     1.0000 0.84813  0.92596  0.75771  Biso   1.000  C
  C268     1.0000 0.84817  0.92596  0.75771  Biso   1.000  C
  C269     1.0000 0.82845  0.82143  0.71113  Biso   1.000  C
  C270     1.0000 0.82843  0.82148  0.71113  Biso   1.000  C
  N43      1.0000 0.76994  0.90185  0.33420  Biso   1.000  N
  N44      1.0000 0.76990  0.90185  0.33420  Biso   1.000  N
  H288     1.0000 0.78325  0.97507  0.39508  Biso   1.000  H
  H289     1.0000 0.78321  0.97507  0.39508  Biso   1.000  H
  C271     1.0000 0.84625  0.97714  0.72767  Biso   1.000  C
  C272     1.0000 0.84623  0.97719  0.72767  Biso   1.000  C
  H290     1.0000 0.82630  0.01715  0.59142  Biso   1.000  H
  H291     1.0000 0.86132  0.92244  0.83514  Biso   1.000  H
  H292     1.0000 0.86136  0.92244  0.83514  Biso   1.000  H
  N45      1.0000 0.83394  0.81206  0.82003  Biso   1.000  N
  H293     1.0000 0.82263  0.79224  0.65239  Biso   1.000  H
  H294     1.0000 0.82265  0.79228  0.65239  Biso   1.000  H
  C273     1.0000 0.74325  0.91114  0.22611  Biso   1.000  C
  C274     1.0000 0.74323  0.91118  0.22611  Biso   1.000  C
  C275     1.0000 0.86393  0.02607  0.81663  Biso   1.000  C
  C276     1.0000 0.86389  0.02607  0.81663  Biso   1.000  C
  C277     1.0000 0.82625  0.75313  0.85042  Biso   1.000  C
  C278     1.0000 0.82623  0.75318  0.85042  Biso   1.000  C
  C279     1.0000 0.82621  0.75313  0.85042  Biso   1.000  C
  C280     1.0000 0.67536  0.86955  0.22682  Biso   1.000  C
  C281     1.0000 0.67532  0.86955  0.22682  Biso   1.000  C
  C282     1.0000 0.77166  0.90397  0.11310  Biso   1.000  C
  C283     1.0000 0.77162  0.90397  0.11310  Biso   1.000  C
  H295     1.0000 0.75114  0.95353  0.22789  Biso   1.000  H
  H296     1.0000 0.75113  0.95358  0.22789  Biso   1.000  H
  N46      1.0000 0.85535  0.06955  0.80125  Biso   1.000  N
  H297     1.0000 0.88261  0.02427  0.88851  Biso   1.000  H
  N47      1.0000 0.85527  0.06955  0.80125  Biso   1.000  N
  C284     1.0000 0.77874  0.72475  0.94385  Biso   1.000  C
  C285     1.0000 0.88702  0.76214  0.89531  Biso   1.000  C
  H298     1.0000 0.81356  0.72704  0.77765  Biso   1.000  H
  C286     1.0000 0.88704  0.76219  0.89531  Biso   1.000  C
  H299     1.0000 0.81354  0.72709  0.77765  Biso   1.000  H
  C287     1.0000 0.88698  0.76214  0.89531  Biso   1.000  C
  C288     1.0000 0.64576  0.87964  0.11846  Biso   1.000  C
  C289     1.0000 0.64574  0.87969  0.11846  Biso   1.000  C
  C290     1.0000 0.64572  0.87964  0.11846  Biso   1.000  C
  H300     1.0000 0.65833  0.87653  0.30058  Biso   1.000  H
  H301     1.0000 0.66626  0.82715  0.22763  Biso   1.000  H
  H302     1.0000 0.65835  0.87658  0.30058  Biso   1.000  H
  H303     1.0000 0.66622  0.82715  0.22763  Biso   1.000  H
  C291     1.0000 0.74173  0.91434  0.00376  Biso   1.000  C
  C292     1.0000 0.74175  0.91438  0.00376  Biso   1.000  C
  N48      1.0000 0.83555  0.94605  0.10845  Biso   1.000  N
  H304     1.0000 0.76485  0.86194  0.10988  Biso   1.000  H
  H305     1.0000 0.76483  0.86198  0.10988  Biso   1.000  H
  C293     1.0000 0.87509  0.11294  0.89531  Biso   1.000  C
  C294     1.0000 0.87511  0.11298  0.89531  Biso   1.000  C
  C295     1.0000 0.76824  0.66356  0.98543  Biso   1.000  C
  H306     1.0000 0.74054  0.71983  0.91185  Biso   1.000  H
  H307     1.0000 0.74052  0.71988  0.91185  Biso   1.000  H
  H308     1.0000 0.79036  0.75205  0.01359  Biso   1.000  H
  H309     1.0000 0.79032  0.75205  0.01359  Biso   1.000  H
  H310     1.0000 0.90144  0.79066  0.96451  Biso   1.000  H
  N49      1.0000 0.93043  0.78575  0.80125  Biso   1.000  N
  C296     1.0000 0.87793  0.69925  0.93581  Biso   1.000  C
  N50      1.0000 0.93039  0.78575  0.80125  Biso   1.000  N
  C297     1.0000 0.87789  0.69925  0.93581  Biso   1.000  C
  C298     1.0000 0.67304  0.87216  0.00367  Biso   1.000  C
  H311     1.0000 0.60194  0.85045  0.11962  Biso   1.000  H
  H312     1.0000 0.65132  0.92073  0.12168  Biso   1.000  H
  H313     1.0000 0.65134  0.92078  0.12168  Biso   1.000  H
  H314     1.0000 0.75893  0.90753  0.93000  Biso   1.000  H
  H315     1.0000 0.75895  0.90758  0.93000  Biso   1.000  H
  H316     1.0000 0.75082  0.95664  0.00349  Biso   1.000  H
  H317     1.0000 0.75085  0.95669  0.00349  Biso   1.000  H
  H318     1.0000 0.75079  0.95664  0.00349  Biso   1.000  H
  C299     1.0000 0.87135  0.92573  0.09656  Biso   1.000  C
  C300     1.0000 0.87133  0.92578  0.09656  Biso   1.000  C
  H319     1.0000 0.88925  0.09856  0.96451  Biso   1.000  H
  C301     1.0000 0.92696  0.17376  0.85042  Biso   1.000  C
  C302     1.0000 0.82131  0.12204  0.93581  Biso   1.000  C
  C303     1.0000 0.92688  0.17376  0.85042  Biso   1.000  C
  C304     1.0000 0.82129  0.12208  0.93581  Biso   1.000  C
  H320     1.0000 0.75205  0.63423  0.91873  Biso   1.000  H
  H321     1.0000 0.75204  0.63428  0.91873  Biso   1.000  H
  H322     1.0000 0.73865  0.64824  0.05168  Biso   1.000  H
  C305     1.0000 0.82833  0.67113  0.02772  Biso   1.000  C
  H323     1.0000 0.73864  0.64829  0.05168  Biso   1.000  H
  C306     1.0000 0.82835  0.67118  0.02772  Biso   1.000  C
  H324     1.0000 0.73861  0.64824  0.05168  Biso   1.000  H
  C307     1.0000 0.97395  0.83783  0.81663  Biso   1.000  C
  C308     1.0000 0.97394  0.83788  0.81663  Biso   1.000  C
  H325     1.0000 0.86744  0.67226  0.86571  Biso   1.000  H
  H326     1.0000 0.91595  0.70474  0.97032  Biso   1.000  H
  H327     1.0000 0.91593  0.70479  0.97032  Biso   1.000  H
  H328     1.0000 0.86740  0.67226  0.86571  Biso   1.000  H
  H329     1.0000 0.65513  0.88154  0.93420  Biso   1.000  H
  H330     1.0000 0.66363  0.82986  0.99616  Biso   1.000  H
  H331     1.0000 0.65516  0.88158  0.93420  Biso   1.000  H
  H332     1.0000 0.66359  0.82986  0.99616  Biso   1.000  H
  C309     1.0000 0.93616  0.96367  0.09227  Biso   1.000  C
  H333     1.0000 0.85464  0.88334  0.08994  Biso   1.000  H
  C310     1.0000 0.93612  0.96367  0.09227  Biso   1.000  C
  H334     1.0000 0.85462  0.88338  0.08994  Biso   1.000  H
  H335     1.0000 0.85460  0.88334  0.08994  Biso   1.000  H
  N51      1.0000 0.97817  0.16605  0.82003  Biso   1.000  N
  H336     1.0000 0.91353  0.18646  0.77765  Biso   1.000  H
  C311     1.0000 0.94599  0.22125  0.94385  Biso   1.000  C
  N52      1.0000 0.97813  0.16605  0.82003  Biso   1.000  N
  H337     1.0000 0.80482  0.13253  0.86571  Biso   1.000  H
  H338     1.0000 0.78882  0.08406  0.97032  Biso   1.000  H
  H339     1.0000 0.80485  0.13258  0.86571  Biso   1.000  H
  H340     1.0000 0.78878  0.08406  0.97032  Biso   1.000  H
  C312     1.0000 0.84283  0.17164  0.02772  Biso   1.000  C
  C313     1.0000 0.84286  0.17169  0.02772  Biso   1.000  C
  H341     1.0000 0.84123  0.69663  0.10058  Biso   1.000  H
  H342     1.0000 0.82235  0.63117  0.04998  Biso   1.000  H
  H343     1.0000 0.84126  0.69668  0.10058  Biso   1.000  H
  H344     1.0000 0.82231  0.63117  0.04998  Biso   1.000  H
  H345     1.0000 0.97573  0.85833  0.88851  Biso   1.000  H
  H346     1.0000 0.97576  0.85838  0.88851  Biso   1.000  H
  C314     1.0000 0.02285  0.86906  0.72767  Biso   1.000  C
  C315     1.0000 0.97265  0.93754  0.09245  Biso   1.000  C
  C316     1.0000 0.97263  0.93758  0.09245  Biso   1.000  C
  C317     1.0000 0.97261  0.93754  0.09245  Biso   1.000  C
  C318     1.0000 0.96495  0.02733  0.09245  Biso   1.000  C
  C319     1.0000 0.96493  0.02738  0.09245  Biso   1.000  C
  C320     1.0000 0.99305  0.17155  0.71113  Biso   1.000  C
  C321     1.0000 0.99301  0.17155  0.71113  Biso   1.000  C
  H347     1.0000 0.97933  0.25945  0.91185  Biso   1.000  H
  C322     1.0000 0.89532  0.23174  0.98543  Biso   1.000  C
  C323     1.0000 0.89534  0.23179  0.98543  Biso   1.000  C
  H348     1.0000 0.96169  0.20967  0.01359  Biso   1.000  H
  H349     1.0000 0.85539  0.15876  0.10058  Biso   1.000  H
  H350     1.0000 0.80880  0.17763  0.04998  Biso   1.000  H
  H351     1.0000 0.80882  0.17768  0.04998  Biso   1.000  H
  C324     1.0000 0.01803  0.84545  0.61332  Biso   1.000  C
  C325     1.0000 0.07404  0.92213  0.75771  Biso   1.000  C
  C326     1.0000 0.07403  0.92217  0.75771  Biso   1.000  C
  H352     1.0000 0.95417  0.89487  0.09262  Biso   1.000  H
  H353     1.0000 0.95413  0.89487  0.09262  Biso   1.000  H
  C327     1.0000 0.03635  0.97246  0.09227  Biso   1.000  C
  H354     1.0000 0.94069  0.04585  0.09262  Biso   1.000  H
  C328     1.0000 0.02751  0.06387  0.09227  Biso   1.000  C
  H355     1.0000 0.96966  0.17736  0.65239  Biso   1.000  H
  H356     1.0000 0.96958  0.17736  0.65239  Biso   1.000  H
  C329     1.0000 0.04863  0.16894  0.67564  Biso   1.000  C
  C330     1.0000 0.04865  0.16898  0.67564  Biso   1.000  C
  H357     1.0000 0.90961  0.26134  0.05168  Biso   1.000  H
  H358     1.0000 0.88224  0.24796  0.91873  Biso   1.000  H
  C331     1.0000 0.06386  0.87446  0.53196  Biso   1.000  C
  C332     1.0000 0.06383  0.87446  0.53196  Biso   1.000  C
  H359     1.0000 0.98282  0.80913  0.59142  Biso   1.000  H
  H360     1.0000 0.98284  0.80918  0.59142  Biso   1.000  H
  C333     1.0000 0.12035  0.95137  0.67564  Biso   1.000  C
  H361     1.0000 0.07752  0.93884  0.83514  Biso   1.000  H
  C334     1.0000 0.07425  0.94556  0.09656  Biso   1.000  C
  C335     1.0000 0.06245  0.03504  0.09245  Biso   1.000  C
  C336     1.0000 0.06239  0.03508  0.09245  Biso   1.000  C
  C337     1.0000 0.05440  0.12866  0.09656  Biso   1.000  C
  C338     1.0000 0.07081  0.18583  0.56156  Biso   1.000  C
  C339     1.0000 0.07084  0.18588  0.56156  Biso   1.000  C
  C340     1.0000 0.07786  0.15186  0.75771  Biso   1.000  C
  C341     1.0000 0.07782  0.15186  0.75771  Biso   1.000  C
  C342     1.0000 0.05974  0.84585  0.41144  Biso   1.000  C
  C343     1.0000 0.11505  0.92916  0.56156  Biso   1.000  C
  C344     1.0000 0.11501  0.92916  0.56156  Biso   1.000  C
  C345     1.0000 0.17850  0.00697  0.71113  Biso   1.000  C
  N53      1.0000 0.05396  0.88946  0.10845  Biso   1.000  N
  H362     1.0000 0.11662  0.97124  0.08994  Biso   1.000  H
  N54      1.0000 0.05393  0.88946  0.10845  Biso   1.000  N
  H363     1.0000 0.11665  0.97128  0.08994  Biso   1.000  H
  H364     1.0000 0.10510  0.05923  0.09262  Biso   1.000  H
  H365     1.0000 0.10508  0.05928  0.09262  Biso   1.000  H
  N55      1.0000 0.11052  0.16443  0.10845  Biso   1.000  N
  H366     1.0000 0.02871  0.14533  0.08994  Biso   1.000  H
  N56      1.0000 0.11055  0.16448  0.10845  Biso   1.000  N
  H367     1.0000 0.02873  0.14537  0.08994  Biso   1.000  H
  C346     1.0000 0.12552  0.18935  0.53196  Biso   1.000  C
  C347     1.0000 0.12548  0.18935  0.53196  Biso   1.000  C
  H368     1.0000 0.04946  0.19493  0.50380  Biso   1.000  H
  H369     1.0000 0.04940  0.19498  0.50380  Biso   1.000  H
  H370     1.0000 0.06112  0.13866  0.83514  Biso   1.000  H
  C348     1.0000 0.13094  0.15375  0.72767  Biso   1.000  C
  N57      1.0000 0.09816  0.86806  0.33420  Biso   1.000  N
  N58      1.0000 0.09812  0.86806  0.33420  Biso   1.000  N
  H371     1.0000 0.02493  0.80814  0.39508  Biso   1.000  H
  H372     1.0000 0.02495  0.80819  0.39508  Biso   1.000  H
  H373     1.0000 0.14554  0.95056  0.50380  Biso   1.000  H
  N59      1.0000 0.18792  0.02183  0.82003  Biso   1.000  N
  H374     1.0000 0.20775  0.03035  0.65239  Biso   1.000  H
  N60      1.0000 0.18795  0.02188  0.82003  Biso   1.000  N
  H375     1.0000 0.20767  0.03035  0.65239  Biso   1.000  H
  C349     1.0000 0.09605  0.86766  0.11310  Biso   1.000  C
  C350     1.0000 0.13235  0.22836  0.11310  Biso   1.000  C
  C351     1.0000 0.15412  0.21386  0.41144  Biso   1.000  C
  C352     1.0000 0.15449  0.17254  0.61332  Biso   1.000  C
  C353     1.0000 0.15452  0.17259  0.61332  Biso   1.000  C
  C354     1.0000 0.16212  0.13605  0.81663  Biso   1.000  C
  C355     1.0000 0.08886  0.83207  0.22611  Biso   1.000  C
  C356     1.0000 0.08883  0.83207  0.22611  Biso   1.000  C
  C357     1.0000 0.24682  0.07306  0.85042  Biso   1.000  C
  C358     1.0000 0.24678  0.07306  0.85042  Biso   1.000  C
  H376     1.0000 0.13803  0.90285  0.10988  Biso   1.000  H
  C359     1.0000 0.08564  0.82733  0.00376  Biso   1.000  C
  C360     1.0000 0.08562  0.82738  0.00376  Biso   1.000  C
  H377     1.0000 0.09712  0.23517  0.10988  Biso   1.000  H
  C361     1.0000 0.16796  0.25675  0.22611  Biso   1.000  C
  C362     1.0000 0.17264  0.25824  0.00376  Biso   1.000  C
  C363     1.0000 0.16792  0.25675  0.22611  Biso   1.000  C
  C364     1.0000 0.17259  0.25828  0.00376  Biso   1.000  C
  N61      1.0000 0.13193  0.23003  0.33420  Biso   1.000  N
  N62      1.0000 0.13195  0.23008  0.33420  Biso   1.000  N
  H378     1.0000 0.19185  0.21674  0.39508  Biso   1.000  H
  H379     1.0000 0.19183  0.21679  0.39508  Biso   1.000  H
  H380     1.0000 0.19080  0.17367  0.59142  Biso   1.000  H
  N63      1.0000 0.21422  0.14465  0.80125  Biso   1.000  N
  H381     1.0000 0.14165  0.11735  0.88851  Biso   1.000  H
  H382     1.0000 0.14161  0.11735  0.88851  Biso   1.000  H
  H383     1.0000 0.04644  0.79755  0.22789  Biso   1.000  H
  C365     1.0000 0.13045  0.80575  0.22682  Biso   1.000  C
  C366     1.0000 0.13041  0.80575  0.22682  Biso   1.000  C
  C367     1.0000 0.23778  0.12483  0.89531  Biso   1.000  C
  C368     1.0000 0.23780  0.12487  0.89531  Biso   1.000  C
  H384     1.0000 0.27290  0.08644  0.77765  Biso   1.000  H
  C369     1.0000 0.27523  0.05396  0.94385  Biso   1.000  C
  H385     1.0000 0.27293  0.08649  0.77765  Biso   1.000  H
  H386     1.0000 0.09246  0.85135  0.93000  Biso   1.000  H
  H387     1.0000 0.09242  0.85135  0.93000  Biso   1.000  H
  C370     1.0000 0.12784  0.80084  0.00367  Biso   1.000  C
  H388     1.0000 0.04332  0.79413  0.00349  Biso   1.000  H
  C371     1.0000 0.12786  0.80089  0.00367  Biso   1.000  C
  H389     1.0000 0.04335  0.79417  0.00349  Biso   1.000  H
  H390     1.0000 0.20241  0.24886  0.22789  Biso   1.000  H
  C372     1.0000 0.19426  0.32465  0.22682  Biso   1.000  C
  C373     1.0000 0.19422  0.32465  0.22682  Biso   1.000  C
  H391     1.0000 0.14861  0.24107  0.93000  Biso   1.000  H
  C374     1.0000 0.19915  0.32694  0.00367  Biso   1.000  C
  H392     1.0000 0.20578  0.24913  0.00349  Biso   1.000  H
  C375     1.0000 0.19910  0.32699  0.00367  Biso   1.000  C
  H393     1.0000 0.20581  0.24918  0.00349  Biso   1.000  H
  H394     1.0000 0.12344  0.78174  0.30058  Biso   1.000  H
  H395     1.0000 0.17285  0.83905  0.22763  Biso   1.000  H
  C376     1.0000 0.12036  0.76606  0.11846  Biso   1.000  C
  H396     1.0000 0.12346  0.78178  0.30058  Biso   1.000  H
  H397     1.0000 0.17281  0.83905  0.22763  Biso   1.000  H
  C377     1.0000 0.12032  0.76606  0.11846  Biso   1.000  C
  H398     1.0000 0.12340  0.78174  0.30058  Biso   1.000  H
  H399     1.0000 0.20937  0.11077  0.96451  Biso   1.000  H
  C378     1.0000 0.30076  0.17867  0.93581  Biso   1.000  C
  H400     1.0000 0.20929  0.11077  0.96451  Biso   1.000  H
  C379     1.0000 0.30072  0.17867  0.93581  Biso   1.000  C
  H401     1.0000 0.28016  0.02066  0.91185  Biso   1.000  H
  C380     1.0000 0.33643  0.10465  0.98543  Biso   1.000  C
  H402     1.0000 0.28012  0.02066  0.91185  Biso   1.000  H
  H403     1.0000 0.24790  0.03823  0.01359  Biso   1.000  H
  H404     1.0000 0.24788  0.03828  0.01359  Biso   1.000  H
  H405     1.0000 0.11844  0.77354  0.93420  Biso   1.000  H
  H406     1.0000 0.17015  0.83373  0.99616  Biso   1.000  H
  H407     1.0000 0.11842  0.77358  0.93420  Biso   1.000  H
  H408     1.0000 0.17014  0.83378  0.99616  Biso   1.000  H
  H409     1.0000 0.16092  0.33375  0.22763  Biso   1.000  H
  H410     1.0000 0.21824  0.34163  0.30058  Biso   1.000  H
  C381     1.0000 0.23395  0.35425  0.11846  Biso   1.000  C
  H411     1.0000 0.21819  0.34168  0.30058  Biso   1.000  H
  C382     1.0000 0.23391  0.35425  0.11846  Biso   1.000  C
  H412     1.0000 0.22640  0.34483  0.93420  Biso   1.000  H
  H413     1.0000 0.16621  0.33636  0.99616  Biso   1.000  H
  H414     1.0000 0.22638  0.34488  0.93420  Biso   1.000  H
  H415     1.0000 0.14954  0.75146  0.11962  Biso   1.000  H
  H416     1.0000 0.07924  0.73056  0.12168  Biso   1.000  H
  H417     1.0000 0.32773  0.19516  0.86571  Biso   1.000  H
  H418     1.0000 0.29523  0.21115  0.97032  Biso   1.000  H
  H419     1.0000 0.32769  0.19516  0.86571  Biso   1.000  H
  H420     1.0000 0.29519  0.21115  0.97032  Biso   1.000  H
  C383     1.0000 0.32885  0.15713  0.02772  Biso   1.000  C
  C384     1.0000 0.32879  0.15718  0.02772  Biso   1.000  C
  H421     1.0000 0.36570  0.11776  0.91873  Biso   1.000  H
  H422     1.0000 0.35177  0.09036  0.05168  Biso   1.000  H
  H423     1.0000 0.35173  0.09036  0.05168  Biso   1.000  H
  H424     1.0000 0.24855  0.39804  0.11962  Biso   1.000  H
  H425     1.0000 0.26944  0.34866  0.12168  Biso   1.000  H
  H426     1.0000 0.24850  0.39808  0.11962  Biso   1.000  H
  H427     1.0000 0.30333  0.14456  0.10058  Biso   1.000  H
  H428     1.0000 0.36880  0.19115  0.04998  Biso   1.000  H
  H429     1.0000 0.30329  0.14456  0.10058  Biso   1.000  H
  C385     1.0000 0.81417  0.88496  0.56156  Biso   1.000  C
  C386     1.0000 0.81065  0.93614  0.53196  Biso   1.000  C
  C387     1.0000 0.81063  0.93619  0.53196  Biso   1.000  C
  H430     1.0000 0.80504  0.85446  0.50380  Biso   1.000  H
  C388     1.0000 0.83106  0.87964  0.67564  Biso   1.000  C
  C389     1.0000 0.83104  0.87969  0.67564  Biso   1.000  C
  C390     1.0000 0.78613  0.94024  0.41144  Biso   1.000  C
  C391     1.0000 0.78615  0.94029  0.41144  Biso   1.000  C
  C392     1.0000 0.78609  0.94024  0.41144  Biso   1.000  C
  C393     1.0000 0.82744  0.98196  0.61332  Biso   1.000  C
  C394     1.0000 0.81413  0.88496  0.56156  Biso   1.000  C
  C395     1.0000 0.84817  0.92596  0.75771  Biso   1.000  C
  C396     1.0000 0.84813  0.92596  0.75771  Biso   1.000  C
  C397     1.0000 0.82845  0.82143  0.71113  Biso   1.000  C
  C398     1.0000 0.82843  0.82148  0.71113  Biso   1.000  C
  N64      1.0000 0.76994  0.90185  0.33420  Biso   1.000  N
  N65      1.0000 0.76990  0.90185  0.33420  Biso   1.000  N
  H431     1.0000 0.78325  0.97507  0.39508  Biso   1.000  H
  H432     1.0000 0.78321  0.97507  0.39508  Biso   1.000  H
  C399     1.0000 0.84625  0.97714  0.72767  Biso   1.000  C
  C400     1.0000 0.84623  0.97719  0.72767  Biso   1.000  C
  H433     1.0000 0.82630  0.01715  0.59142  Biso   1.000  H
  H434     1.0000 0.86136  0.92244  0.83514  Biso   1.000  H
  H435     1.0000 0.86132  0.92244  0.83514  Biso   1.000  H
  N66      1.0000 0.83394  0.81206  0.82003  Biso   1.000  N
  H436     1.0000 0.82263  0.79224  0.65239  Biso   1.000  H
  H437     1.0000 0.82265  0.79228  0.65239  Biso   1.000  H
  C401     1.0000 0.74325  0.91114  0.22611  Biso   1.000  C
  C402     1.0000 0.74323  0.91118  0.22611  Biso   1.000  C
  C403     1.0000 0.86393  0.02607  0.81663  Biso   1.000  C
  C404     1.0000 0.86389  0.02607  0.81663  Biso   1.000  C
  C405     1.0000 0.82625  0.75313  0.85042  Biso   1.000  C
  C406     1.0000 0.82623  0.75318  0.85042  Biso   1.000  C
  C407     1.0000 0.82621  0.75313  0.85042  Biso   1.000  C
  C408     1.0000 0.67536  0.86955  0.22682  Biso   1.000  C
  C409     1.0000 0.67532  0.86955  0.22682  Biso   1.000  C
  C410     1.0000 0.77166  0.90397  0.11310  Biso   1.000  C
  C411     1.0000 0.77162  0.90397  0.11310  Biso   1.000  C
  H438     1.0000 0.75114  0.95353  0.22789  Biso   1.000  H
  H439     1.0000 0.75113  0.95358  0.22789  Biso   1.000  H
  N67      1.0000 0.85535  0.06955  0.80125  Biso   1.000  N
  H440     1.0000 0.88261  0.02427  0.88851  Biso   1.000  H
  N68      1.0000 0.85527  0.06955  0.80125  Biso   1.000  N
  C412     1.0000 0.77874  0.72475  0.94385  Biso   1.000  C
  C413     1.0000 0.88702  0.76214  0.89531  Biso   1.000  C
  H441     1.0000 0.81356  0.72704  0.77765  Biso   1.000  H
  C414     1.0000 0.88704  0.76219  0.89531  Biso   1.000  C
  H442     1.0000 0.81354  0.72709  0.77765  Biso   1.000  H
  C415     1.0000 0.88698  0.76214  0.89531  Biso   1.000  C
  C416     1.0000 0.64576  0.87964  0.11846  Biso   1.000  C
  C417     1.0000 0.64574  0.87969  0.11846  Biso   1.000  C
  C418     1.0000 0.64572  0.87964  0.11846  Biso   1.000  C
  H443     1.0000 0.65833  0.87653  0.30058  Biso   1.000  H
  H444     1.0000 0.66626  0.82715  0.22763  Biso   1.000  H
  H445     1.0000 0.65835  0.87658  0.30058  Biso   1.000  H
  H446     1.0000 0.66622  0.82715  0.22763  Biso   1.000  H
  C419     1.0000 0.74173  0.91434  0.00376  Biso   1.000  C
  C420     1.0000 0.74175  0.91438  0.00376  Biso   1.000  C
  N69      1.0000 0.83555  0.94605  0.10845  Biso   1.000  N
  H447     1.0000 0.76485  0.86194  0.10988  Biso   1.000  H
  H448     1.0000 0.76483  0.86198  0.10988  Biso   1.000  H
  C421     1.0000 0.87509  0.11294  0.89531  Biso   1.000  C
  C422     1.0000 0.87511  0.11298  0.89531  Biso   1.000  C
  C423     1.0000 0.76824  0.66356  0.98543  Biso   1.000  C
  H449     1.0000 0.74054  0.71983  0.91185  Biso   1.000  H
  H450     1.0000 0.74052  0.71988  0.91185  Biso   1.000  H
  H451     1.0000 0.79036  0.75205  0.01359  Biso   1.000  H
  H452     1.0000 0.79032  0.75205  0.01359  Biso   1.000  H
  H453     1.0000 0.90144  0.79066  0.96451  Biso   1.000  H
  N70      1.0000 0.93043  0.78575  0.80125  Biso   1.000  N
  C424     1.0000 0.87793  0.69925  0.93581  Biso   1.000  C
  N71      1.0000 0.93039  0.78575  0.80125  Biso   1.000  N
  C425     1.0000 0.87789  0.69925  0.93581  Biso   1.000  C
  C426     1.0000 0.67304  0.87216  0.00367  Biso   1.000  C
  H454     1.0000 0.60194  0.85045  0.11962  Biso   1.000  H
  H455     1.0000 0.65132  0.92073  0.12168  Biso   1.000  H
  H456     1.0000 0.65134  0.92078  0.12168  Biso   1.000  H
  H457     1.0000 0.75893  0.90753  0.93000  Biso   1.000  H
  H458     1.0000 0.75895  0.90758  0.93000  Biso   1.000  H
  H459     1.0000 0.75082  0.95664  0.00349  Biso   1.000  H
  H460     1.0000 0.75085  0.95669  0.00349  Biso   1.000  H
  H461     1.0000 0.75079  0.95664  0.00349  Biso   1.000  H
  C427     1.0000 0.87135  0.92573  0.09656  Biso   1.000  C
  C428     1.0000 0.87133  0.92578  0.09656  Biso   1.000  C
  H462     1.0000 0.88925  0.09856  0.96451  Biso   1.000  H
  C429     1.0000 0.92696  0.17376  0.85042  Biso   1.000  C
  C430     1.0000 0.82131  0.12204  0.93581  Biso   1.000  C
  C431     1.0000 0.92688  0.17376  0.85042  Biso   1.000  C
  C432     1.0000 0.82129  0.12208  0.93581  Biso   1.000  C
  H463     1.0000 0.75205  0.63423  0.91873  Biso   1.000  H
  H464     1.0000 0.75204  0.63428  0.91873  Biso   1.000  H
  H465     1.0000 0.73865  0.64824  0.05168  Biso   1.000  H
  C433     1.0000 0.82833  0.67113  0.02772  Biso   1.000  C
  H466     1.0000 0.73864  0.64829  0.05168  Biso   1.000  H
  C434     1.0000 0.82835  0.67118  0.02772  Biso   1.000  C
  H467     1.0000 0.73861  0.64824  0.05168  Biso   1.000  H
  C435     1.0000 0.97395  0.83783  0.81663  Biso   1.000  C
  C436     1.0000 0.97394  0.83788  0.81663  Biso   1.000  C
  H468     1.0000 0.86744  0.67226  0.86571  Biso   1.000  H
  H469     1.0000 0.91595  0.70474  0.97032  Biso   1.000  H
  H470     1.0000 0.91593  0.70479  0.97032  Biso   1.000  H
  H471     1.0000 0.86740  0.67226  0.86571  Biso   1.000  H
  H472     1.0000 0.65513  0.88154  0.93420  Biso   1.000  H
  H473     1.0000 0.66363  0.82986  0.99616  Biso   1.000  H
  H474     1.0000 0.65516  0.88158  0.93420  Biso   1.000  H
  H475     1.0000 0.66359  0.82986  0.99616  Biso   1.000  H
  C437     1.0000 0.93616  0.96367  0.09227  Biso   1.000  C
  H476     1.0000 0.85464  0.88334  0.08994  Biso   1.000  H
  C438     1.0000 0.93612  0.96367  0.09227  Biso   1.000  C
  H477     1.0000 0.85462  0.88338  0.08994  Biso   1.000  H
  H478     1.0000 0.85460  0.88334  0.08994  Biso   1.000  H
  N72      1.0000 0.97817  0.16605  0.82003  Biso   1.000  N
  H479     1.0000 0.91353  0.18646  0.77765  Biso   1.000  H
  C439     1.0000 0.94599  0.22125  0.94385  Biso   1.000  C
  N73      1.0000 0.97813  0.16605  0.82003  Biso   1.000  N
  H480     1.0000 0.80482  0.13253  0.86571  Biso   1.000  H
  H481     1.0000 0.78882  0.08406  0.97032  Biso   1.000  H
  H482     1.0000 0.80485  0.13258  0.86571  Biso   1.000  H
  H483     1.0000 0.78878  0.08406  0.97032  Biso   1.000  H
  C440     1.0000 0.84283  0.17164  0.02772  Biso   1.000  C
  C441     1.0000 0.84286  0.17169  0.02772  Biso   1.000  C
  H484     1.0000 0.84123  0.69663  0.10058  Biso   1.000  H
  H485     1.0000 0.82235  0.63117  0.04998  Biso   1.000  H
  H486     1.0000 0.84126  0.69668  0.10058  Biso   1.000  H
  H487     1.0000 0.82231  0.63117  0.04998  Biso   1.000  H
  H488     1.0000 0.97573  0.85833  0.88851  Biso   1.000  H
  H489     1.0000 0.97576  0.85838  0.88851  Biso   1.000  H
  C442     1.0000 0.02285  0.86906  0.72767  Biso   1.000  C
  C443     1.0000 0.97265  0.93754  0.09245  Biso   1.000  C
  C444     1.0000 0.97263  0.93758  0.09245  Biso   1.000  C
  C445     1.0000 0.97261  0.93754  0.09245  Biso   1.000  C
  C446     1.0000 0.96495  0.02733  0.09245  Biso   1.000  C
  C447     1.0000 0.96493  0.02738  0.09245  Biso   1.000  C
  C448     1.0000 0.99305  0.17155  0.71113  Biso   1.000  C
  C449     1.0000 0.99301  0.17155  0.71113  Biso   1.000  C
  H490     1.0000 0.97933  0.25945  0.91185  Biso   1.000  H
  C450     1.0000 0.89532  0.23174  0.98543  Biso   1.000  C
  C451     1.0000 0.89534  0.23179  0.98543  Biso   1.000  C
  H491     1.0000 0.96169  0.20967  0.01359  Biso   1.000  H
  H492     1.0000 0.85539  0.15876  0.10058  Biso   1.000  H
  H493     1.0000 0.80880  0.17763  0.04998  Biso   1.000  H
  H494     1.0000 0.80882  0.17768  0.04998  Biso   1.000  H
  C452     1.0000 0.01803  0.84545  0.61332  Biso   1.000  C
  C453     1.0000 0.07404  0.92213  0.75771  Biso   1.000  C
  C454     1.0000 0.07403  0.92217  0.75771  Biso   1.000  C
  H495     1.0000 0.95417  0.89487  0.09262  Biso   1.000  H
  H496     1.0000 0.95413  0.89487  0.09262  Biso   1.000  H
  C455     1.0000 0.03635  0.97246  0.09227  Biso   1.000  C
  H497     1.0000 0.94069  0.04585  0.09262  Biso   1.000  H
  C456     1.0000 0.02751  0.06387  0.09227  Biso   1.000  C
  H498     1.0000 0.96966  0.17736  0.65239  Biso   1.000  H
  H499     1.0000 0.96958  0.17736  0.65239  Biso   1.000  H
  C457     1.0000 0.04863  0.16894  0.67564  Biso   1.000  C
  C458     1.0000 0.04865  0.16898  0.67564  Biso   1.000  C
  H500     1.0000 0.90961  0.26134  0.05168  Biso   1.000  H
  H501     1.0000 0.88224  0.24796  0.91873  Biso   1.000  H
  C459     1.0000 0.06386  0.87446  0.53196  Biso   1.000  C
  C460     1.0000 0.06383  0.87446  0.53196  Biso   1.000  C
  H502     1.0000 0.98282  0.80913  0.59142  Biso   1.000  H
  H503     1.0000 0.98284  0.80918  0.59142  Biso   1.000  H
  C461     1.0000 0.12035  0.95137  0.67564  Biso   1.000  C
  H504     1.0000 0.07752  0.93884  0.83514  Biso   1.000  H
  C462     1.0000 0.07425  0.94556  0.09656  Biso   1.000  C
  C463     1.0000 0.06245  0.03504  0.09245  Biso   1.000  C
  C464     1.0000 0.06239  0.03508  0.09245  Biso   1.000  C
  C465     1.0000 0.05440  0.12866  0.09656  Biso   1.000  C
  C466     1.0000 0.07081  0.18583  0.56156  Biso   1.000  C
  C467     1.0000 0.07084  0.18588  0.56156  Biso   1.000  C
  C468     1.0000 0.07786  0.15186  0.75771  Biso   1.000  C
  C469     1.0000 0.07782  0.15186  0.75771  Biso   1.000  C
  C470     1.0000 0.05974  0.84585  0.41144  Biso   1.000  C
  C471     1.0000 0.11505  0.92916  0.56156  Biso   1.000  C
  C472     1.0000 0.11501  0.92916  0.56156  Biso   1.000  C
  C473     1.0000 0.17850  0.00697  0.71113  Biso   1.000  C
  N74      1.0000 0.05396  0.88946  0.10845  Biso   1.000  N
  H505     1.0000 0.11662  0.97124  0.08994  Biso   1.000  H
  N75      1.0000 0.05393  0.88946  0.10845  Biso   1.000  N
  H506     1.0000 0.11665  0.97128  0.08994  Biso   1.000  H
  H507     1.0000 0.10510  0.05923  0.09262  Biso   1.000  H
  H508     1.0000 0.10508  0.05928  0.09262  Biso   1.000  H
  N76      1.0000 0.11052  0.16443  0.10845  Biso   1.000  N
  H509     1.0000 0.02871  0.14533  0.08994  Biso   1.000  H
  N77      1.0000 0.11055  0.16448  0.10845  Biso   1.000  N
  H510     1.0000 0.02873  0.14537  0.08994  Biso   1.000  H
  C474     1.0000 0.12552  0.18935  0.53196  Biso   1.000  C
  C475     1.0000 0.12548  0.18935  0.53196  Biso   1.000  C
  H511     1.0000 0.04946  0.19493  0.50380  Biso   1.000  H
  H512     1.0000 0.04940  0.19498  0.50380  Biso   1.000  H
  H513     1.0000 0.06112  0.13866  0.83514  Biso   1.000  H
  C476     1.0000 0.13094  0.15375  0.72767  Biso   1.000  C
  N78      1.0000 0.09816  0.86806  0.33420  Biso   1.000  N
  N79      1.0000 0.09812  0.86806  0.33420  Biso   1.000  N
  H514     1.0000 0.02493  0.80814  0.39508  Biso   1.000  H
  H515     1.0000 0.02495  0.80819  0.39508  Biso   1.000  H
  H516     1.0000 0.14554  0.95056  0.50380  Biso   1.000  H
  N80      1.0000 0.18792  0.02183  0.82003  Biso   1.000  N
  H517     1.0000 0.20775  0.03035  0.65239  Biso   1.000  H
  N81      1.0000 0.18795  0.02188  0.82003  Biso   1.000  N
  H518     1.0000 0.20767  0.03035  0.65239  Biso   1.000  H
  C477     1.0000 0.09605  0.86766  0.11310  Biso   1.000  C
  C478     1.0000 0.13235  0.22836  0.11310  Biso   1.000  C
  C479     1.0000 0.15412  0.21386  0.41144  Biso   1.000  C
  C480     1.0000 0.15449  0.17254  0.61332  Biso   1.000  C
  C481     1.0000 0.15452  0.17259  0.61332  Biso   1.000  C
  C482     1.0000 0.16212  0.13605  0.81663  Biso   1.000  C
  C483     1.0000 0.08886  0.83207  0.22611  Biso   1.000  C
  C484     1.0000 0.08883  0.83207  0.22611  Biso   1.000  C
  C485     1.0000 0.24682  0.07306  0.85042  Biso   1.000  C
  C486     1.0000 0.24678  0.07306  0.85042  Biso   1.000  C
  H519     1.0000 0.13803  0.90285  0.10988  Biso   1.000  H
  C487     1.0000 0.08564  0.82733  0.00376  Biso   1.000  C
  C488     1.0000 0.08562  0.82738  0.00376  Biso   1.000  C
  H520     1.0000 0.09712  0.23517  0.10988  Biso   1.000  H
  C489     1.0000 0.16796  0.25675  0.22611  Biso   1.000  C
  C490     1.0000 0.17264  0.25824  0.00376  Biso   1.000  C
  C491     1.0000 0.16792  0.25675  0.22611  Biso   1.000  C
  C492     1.0000 0.17259  0.25828  0.00376  Biso   1.000  C
  N82      1.0000 0.13193  0.23003  0.33420  Biso   1.000  N
  N83      1.0000 0.13195  0.23008  0.33420  Biso   1.000  N
  H521     1.0000 0.19185  0.21674  0.39508  Biso   1.000  H
  H522     1.0000 0.19183  0.21679  0.39508  Biso   1.000  H
  H523     1.0000 0.19080  0.17367  0.59142  Biso   1.000  H
  N84      1.0000 0.21422  0.14465  0.80125  Biso   1.000  N
  H524     1.0000 0.14165  0.11735  0.88851  Biso   1.000  H
  H525     1.0000 0.14161  0.11735  0.88851  Biso   1.000  H
  H526     1.0000 0.04644  0.79755  0.22789  Biso   1.000  H
  C493     1.0000 0.13045  0.80575  0.22682  Biso   1.000  C
  C494     1.0000 0.13041  0.80575  0.22682  Biso   1.000  C
  C495     1.0000 0.23778  0.12483  0.89531  Biso   1.000  C
  C496     1.0000 0.23780  0.12487  0.89531  Biso   1.000  C
  H527     1.0000 0.27290  0.08644  0.77765  Biso   1.000  H
  C497     1.0000 0.27523  0.05396  0.94385  Biso   1.000  C
  H528     1.0000 0.27293  0.08649  0.77765  Biso   1.000  H
  H529     1.0000 0.09246  0.85135  0.93000  Biso   1.000  H
  H530     1.0000 0.09242  0.85135  0.93000  Biso   1.000  H
  C498     1.0000 0.12784  0.80084  0.00367  Biso   1.000  C
  H531     1.0000 0.04332  0.79413  0.00349  Biso   1.000  H
  C499     1.0000 0.12786  0.80089  0.00367  Biso   1.000  C
  H532     1.0000 0.04335  0.79417  0.00349  Biso   1.000  H
  H533     1.0000 0.20241  0.24886  0.22789  Biso   1.000  H
  C500     1.0000 0.19426  0.32465  0.22682  Biso   1.000  C
  C501     1.0000 0.19422  0.32465  0.22682  Biso   1.000  C
  H534     1.0000 0.14861  0.24107  0.93000  Biso   1.000  H
  C502     1.0000 0.19915  0.32694  0.00367  Biso   1.000  C
  H535     1.0000 0.20578  0.24913  0.00349  Biso   1.000  H
  C503     1.0000 0.19910  0.32699  0.00367  Biso   1.000  C
  H536     1.0000 0.20581  0.24918  0.00349  Biso   1.000  H
  H537     1.0000 0.12344  0.78174  0.30058  Biso   1.000  H
  H538     1.0000 0.17285  0.83905  0.22763  Biso   1.000  H
  C504     1.0000 0.12036  0.76606  0.11846  Biso   1.000  C
  H539     1.0000 0.12346  0.78178  0.30058  Biso   1.000  H
  H540     1.0000 0.17281  0.83905  0.22763  Biso   1.000  H
  C505     1.0000 0.12032  0.76606  0.11846  Biso   1.000  C
  H541     1.0000 0.12340  0.78174  0.30058  Biso   1.000  H
  H542     1.0000 0.20937  0.11077  0.96451  Biso   1.000  H
  C506     1.0000 0.30076  0.17867  0.93581  Biso   1.000  C
  H543     1.0000 0.20929  0.11077  0.96451  Biso   1.000  H
  C507     1.0000 0.30072  0.17867  0.93581  Biso   1.000  C
  H544     1.0000 0.28016  0.02066  0.91185  Biso   1.000  H
  C508     1.0000 0.33643  0.10465  0.98543  Biso   1.000  C
  H545     1.0000 0.28012  0.02066  0.91185  Biso   1.000  H
  H546     1.0000 0.24790  0.03823  0.01359  Biso   1.000  H
  H547     1.0000 0.24788  0.03828  0.01359  Biso   1.000  H
  H548     1.0000 0.11844  0.77354  0.93420  Biso   1.000  H
  H549     1.0000 0.17015  0.83373  0.99616  Biso   1.000  H
  H550     1.0000 0.11842  0.77358  0.93420  Biso   1.000  H
  H551     1.0000 0.17014  0.83378  0.99616  Biso   1.000  H
  H552     1.0000 0.16092  0.33375  0.22763  Biso   1.000  H
  H553     1.0000 0.21824  0.34163  0.30058  Biso   1.000  H
  C509     1.0000 0.23395  0.35425  0.11846  Biso   1.000  C
  H554     1.0000 0.21819  0.34168  0.30058  Biso   1.000  H
  C510     1.0000 0.23391  0.35425  0.11846  Biso   1.000  C
  H555     1.0000 0.22640  0.34483  0.93420  Biso   1.000  H
  H556     1.0000 0.16621  0.33636  0.99616  Biso   1.000  H
  H557     1.0000 0.22638  0.34488  0.93420  Biso   1.000  H
  H558     1.0000 0.14954  0.75146  0.11962  Biso   1.000  H
  H559     1.0000 0.07924  0.73056  0.12168  Biso   1.000  H
  H560     1.0000 0.32773  0.19516  0.86571  Biso   1.000  H
  H561     1.0000 0.29523  0.21115  0.97032  Biso   1.000  H
  H562     1.0000 0.32769  0.19516  0.86571  Biso   1.000  H
  H563     1.0000 0.29519  0.21115  0.97032  Biso   1.000  H
  C511     1.0000 0.32885  0.15713  0.02772  Biso   1.000  C
  C512     1.0000 0.32879  0.15718  0.02772  Biso   1.000  C
  H564     1.0000 0.36570  0.11776  0.91873  Biso   1.000  H
  H565     1.0000 0.35177  0.09036  0.05168  Biso   1.000  H
  H566     1.0000 0.35173  0.09036  0.05168  Biso   1.000  H
  H567     1.0000 0.24855  0.39804  0.11962  Biso   1.000  H
  H568     1.0000 0.26944  0.34866  0.12168  Biso   1.000  H
  H569     1.0000 0.24850  0.39808  0.11962  Biso   1.000  H
  H570     1.0000 0.30333  0.14456  0.10058  Biso   1.000  H
  H571     1.0000 0.36880  0.19115  0.04998  Biso   1.000  H
  H572     1.0000 0.30329  0.14456  0.10058  Biso   1.000  H
  C513     1.0000 0.66976  0.77133  0.65212  Biso   1.000  C
  C514     1.0000 0.60856  0.72065  0.61055  Biso   1.000  C
  C515     1.0000 0.66217  0.82382  0.69441  Biso   1.000  C
  H573     1.0000 0.69906  0.78444  0.58543  Biso   1.000  H
  H574     1.0000 0.68509  0.75705  0.71828  Biso   1.000  H
  C516     1.0000 0.58018  0.73975  0.51712  Biso   1.000  C
  H575     1.0000 0.61349  0.68735  0.57854  Biso   1.000  H
  H576     1.0000 0.58126  0.70492  0.68020  Biso   1.000  H
  C517     1.0000 0.63406  0.84531  0.60250  Biso   1.000  C
  H577     1.0000 0.63669  0.81125  0.76719  Biso   1.000  H
  H578     1.0000 0.70216  0.85784  0.71658  Biso   1.000  H
  N85      1.0000 0.52125  0.68852  0.48672  Biso   1.000  N
  C518     1.0000 0.57115  0.79152  0.56200  Biso   1.000  C
  H579     1.0000 0.60627  0.75313  0.44435  Biso   1.000  H
  H580     1.0000 0.66109  0.86185  0.53241  Biso   1.000  H
  H581     1.0000 0.62859  0.87784  0.63701  Biso   1.000  H
  C519     1.0000 0.51186  0.67365  0.37783  Biso   1.000  C
  N86      1.0000 0.54758  0.81134  0.46795  Biso   1.000  N
  H582     1.0000 0.54267  0.77741  0.63120  Biso   1.000  H
  C520     1.0000 0.45365  0.61801  0.34233  Biso   1.000  C
  H583     1.0000 0.54107  0.69704  0.31900  Biso   1.000  H
  C521     1.0000 0.49548  0.80274  0.48333  Biso   1.000  C
  C522     1.0000 0.40737  0.58882  0.42441  Biso   1.000  C
  C523     1.0000 0.44838  0.59585  0.22825  Biso   1.000  C
  C524     1.0000 0.46426  0.82044  0.39437  Biso   1.000  C
  H584     1.0000 0.47497  0.78404  0.55521  Biso   1.000  H
  C525     1.0000 0.35617  0.53574  0.39437  Biso   1.000  C
  H585     1.0000 0.41085  0.60553  0.50183  Biso   1.000  H
  C526     1.0000 0.39719  0.54115  0.19866  Biso   1.000  C
  H586     1.0000 0.47886  0.61725  0.17041  Biso   1.000  H
  C527     1.0000 0.41119  0.81855  0.42441  Biso   1.000  C
  C528     1.0000 0.48786  0.83923  0.28002  Biso   1.000  C
  C529     1.0000 0.30728  0.50452  0.48333  Biso   1.000  C
  C530     1.0000 0.35135  0.51213  0.28002  Biso   1.000  C
  C531     1.0000 0.39307  0.51254  0.07814  Biso   1.000  C
  C532     1.0000 0.38195  0.83562  0.34233  Biso   1.000  C
  H587     1.0000 0.39448  0.80535  0.50183  Biso   1.000  H
  C533     1.0000 0.45888  0.85603  0.19866  Biso   1.000  C
  H588     1.0000 0.52416  0.84036  0.25811  Biso   1.000  H
  N87      1.0000 0.26375  0.45244  0.46795  Biso   1.000  N
  H589     1.0000 0.30906  0.52502  0.55521  Biso   1.000  H
  H590     1.0000 0.31614  0.47582  0.25811  Biso   1.000  H
  N88      1.0000 0.43149  0.53475  0.00080  Biso   1.000  N
  H591     1.0000 0.35825  0.47483  0.06169  Biso   1.000  H
  C534     1.0000 0.32637  0.83824  0.37783  Biso   1.000  C
  C535     1.0000 0.40418  0.85252  0.22825  Biso   1.000  C
  C536     1.0000 0.48748  0.88054  0.07814  Biso   1.000  C
  C537     1.0000 0.22034  0.42883  0.56200  Biso   1.000  C
  C538     1.0000 0.42219  0.49875  0.89271  Biso   1.000  C
  N89      1.0000 0.31149  0.83274  0.48672  Biso   1.000  N
  H592     1.0000 0.30298  0.84405  0.31900  Biso   1.000  H
  H593     1.0000 0.38278  0.86162  0.17041  Biso   1.000  H
  N90      1.0000 0.46525  0.89672  0.00080  Biso   1.000  N
  H594     1.0000 0.52517  0.88343  0.06169  Biso   1.000  H
  C539     1.0000 0.21125  0.36593  0.60250  Biso   1.000  C
  H595     1.0000 0.23476  0.45735  0.63120  Biso   1.000  H
  C540     1.0000 0.15958  0.41982  0.51712  Biso   1.000  C
  C541     1.0000 0.42937  0.53435  0.77970  Biso   1.000  C
  H596     1.0000 0.37977  0.46424  0.89450  Biso   1.000  H
  C542     1.0000 0.46378  0.47244  0.89352  Biso   1.000  C
  C543     1.0000 0.26029  0.84045  0.51712  Biso   1.000  C
  C544     1.0000 0.50128  0.92344  0.89271  Biso   1.000  C
  C545     1.0000 0.16165  0.33782  0.69441  Biso   1.000  C
  H597     1.0000 0.20076  0.33894  0.53241  Biso   1.000  H
  H598     1.0000 0.24928  0.37143  0.63701  Biso   1.000  H
  N91      1.0000 0.16727  0.47875  0.48672  Biso   1.000  N
  H599     1.0000 0.14688  0.39373  0.44435  Biso   1.000  H
  C546     1.0000 0.11206  0.39143  0.61055  Biso   1.000  C
  N92      1.0000 0.38729  0.55615  0.77515  Biso   1.000  N
  H600     1.0000 0.47135  0.56953  0.77658  Biso   1.000  H
  C547     1.0000 0.41896  0.49402  0.67045  Biso   1.000  C
  H601     1.0000 0.45676  0.44843  0.96728  Biso   1.000  H
  H602     1.0000 0.50617  0.50574  0.89432  Biso   1.000  H
  C548     1.0000 0.45368  0.43275  0.78516  Biso   1.000  C
  C549     1.0000 0.20845  0.77962  0.56200  Biso   1.000  C
  H603     1.0000 0.24686  0.85315  0.44435  Biso   1.000  H
  C550     1.0000 0.27935  0.88793  0.61055  Biso   1.000  C
  C551     1.0000 0.46567  0.89505  0.77970  Biso   1.000  C
  H604     1.0000 0.53577  0.91555  0.89450  Biso   1.000  H
  C552     1.0000 0.52758  0.99133  0.89352  Biso   1.000  C
  C553     1.0000 0.10156  0.33025  0.65212  Biso   1.000  C
  H605     1.0000 0.17456  0.36332  0.76719  Biso   1.000  H
  H606     1.0000 0.15568  0.29785  0.71658  Biso   1.000  H
  C554     1.0000 0.16177  0.48812  0.37783  Biso   1.000  C
  H607     1.0000 0.07387  0.38652  0.57854  Biso   1.000  H
  H608     1.0000 0.12368  0.41874  0.68020  Biso   1.000  H
  C555     1.0000 0.40757  0.61224  0.76325  Biso   1.000  C
  C556     1.0000 0.46116  0.46753  0.67036  Biso   1.000  C
  H609     1.0000 0.37665  0.46082  0.67018  Biso   1.000  H
  H610     1.0000 0.42578  0.51804  0.59660  Biso   1.000  H
  H611     1.0000 0.48287  0.41815  0.78632  Biso   1.000  H
  H612     1.0000 0.41256  0.39725  0.78838  Biso   1.000  H
  N93      1.0000 0.18867  0.73623  0.46795  Biso   1.000  N
  H613     1.0000 0.22257  0.76525  0.63120  Biso   1.000  H
  C557     1.0000 0.15467  0.78872  0.60250  Biso   1.000  C
  H614     1.0000 0.31265  0.92614  0.57854  Biso   1.000  H
  H615     1.0000 0.29506  0.87635  0.68020  Biso   1.000  H
  C558     1.0000 0.22868  0.89843  0.65212  Biso   1.000  C
  N94      1.0000 0.44385  0.83112  0.77515  Biso   1.000  N
  H616     1.0000 0.43048  0.90185  0.77658  Biso   1.000  H
  C559     1.0000 0.50597  0.92492  0.67045  Biso   1.000  C
  H617     1.0000 0.55153  0.00832  0.96728  Biso   1.000  H
  H618     1.0000 0.49429  0.00043  0.89432  Biso   1.000  H
  C560     1.0000 0.56728  0.02093  0.78516  Biso   1.000  C
  H619     1.0000 0.08538  0.30092  0.58543  Biso   1.000  H
  H620     1.0000 0.07198  0.31493  0.71828  Biso   1.000  H
  C561     1.0000 0.16438  0.54633  0.34233  Biso   1.000  C
  H621     1.0000 0.15595  0.45892  0.31900  Biso   1.000  H
  C562     1.0000 0.36967  0.63914  0.75896  Biso   1.000  C
  H622     1.0000 0.44995  0.63793  0.75664  Biso   1.000  H
  H623     1.0000 0.45177  0.44023  0.60080  Biso   1.000  H
  H624     1.0000 0.50348  0.50042  0.66285  Biso   1.000  H
  C563     1.0000 0.19727  0.69271  0.48333  Biso   1.000  C
  C564     1.0000 0.17616  0.83833  0.69441  Biso   1.000  C
  H625     1.0000 0.13815  0.79922  0.53241  Biso   1.000  H
  H626     1.0000 0.12218  0.75074  0.63701  Biso   1.000  H
  H627     1.0000 0.21557  0.91465  0.58543  Biso   1.000  H
  H628     1.0000 0.24298  0.92803  0.71828  Biso   1.000  H
  C565     1.0000 0.38776  0.79535  0.76325  Biso   1.000  C
  C566     1.0000 0.53248  0.99363  0.67036  Biso   1.000  C
  H629     1.0000 0.53915  0.91582  0.67018  Biso   1.000  H
  H630     1.0000 0.48195  0.90771  0.59660  Biso   1.000  H
  H631     1.0000 0.58184  0.06473  0.78632  Biso   1.000  H
  H632     1.0000 0.60276  0.01535  0.78838  Biso   1.000  H
  C567     1.0000 0.14749  0.55165  0.22825  Biso   1.000  C
  C568     1.0000 0.18149  0.59265  0.42441  Biso   1.000  C
  C569     1.0000 0.30598  0.60423  0.75914  Biso   1.000  C
  C570     1.0000 0.39577  0.70172  0.75914  Biso   1.000  C
  C571     1.0000 0.17958  0.64383  0.39437  Biso   1.000  C
  H633     1.0000 0.21598  0.69096  0.55521  Biso   1.000  H
  H634     1.0000 0.18876  0.82544  0.76719  Biso   1.000  H
  H635     1.0000 0.14216  0.84432  0.71658  Biso   1.000  H
  C572     1.0000 0.36085  0.73051  0.75896  Biso   1.000  C
  H636     1.0000 0.36207  0.81202  0.75664  Biso   1.000  H
  H637     1.0000 0.55972  0.01152  0.60080  Biso   1.000  H
  H638     1.0000 0.49953  0.00305  0.66285  Biso   1.000  H
  C573     1.0000 0.14398  0.60283  0.19866  Biso   1.000  C
  H639     1.0000 0.13837  0.52114  0.17041  Biso   1.000  H
  H640     1.0000 0.19468  0.58913  0.50183  Biso   1.000  H
  C574     1.0000 0.26947  0.63031  0.75896  Biso   1.000  C
  H641     1.0000 0.28747  0.56151  0.75932  Biso   1.000  H
  H642     1.0000 0.43846  0.72592  0.75932  Biso   1.000  H
  C575     1.0000 0.16076  0.64865  0.28002  Biso   1.000  C
  C576     1.0000 0.29828  0.69402  0.75914  Biso   1.000  C
  C577     1.0000 0.11945  0.60693  0.07814  Biso   1.000  C
  C578     1.0000 0.20467  0.59242  0.76325  Biso   1.000  C
  H643     1.0000 0.15966  0.68384  0.25811  Biso   1.000  H
  H644     1.0000 0.27406  0.71254  0.75932  Biso   1.000  H
  N95      1.0000 0.10327  0.56854  0.00080  Biso   1.000  N
  H645     1.0000 0.11658  0.64176  0.06169  Biso   1.000  H
  N96      1.0000 0.16887  0.61274  0.77515  Biso   1.000  N
  H646     1.0000 0.18796  0.55002  0.75664  Biso   1.000  H
  C579     1.0000 0.07657  0.57782  0.89271  Biso   1.000  C
  C580     1.0000 0.10496  0.57061  0.77970  Biso   1.000  C
  H647     1.0000 0.08447  0.62022  0.89450  Biso   1.000  H
  C581     1.0000 0.00869  0.53624  0.89352  Biso   1.000  C
  H648     1.0000 0.09817  0.52862  0.77658  Biso   1.000  H
  C582     1.0000 0.07505  0.58102  0.67045  Biso   1.000  C
  H649     1.0000 0.99165  0.54322  0.96728  Biso   1.000  H
  H650     1.0000 0.99958  0.49384  0.89432  Biso   1.000  H
  C583     1.0000 0.97908  0.54633  0.78516  Biso   1.000  C
  C584     1.0000 0.00636  0.53885  0.67036  Biso   1.000  C
  H651     1.0000 0.08415  0.62333  0.67018  Biso   1.000  H
  H652     1.0000 0.09225  0.57422  0.59660  Biso   1.000  H
  H653     1.0000 0.93526  0.51713  0.78632  Biso   1.000  H
  H654     1.0000 0.98465  0.58742  0.78838  Biso   1.000  H
  H655     1.0000 0.98846  0.54822  0.60080  Biso   1.000  H
  H656     1.0000 0.99696  0.49655  0.66285  Biso   1.000  H
  C585     1.0000 0.86091  0.65802  0.56021  Biso   1.000  C
  C586     1.0000 0.83458  0.59008  0.55941  Biso   1.000  C
  H657     1.0000 0.88489  0.67501  0.63388  Biso   1.000  H
  H658     1.0000 0.82761  0.66712  0.56102  Biso   1.000  H
  C587     1.0000 0.90060  0.68762  0.45177  Biso   1.000  C
  C588     1.0000 0.79901  0.56169  0.44640  Biso   1.000  C
  N97      1.0000 0.79862  0.56341  0.66750  Biso   1.000  N
  H659     1.0000 0.86911  0.58219  0.56120  Biso   1.000  H
  C589     1.0000 0.86580  0.66032  0.33697  Biso   1.000  C
  H660     1.0000 0.91520  0.73141  0.45302  Biso   1.000  H
  H661     1.0000 0.93610  0.68199  0.45498  Biso   1.000  H
  N98      1.0000 0.77721  0.49781  0.44175  Biso   1.000  N
  H662     1.0000 0.76378  0.56850  0.44318  Biso   1.000  H
  C590     1.0000 0.83929  0.59161  0.33706  Biso   1.000  C
  C591     1.0000 0.82079  0.54719  0.74475  Biso   1.000  C
  H663     1.0000 0.89308  0.67820  0.26750  Biso   1.000  H
  H664     1.0000 0.83291  0.66969  0.32946  Biso   1.000  H
  C592     1.0000 0.72110  0.46199  0.42986  Biso   1.000  C
  H665     1.0000 0.87251  0.58251  0.33679  Biso   1.000  H
  H666     1.0000 0.81531  0.57440  0.26330  Biso   1.000  H
  H667     1.0000 0.85850  0.55011  0.72839  Biso   1.000  H
  C593     1.0000 0.79220  0.52272  0.86527  Biso   1.000  C
  C594     1.0000 0.69421  0.39720  0.42557  Biso   1.000  C
  H668     1.0000 0.69540  0.47870  0.42333  Biso   1.000  H
  C595     1.0000 0.73750  0.51921  0.89486  Biso   1.000  C
  C596     1.0000 0.82122  0.50592  0.94671  Biso   1.000  C
  C597     1.0000 0.63160  0.36071  0.42575  Biso   1.000  C
  C598     1.0000 0.72910  0.36841  0.42575  Biso   1.000  C
  C599     1.0000 0.71532  0.50231  0.00894  Biso   1.000  C
  H669     1.0000 0.71610  0.52831  0.83710  Biso   1.000  H
  H670     1.0000 0.85750  0.50700  0.92481  Biso   1.000  H
  C600     1.0000 0.79760  0.48708  0.06097  Biso   1.000  C
  C601     1.0000 0.60279  0.29700  0.42557  Biso   1.000  C
  H671     1.0000 0.60740  0.37918  0.42602  Biso   1.000  H
  C602     1.0000 0.70301  0.30578  0.42557  Biso   1.000  C
  H672     1.0000 0.77178  0.39260  0.42602  Biso   1.000  H
  C603     1.0000 0.65967  0.50488  0.04452  Biso   1.000  C
  C604     1.0000 0.74449  0.48519  0.09110  Biso   1.000  C
  C605     1.0000 0.82880  0.46942  0.15002  Biso   1.000  C
  C606     1.0000 0.53800  0.25911  0.42986  Biso   1.000  C
  C607     1.0000 0.63930  0.27091  0.42575  Biso   1.000  C
  C608     1.0000 0.74091  0.27889  0.42986  Biso   1.000  C
  N99      1.0000 0.64479  0.49938  0.15342  Biso   1.000  N
  H673     1.0000 0.63628  0.51069  0.98570  Biso   1.000  H
  H674     1.0000 0.72778  0.47199  0.16844  Biso   1.000  H
  N100     1.0000 0.88088  0.47798  0.13456  Biso   1.000  N
  H675     1.0000 0.80827  0.45068  0.22190  Biso   1.000  H
  N101     1.0000 0.50221  0.27938  0.44175  Biso   1.000  N
  H676     1.0000 0.52129  0.21671  0.42333  Biso   1.000  H
  H677     1.0000 0.62079  0.22820  0.42602  Biso   1.000  H
  N102     1.0000 0.72059  0.22279  0.44175  Biso   1.000  N
  H678     1.0000 0.78331  0.30461  0.42333  Biso   1.000  H
  C609     1.0000 0.59359  0.50709  0.18382  Biso   1.000  C
  C610     1.0000 0.90451  0.45820  0.22870  Biso   1.000  C
  C611     1.0000 0.43829  0.23730  0.44640  Biso   1.000  C
  C612     1.0000 0.76271  0.20099  0.44640  Biso   1.000  C
  C613     1.0000 0.54182  0.44631  0.22870  Biso   1.000  C
  H679     1.0000 0.58020  0.51979  0.11095  Biso   1.000  H
  C614     1.0000 0.61271  0.55462  0.27716  Biso   1.000  C
  C615     1.0000 0.91348  0.40639  0.18382  Biso   1.000  C
  H680     1.0000 0.87600  0.44410  0.29790  Biso   1.000  H
  C616     1.0000 0.96738  0.51200  0.26920  Biso   1.000  C
  C617     1.0000 0.40842  0.24771  0.33706  Biso   1.000  C
  C618     1.0000 0.40990  0.24451  0.55941  Biso   1.000  C
  H681     1.0000 0.43150  0.19531  0.44318  Biso   1.000  H
  H682     1.0000 0.80472  0.23622  0.44318  Biso   1.000  H
  C619     1.0000 0.75549  0.16539  0.55941  Biso   1.000  C
  C620     1.0000 0.75229  0.16071  0.33706  Biso   1.000  C
  N103     1.0000 0.52200  0.40292  0.13456  Biso   1.000  N
  H683     1.0000 0.55591  0.43189  0.29790  Biso   1.000  H
  C621     1.0000 0.48800  0.45541  0.26920  Biso   1.000  C
  H684     1.0000 0.64599  0.59278  0.24515  Biso   1.000  H
  H685     1.0000 0.62840  0.54300  0.34689  Biso   1.000  H
  C622     1.0000 0.56201  0.56512  0.31882  Biso   1.000  C
  N104     1.0000 0.85461  0.35521  0.15342  Biso   1.000  N
  H686     1.0000 0.93959  0.41982  0.11095  Biso   1.000  H
  C623     1.0000 0.94190  0.38729  0.27716  Biso   1.000  C
  C624     1.0000 0.99550  0.49051  0.36111  Biso   1.000  C
  H687     1.0000 0.99439  0.52849  0.19911  Biso   1.000  H
  H688     1.0000 0.96189  0.54448  0.30371  Biso   1.000  H
  C625     1.0000 0.33970  0.20549  0.33697  Biso   1.000  C
  H689     1.0000 0.41751  0.29002  0.33679  Biso   1.000  H
  H690     1.0000 0.42562  0.24091  0.26330  Biso   1.000  H
  C626     1.0000 0.34199  0.20288  0.56021  Biso   1.000  C
  N105     1.0000 0.43661  0.23518  0.66750  Biso   1.000  N
  H691     1.0000 0.41779  0.28691  0.56120  Biso   1.000  H
  N106     1.0000 0.76479  0.20139  0.66750  Biso   1.000  N
  H692     1.0000 0.71311  0.13088  0.56120  Biso   1.000  H
  C627     1.0000 0.79708  0.13908  0.56021  Biso   1.000  C
  C628     1.0000 0.79453  0.13422  0.33697  Biso   1.000  C
  H693     1.0000 0.71001  0.12750  0.33679  Biso   1.000  H
  H694     1.0000 0.75908  0.18468  0.26330  Biso   1.000  H
  C629     1.0000 0.53059  0.35940  0.15002  Biso   1.000  C
  C630     1.0000 0.50952  0.50502  0.36111  Biso   1.000  C
  H695     1.0000 0.47151  0.46591  0.19911  Biso   1.000  H
  H696     1.0000 0.45548  0.41738  0.30371  Biso   1.000  H
  H697     1.0000 0.54891  0.58129  0.25203  Biso   1.000  H
  H698     1.0000 0.57630  0.59472  0.38498  Biso   1.000  H
  C631     1.0000 0.84520  0.34030  0.04452  Biso   1.000  C
  H699     1.0000 0.94679  0.35399  0.24515  Biso   1.000  H
  H700     1.0000 0.91459  0.37161  0.34689  Biso   1.000  H
  C632     1.0000 0.00312  0.43802  0.31882  Biso   1.000  C
  H701     1.0000 0.96999  0.47789  0.43388  Biso   1.000  H
  H702     1.0000 0.03550  0.52448  0.38328  Biso   1.000  H
  C633     1.0000 0.31241  0.21302  0.45177  Biso   1.000  C
  H703     1.0000 0.32182  0.21491  0.26750  Biso   1.000  H
  H704     1.0000 0.33030  0.16319  0.32946  Biso   1.000  H
  H705     1.0000 0.32502  0.20991  0.63388  Biso   1.000  H
  H706     1.0000 0.33289  0.16048  0.56102  Biso   1.000  H
  C634     1.0000 0.45282  0.27362  0.74475  Biso   1.000  C
  C635     1.0000 0.72641  0.17918  0.74475  Biso   1.000  C
  H707     1.0000 0.79013  0.11511  0.63388  Biso   1.000  H
  H708     1.0000 0.83948  0.17238  0.56102  Biso   1.000  H
  C636     1.0000 0.78698  0.09939  0.45177  Biso   1.000  C
  H709     1.0000 0.78509  0.10691  0.26750  Biso   1.000  H
  H710     1.0000 0.83680  0.16711  0.32946  Biso   1.000  H
  C637     1.0000 0.51290  0.31052  0.06097  Biso   1.000  C
  H711     1.0000 0.54932  0.35760  0.22190  Biso   1.000  H
  H712     1.0000 0.52210  0.49208  0.43388  Biso   1.000  H
  H713     1.0000 0.47549  0.51101  0.38328  Biso   1.000  H
  C638     1.0000 0.78701  0.28470  0.00894  Biso   1.000  C
  H714     1.0000 0.87438  0.36368  0.98570  Biso   1.000  H
  H715     1.0000 0.03240  0.45109  0.25203  Biso   1.000  H
  H716     1.0000 0.01839  0.42369  0.38498  Biso   1.000  H
  H717     1.0000 0.26862  0.18382  0.45302  Biso   1.000  H
  H718     1.0000 0.31801  0.25411  0.45498  Biso   1.000  H
  H719     1.0000 0.44988  0.30840  0.72839  Biso   1.000  H
  C639     1.0000 0.47730  0.26952  0.86527  Biso   1.000  C
  H720     1.0000 0.69162  0.14152  0.72839  Biso   1.000  H
  C640     1.0000 0.73049  0.20779  0.86527  Biso   1.000  C
  H721     1.0000 0.81621  0.08479  0.45302  Biso   1.000  H
  H722     1.0000 0.74590  0.06389  0.45498  Biso   1.000  H
  C641     1.0000 0.49410  0.31529  0.94671  Biso   1.000  C
  C642     1.0000 0.51479  0.25929  0.09110  Biso   1.000  C
  C643     1.0000 0.78168  0.26249  0.89486  Biso   1.000  C
  C644     1.0000 0.74069  0.25550  0.09110  Biso   1.000  C
  C645     1.0000 0.48079  0.21829  0.89486  Biso   1.000  C
  C646     1.0000 0.68471  0.17882  0.94671  Biso   1.000  C
  H723     1.0000 0.49300  0.35048  0.92481  Biso   1.000  H
  C647     1.0000 0.49771  0.21302  0.00894  Biso   1.000  C
  H724     1.0000 0.52800  0.25582  0.16844  Biso   1.000  H
  H725     1.0000 0.81220  0.28389  0.83710  Biso   1.000  H
  C648     1.0000 0.68951  0.20238  0.06097  Biso   1.000  C
  H726     1.0000 0.74421  0.27222  0.16844  Biso   1.000  H
  H727     1.0000 0.47171  0.18779  0.83710  Biso   1.000  H
  H728     1.0000 0.64950  0.14251  0.92481  Biso   1.000  H
  C649     1.0000 0.49509  0.15481  0.04452  Biso   1.000  C
  C650     1.0000 0.64060  0.17121  0.15002  Biso   1.000  C
  H729     1.0000 0.48931  0.12561  0.98570  Biso   1.000  H
  N107     1.0000 0.50061  0.14539  0.15342  Biso   1.000  N
  N108     1.0000 0.59709  0.11908  0.13456  Biso   1.000  N
  H730     1.0000 0.64242  0.19171  0.22190  Biso   1.000  H
  C651     1.0000 0.49290  0.08650  0.18382  Biso   1.000  C
  C652     1.0000 0.55371  0.09552  0.22870  Biso   1.000  C
  H731     1.0000 0.48021  0.06042  0.11095  Biso   1.000  H
  C653     1.0000 0.44542  0.05812  0.27716  Biso   1.000  C
  H732     1.0000 0.56810  0.12399  0.29790  Biso   1.000  H
  C654     1.0000 0.54462  0.03262  0.26920  Biso   1.000  C
  C655     1.0000 0.43494  0.99689  0.31882  Biso   1.000  C
  H733     1.0000 0.40719  0.05321  0.24515  Biso   1.000  H
  H734     1.0000 0.45699  0.08538  0.34689  Biso   1.000  H
  C656     1.0000 0.49501  0.00451  0.36111  Biso   1.000  C
  H735     1.0000 0.53411  0.00559  0.19911  Biso   1.000  H
  H736     1.0000 0.58260  0.03812  0.30371  Biso   1.000  H
  H737     1.0000 0.41870  0.96761  0.25203  Biso   1.000  H
  H738     1.0000 0.40530  0.98162  0.38498  Biso   1.000  H
  H739     1.0000 0.48902  0.96450  0.38328  Biso   1.000  H
  H740     1.0000 0.50792  0.03001  0.43388  Biso   1.000  H
