data_image0
_cell_length_a       34.432
_cell_length_b       7.986
_cell_length_c       31.91
_cell_angle_alpha    90
_cell_angle_beta     116.98
_cell_angle_gamma    90

_symmetry_space_group_name_H-M    "P 1"
_symmetry_int_tables_number       1

loop_
  _symmetry_equiv_pos_as_xyz
  'x, y, z'

loop_
  _atom_site_label
  _atom_site_occupancy
  _atom_site_fract_x
  _atom_site_fract_y
  _atom_site_fract_z
  _atom_site_thermal_displace_type
  _atom_site_B_iso_or_equiv
  _atom_site_type_symbol
  O1       1.0000 0.27022  0.41034  0.56782  Biso   1.000  O
  C1       1.0000 0.30281  0.30278  0.56989  Biso   1.000  C
  C2       1.0000 0.28130  0.49549  0.61240  Biso   1.000  C
  O2       1.0000 0.34302  0.37891  0.58360  Biso   1.000  O
  C3       1.0000 0.30911  0.15865  0.60421  Biso   1.000  C
  H1       1.0000 0.29351  0.25495  0.53852  Biso   1.000  H
  C4       1.0000 0.29063  0.36627  0.65172  Biso   1.000  C
  C5       1.0000 0.24401  0.60894  0.60481  Biso   1.000  C
  H2       1.0000 0.30752  0.56336  0.62081  Biso   1.000  H
  C6       1.0000 0.35120  0.45968  0.54809  Biso   1.000  C
  O3       1.0000 0.27041  0.06474  0.58870  Biso   1.000  O
  C7       1.0000 0.32193  0.23065  0.65232  Biso   1.000  C
  H3       1.0000 0.33251  0.08565  0.60551  Biso   1.000  H
  O4       1.0000 0.31180  0.46143  0.69490  Biso   1.000  O
  H4       1.0000 0.26341  0.31668  0.64859  Biso   1.000  H
  H5       1.0000 0.23951  0.68695  0.58009  Biso   1.000  H
  H6       1.0000 0.21810  0.54370  0.59609  Biso   1.000  H
  H7       1.0000 0.25061  0.66930  0.63329  Biso   1.000  H
  C8       1.0000 0.38070  0.33834  0.53771  Biso   1.000  C
  C9       1.0000 0.37411  0.62159  0.56701  Biso   1.000  C
  H8       1.0000 0.32380  0.47884  0.51960  Biso   1.000  H
  H9       1.0000 0.25921  0.98322  0.56989  Biso   1.000  H
  O5       1.0000 0.32690  0.10168  0.68590  Biso   1.000  O
  H10      1.0000 0.35051  0.28350  0.66269  Biso   1.000  H
  C10      1.0000 0.28891  0.48798  0.72071  Biso   1.000  C
  O6       1.0000 0.39529  0.41948  0.50610  Biso   1.000  O
  C11      1.0000 0.35993  0.17769  0.51482  Biso   1.000  C
  H11      1.0000 0.40630  0.31267  0.56729  Biso   1.000  H
  C12      1.0000 0.38980  0.69271  0.53261  Biso   1.000  C
  O7       1.0000 0.34700  0.74030  0.57471  Biso   1.000  O
  H12      1.0000 0.39971  0.59955  0.59700  Biso   1.000  H
  H13      1.0000 0.29721  0.07926  0.67781  Biso   1.000  H
  C13      1.0000 0.30901  0.63849  0.75180  Biso   1.000  C
  O8       1.0000 0.29040  0.34460  0.74849  Biso   1.000  O
  H14      1.0000 0.25853  0.51302  0.69902  Biso   1.000  H
  C14      1.0000 0.41842  0.56737  0.52470  Biso   1.000  C
  H15      1.0000 0.38061  0.11094  0.50972  Biso   1.000  H
  H16      1.0000 0.35059  0.11796  0.53469  Biso   1.000  H
  H17      1.0000 0.35321  0.20048  0.48511  Biso   1.000  H
  O9       1.0000 0.35382  0.74017  0.48890  Biso   1.000  O
  H18      1.0000 0.40722  0.79301  0.54689  Biso   1.000  H
  H19      1.0000 0.31770  0.72239  0.56869  Biso   1.000  H
  O10      1.0000 0.28622  0.67756  0.77842  Biso   1.000  O
  C15      1.0000 0.35620  0.59892  0.78640  Biso   1.000  C
  H20      1.0000 0.30811  0.73504  0.73239  Biso   1.000  H
  C16      1.0000 0.33411  0.29614  0.78180  Biso   1.000  C
  O11      1.0000 0.45621  0.54433  0.56810  Biso   1.000  O
  H21      1.0000 0.42731  0.61445  0.50192  Biso   1.000  H
  H22      1.0000 0.33650  0.65089  0.47002  Biso   1.000  H
  H23      1.0000 0.26583  0.58878  0.76590  Biso   1.000  H
  O12      1.0000 0.37661  0.73316  0.81781  Biso   1.000  O
  C17      1.0000 0.35841  0.44328  0.81439  Biso   1.000  C
  H24      1.0000 0.37252  0.57764  0.76850  Biso   1.000  H
  C18      1.0000 0.32930  0.14488  0.80740  Biso   1.000  C
  H25      1.0000 0.35002  0.26296  0.76432  Biso   1.000  H
  C19      1.0000 0.49309  0.47408  0.56539  Biso   1.000  C
  H26      1.0000 0.37552  0.81768  0.80279  Biso   1.000  H
  O13      1.0000 0.40211  0.39106  0.84101  Biso   1.000  O
  H27      1.0000 0.34552  0.46669  0.83560  Biso   1.000  H
  H28      1.0000 0.31401  0.05835  0.78510  Biso   1.000  H
  H29      1.0000 0.35761  0.10493  0.82920  Biso   1.000  H
  H30      1.0000 0.31322  0.17518  0.82421  Biso   1.000  H
  C20      1.0000 0.50510  0.30491  0.59050  Biso   1.000  C
  C21      1.0000 0.53169  0.59442  0.58909  Biso   1.000  C
  H31      1.0000 0.48650  0.45930  0.53230  Biso   1.000  H
  C22      1.0000 0.41723  0.37365  0.89032  Biso   1.000  C
  C23      1.0000 0.54740  0.24205  0.59261  Biso   1.000  C
  O14      1.0000 0.47192  0.18395  0.56940  Biso   1.000  O
  H32      1.0000 0.50973  0.32194  0.62292  Biso   1.000  H
  O15      1.0000 0.56832  0.52567  0.58550  Biso   1.000  O
  C24      1.0000 0.52351  0.76672  0.56750  Biso   1.000  C
  H33      1.0000 0.53891  0.60468  0.62250  Biso   1.000  H
  C25      1.0000 0.45262  0.24205  0.90741  Biso   1.000  C
  O16      1.0000 0.43173  0.52567  0.91451  Biso   1.000  O
  H34      1.0000 0.39302  0.33246  0.89559  Biso   1.000  H
  C26      1.0000 0.58282  0.37365  0.60970  Biso   1.000  C
  O17      1.0000 0.53750  0.19058  0.54619  Biso   1.000  O
  H35      1.0000 0.55751  0.14488  0.61360  Biso   1.000  H
  H36      1.0000 0.48170  0.10155  0.56219  Biso   1.000  H
  H37      1.0000 0.54889  0.83509  0.58399  Biso   1.000  H
  H38      1.0000 0.51732  0.75808  0.53501  Biso   1.000  H
  H39      1.0000 0.49910  0.81655  0.56961  Biso   1.000  H
  O18      1.0000 0.46252  0.19058  0.95383  Biso   1.000  O
  C27      1.0000 0.49492  0.30491  0.90952  Biso   1.000  C
  H40      1.0000 0.44251  0.14488  0.88641  Biso   1.000  H
  C28      1.0000 0.46832  0.59442  0.91092  Biso   1.000  C
  O19      1.0000 0.59791  0.39106  0.65900  Biso   1.000  O
  H41      1.0000 0.60703  0.33246  0.60442  Biso   1.000  H
  H42      1.0000 0.56411  0.13862  0.55111  Biso   1.000  H
  H43      1.0000 0.43591  0.13862  0.94890  Biso   1.000  H
  O20      1.0000 0.52813  0.18395  0.93062  Biso   1.000  O
  C29      1.0000 0.50693  0.47408  0.93463  Biso   1.000  C
  H44      1.0000 0.49032  0.32194  0.87709  Biso   1.000  H
  C30      1.0000 0.47653  0.76672  0.93252  Biso   1.000  C
  H45      1.0000 0.46113  0.60468  0.87752  Biso   1.000  H
  C31      1.0000 0.64163  0.44328  0.68562  Biso   1.000  C
  H46      1.0000 0.51832  0.10155  0.93783  Biso   1.000  H
  O21      1.0000 0.54383  0.54433  0.93192  Biso   1.000  O
  H47      1.0000 0.51352  0.45930  0.96772  Biso   1.000  H
  H48      1.0000 0.45113  0.83509  0.91602  Biso   1.000  H
  H49      1.0000 0.48273  0.75808  0.96501  Biso   1.000  H
  H50      1.0000 0.50091  0.81655  0.93041  Biso   1.000  H
  C32      1.0000 0.64382  0.59892  0.71361  Biso   1.000  C
  C33      1.0000 0.66591  0.29614  0.71822  Biso   1.000  C
  H51      1.0000 0.65453  0.46669  0.66441  Biso   1.000  H
  C34      1.0000 0.58162  0.56737  0.97531  Biso   1.000  C
  C35      1.0000 0.69101  0.63849  0.74821  Biso   1.000  C
  O22      1.0000 0.62341  0.73316  0.68221  Biso   1.000  O
  H52      1.0000 0.62753  0.57764  0.73151  Biso   1.000  H
  O23      1.0000 0.70962  0.34460  0.75152  Biso   1.000  O
  C36      1.0000 0.67071  0.14488  0.69262  Biso   1.000  C
  H53      1.0000 0.65002  0.26296  0.73569  Biso   1.000  H
  C37      1.0000 0.61022  0.69271  0.96740  Biso   1.000  C
  O24      1.0000 0.60472  0.41948  0.99391  Biso   1.000  O
  H54      1.0000 0.57271  0.61445  0.99810  Biso   1.000  H
  C38      1.0000 0.71111  0.48798  0.77930  Biso   1.000  C
  O25      1.0000 0.71380  0.67756  0.72159  Biso   1.000  O
  H55      1.0000 0.69189  0.73504  0.76759  Biso   1.000  H
  H56      1.0000 0.62453  0.81768  0.69722  Biso   1.000  H
  H57      1.0000 0.68601  0.05835  0.71491  Biso   1.000  H
  H58      1.0000 0.64241  0.10493  0.67081  Biso   1.000  H
  H59      1.0000 0.68682  0.17518  0.67581  Biso   1.000  H
  C39      1.0000 0.62590  0.62159  0.93301  Biso   1.000  C
  H60      1.0000 0.59283  0.79301  0.95312  Biso   1.000  H
  O26      1.0000 0.64619  0.74017  0.01111  Biso   1.000  O
  C40      1.0000 0.61931  0.33834  0.96230  Biso   1.000  C
  O27      1.0000 0.68821  0.46143  0.80511  Biso   1.000  O
  H61      1.0000 0.74152  0.51302  0.80100  Biso   1.000  H
  H62      1.0000 0.73422  0.58878  0.73411  Biso   1.000  H
  C41      1.0000 0.64880  0.45968  0.95189  Biso   1.000  C
  O28      1.0000 0.65301  0.74030  0.92531  Biso   1.000  O
  H63      1.0000 0.60031  0.59955  0.90301  Biso   1.000  H
  H64      1.0000 0.66349  0.65089  0.02999  Biso   1.000  H
  C42      1.0000 0.64012  0.17769  0.98519  Biso   1.000  C
  H65      1.0000 0.59371  0.31267  0.93269  Biso   1.000  H
  C43      1.0000 0.70942  0.36627  0.84829  Biso   1.000  C
  O29      1.0000 0.65703  0.37891  0.91641  Biso   1.000  O
  H66      1.0000 0.67621  0.47884  0.98041  Biso   1.000  H
  H67      1.0000 0.68232  0.72239  0.93132  Biso   1.000  H
  H68      1.0000 0.61941  0.11094  0.99029  Biso   1.000  H
  H69      1.0000 0.64942  0.11796  0.96532  Biso   1.000  H
  H70      1.0000 0.64680  0.20048  0.01491  Biso   1.000  H
  C44      1.0000 0.67812  0.23065  0.84770  Biso   1.000  C
  C45      1.0000 0.71872  0.49549  0.88761  Biso   1.000  C
  H71      1.0000 0.73661  0.31668  0.85142  Biso   1.000  H
  C46      1.0000 0.69721  0.30278  0.93012  Biso   1.000  C
  C47      1.0000 0.69091  0.15865  0.89580  Biso   1.000  C
  O30      1.0000 0.67312  0.10168  0.81411  Biso   1.000  O
  H72      1.0000 0.64951  0.28350  0.83732  Biso   1.000  H
  O31      1.0000 0.72983  0.41034  0.93220  Biso   1.000  O
  C48      1.0000 0.75601  0.60894  0.89520  Biso   1.000  C
  H73      1.0000 0.69250  0.56336  0.87920  Biso   1.000  H
  H74      1.0000 0.70651  0.25495  0.96149  Biso   1.000  H
  O32      1.0000 0.72961  0.06474  0.91131  Biso   1.000  O
  H75      1.0000 0.66751  0.08565  0.89450  Biso   1.000  H
  H76      1.0000 0.70280  0.07926  0.82220  Biso   1.000  H
  H77      1.0000 0.76052  0.68695  0.91989  Biso   1.000  H
  H78      1.0000 0.78190  0.54370  0.90389  Biso   1.000  H
  H79      1.0000 0.74943  0.66930  0.86672  Biso   1.000  H
  H80      1.0000 0.74083  0.98322  0.93012  Biso   1.000  H
  O33      1.0000 0.22959  0.43526  0.41129  Biso   1.000  O
  C49      1.0000 0.19089  0.34135  0.39579  Biso   1.000  C
  H81      1.0000 0.24081  0.51678  0.43011  Biso   1.000  H
  C50      1.0000 0.17811  0.26935  0.34772  Biso   1.000  C
  C51      1.0000 0.19722  0.19722  0.43011  Biso   1.000  C
  H82      1.0000 0.16750  0.41435  0.39452  Biso   1.000  H
  C52      1.0000 0.20941  0.13373  0.34831  Biso   1.000  C
  O34      1.0000 0.17310  0.39832  0.31410  Biso   1.000  O
  H83      1.0000 0.14952  0.21650  0.33731  Biso   1.000  H
  O35      1.0000 0.22982  0.08966  0.43222  Biso   1.000  O
  O36      1.0000 0.15701  0.12109  0.41639  Biso   1.000  O
  H84      1.0000 0.20650  0.24505  0.46151  Biso   1.000  H
  O37      1.0000 0.18819  0.03857  0.30509  Biso   1.000  O
  C53      1.0000 0.21870  0.00451  0.38759  Biso   1.000  C
  H85      1.0000 0.23662  0.18332  0.35141  Biso   1.000  H
  H86      1.0000 0.20283  0.42074  0.32222  Biso   1.000  H
  C54      1.0000 0.14882  0.04032  0.45191  Biso   1.000  C
  C55      1.0000 0.21110  0.01202  0.27932  Biso   1.000  C
  C56      1.0000 0.25601  0.89106  0.39519  Biso   1.000  C
  H87      1.0000 0.19251  0.93664  0.37919  Biso   1.000  H
  C57      1.0000 0.11931  0.16166  0.46232  Biso   1.000  C
  H88      1.0000 0.17619  0.02116  0.48039  Biso   1.000  H
  C58      1.0000 0.12591  0.87841  0.43299  Biso   1.000  C
  O38      1.0000 0.20960  0.15540  0.25150  Biso   1.000  O
  C59      1.0000 0.19099  0.86151  0.24820  Biso   1.000  C
  H89      1.0000 0.24151  0.98698  0.30102  Biso   1.000  H
  H90      1.0000 0.26051  0.81305  0.41991  Biso   1.000  H
  H91      1.0000 0.28190  0.95630  0.40391  Biso   1.000  H
  H92      1.0000 0.24941  0.83070  0.36670  Biso   1.000  H
  O39      1.0000 0.10470  0.08052  0.49390  Biso   1.000  O
  C60      1.0000 0.14011  0.32231  0.48521  Biso   1.000  C
  H93      1.0000 0.09370  0.18733  0.43271  Biso   1.000  H
  C61      1.0000 0.11021  0.80729  0.46742  Biso   1.000  C
  O40      1.0000 0.15299  0.75970  0.42529  Biso   1.000  O
  H94      1.0000 0.10032  0.90045  0.40300  Biso   1.000  H
  C62      1.0000 0.16592  0.20386  0.21820  Biso   1.000  C
  O41      1.0000 0.21382  0.82244  0.22161  Biso   1.000  O
  C63      1.0000 0.14380  0.90108  0.21359  Biso   1.000  C
  H95      1.0000 0.19192  0.76496  0.26761  Biso   1.000  H
  C64      1.0000 0.08160  0.93263  0.47530  Biso   1.000  C
  H96      1.0000 0.11940  0.38906  0.49031  Biso   1.000  H
  H97      1.0000 0.14940  0.38204  0.46531  Biso   1.000  H
  H98      1.0000 0.14681  0.29952  0.51489  Biso   1.000  H
  O42      1.0000 0.14620  0.75983  0.51109  Biso   1.000  O
  H99      1.0000 0.09281  0.70699  0.45311  Biso   1.000  H
  H100     1.0000 0.18230  0.77761  0.43130  Biso   1.000  H
  C65      1.0000 0.14161  0.05672  0.18560  Biso   1.000  C
  C66      1.0000 0.17069  0.35512  0.19260  Biso   1.000  C
  H101     1.0000 0.15002  0.23704  0.23571  Biso   1.000  H
  H102     1.0000 0.23420  0.91122  0.23410  Biso   1.000  H
  O43      1.0000 0.12339  0.76684  0.18219  Biso   1.000  O
  H103     1.0000 0.12751  0.92236  0.23149  Biso   1.000  H
  O44      1.0000 0.04381  0.95567  0.43190  Biso   1.000  O
  H104     1.0000 0.07273  0.88555  0.49812  Biso   1.000  H
  H105     1.0000 0.16351  0.84911  0.53001  Biso   1.000  H
  O45      1.0000 0.09791  0.10894  0.15902  Biso   1.000  O
  H106     1.0000 0.15451  0.03331  0.16440  Biso   1.000  H
  H107     1.0000 0.18599  0.44165  0.21490  Biso   1.000  H
  H108     1.0000 0.14241  0.39507  0.17080  Biso   1.000  H
  H109     1.0000 0.18680  0.32482  0.17579  Biso   1.000  H
  H110     1.0000 0.12450  0.68232  0.19721  Biso   1.000  H
  C67      1.0000 0.00691  0.02592  0.43461  Biso   1.000  C
  C68      1.0000 0.08281  0.12635  0.10972  Biso   1.000  C
  H111     1.0000 0.01350  0.04070  0.46770  Biso   1.000  H
  C69      1.0000 0.96830  0.90558  0.41091  Biso   1.000  C
  C70      1.0000 0.99490  0.19509  0.40950  Biso   1.000  C
  C71      1.0000 0.04741  0.25795  0.09259  Biso   1.000  C
  H112     1.0000 0.10701  0.16754  0.10441  Biso   1.000  H
  O46      1.0000 0.06830  0.97433  0.08549  Biso   1.000  O
  O47      1.0000 0.93171  0.97433  0.41449  Biso   1.000  O
  C72      1.0000 0.97651  0.73328  0.43250  Biso   1.000  C
  H113     1.0000 0.96111  0.89532  0.37750  Biso   1.000  H
  O48      1.0000 0.02811  0.31605  0.43060  Biso   1.000  O
  C73      1.0000 0.95260  0.25795  0.40739  Biso   1.000  C
  H114     1.0000 0.99031  0.17806  0.37711  Biso   1.000  H
  O49      1.0000 0.03749  0.30942  0.04621  Biso   1.000  O
  C74      1.0000 0.00509  0.19509  0.09052  Biso   1.000  C
  H115     1.0000 0.05749  0.35512  0.11358  Biso   1.000  H
  C75      1.0000 0.03172  0.90558  0.08911  Biso   1.000  C
  C76      1.0000 0.91721  0.12635  0.39030  Biso   1.000  C
  H116     1.0000 0.95111  0.66491  0.41601  Biso   1.000  H
  H117     1.0000 0.98271  0.74192  0.46499  Biso   1.000  H
  H118     1.0000 0.00089  0.68345  0.43039  Biso   1.000  H
  H119     1.0000 0.01830  0.39845  0.43781  Biso   1.000  H
  O50      1.0000 0.96250  0.30942  0.45381  Biso   1.000  O
  H120     1.0000 0.94249  0.35512  0.38640  Biso   1.000  H
  H121     1.0000 0.06409  0.36138  0.05110  Biso   1.000  H
  H122     1.0000 0.00971  0.17806  0.12290  Biso   1.000  H
  O51      1.0000 0.97191  0.31605  0.06942  Biso   1.000  O
  C77      1.0000 0.99311  0.02592  0.06541  Biso   1.000  C
  C78      1.0000 0.02351  0.73328  0.06752  Biso   1.000  C
  H123     1.0000 0.03891  0.89532  0.12252  Biso   1.000  H
  O52      1.0000 0.90211  0.10894  0.34100  Biso   1.000  O
  H124     1.0000 0.89301  0.16754  0.39561  Biso   1.000  H
  H125     1.0000 0.93590  0.36138  0.44892  Biso   1.000  H
  H126     1.0000 0.98169  0.39845  0.06221  Biso   1.000  H
  O53      1.0000 0.95621  0.95567  0.06812  Biso   1.000  O
  H127     1.0000 0.98652  0.04070  0.03232  Biso   1.000  H
  H128     1.0000 0.99908  0.68345  0.06959  Biso   1.000  H
  H129     1.0000 0.04891  0.66491  0.08401  Biso   1.000  H
  H130     1.0000 0.01730  0.74192  0.03499  Biso   1.000  H
  C79      1.0000 0.85841  0.05672  0.31441  Biso   1.000  C
  C80      1.0000 0.91840  0.93263  0.02469  Biso   1.000  C
  C81      1.0000 0.85621  0.90108  0.28639  Biso   1.000  C
  C82      1.0000 0.83410  0.20386  0.28182  Biso   1.000  C
  H131     1.0000 0.84551  0.03331  0.33562  Biso   1.000  H
  C83      1.0000 0.88981  0.80729  0.03260  Biso   1.000  C
  H132     1.0000 0.92729  0.88555  0.00190  Biso   1.000  H
  O54      1.0000 0.89530  0.08052  0.00608  Biso   1.000  O
  C84      1.0000 0.80900  0.86151  0.25182  Biso   1.000  C
  O55      1.0000 0.87659  0.76684  0.31779  Biso   1.000  O
  H133     1.0000 0.87250  0.92236  0.26849  Biso   1.000  H
  O56      1.0000 0.79042  0.15540  0.24851  Biso   1.000  O
  C85      1.0000 0.82930  0.35512  0.30742  Biso   1.000  C
  H134     1.0000 0.85000  0.23704  0.26430  Biso   1.000  H
  O57      1.0000 0.85383  0.75983  0.98889  Biso   1.000  O
  C86      1.0000 0.87409  0.87841  0.06699  Biso   1.000  C
  H135     1.0000 0.90721  0.70699  0.04691  Biso   1.000  H
  C87      1.0000 0.88071  0.16166  0.03770  Biso   1.000  C
  C88      1.0000 0.78889  0.01202  0.22070  Biso   1.000  C
  O58      1.0000 0.78620  0.82244  0.27840  Biso   1.000  O
  H136     1.0000 0.80810  0.76496  0.23241  Biso   1.000  H
  H137     1.0000 0.87552  0.68232  0.30281  Biso   1.000  H
  H138     1.0000 0.81399  0.44165  0.28509  Biso   1.000  H
  H139     1.0000 0.85761  0.39507  0.32922  Biso   1.000  H
  H140     1.0000 0.81320  0.32482  0.32419  Biso   1.000  H
  H141     1.0000 0.83654  0.84911  0.97000  Biso   1.000  H
  O59      1.0000 0.84701  0.75970  0.07469  Biso   1.000  O
  H142     1.0000 0.89969  0.90045  0.09699  Biso   1.000  H
  C89      1.0000 0.85120  0.04032  0.04811  Biso   1.000  C
  C90      1.0000 0.85991  0.32231  0.01480  Biso   1.000  C
  H143     1.0000 0.90629  0.18733  0.06731  Biso   1.000  H
  O60      1.0000 0.81178  0.03857  0.19489  Biso   1.000  O
  H144     1.0000 0.75851  0.98698  0.19900  Biso   1.000  H
  H145     1.0000 0.76581  0.91122  0.26589  Biso   1.000  H
  H146     1.0000 0.81772  0.77761  0.06871  Biso   1.000  H
  O61      1.0000 0.84300  0.12109  0.08359  Biso   1.000  O
  H147     1.0000 0.82378  0.02116  0.01959  Biso   1.000  H
  H148     1.0000 0.85322  0.29952  0.98509  Biso   1.000  H
  H149     1.0000 0.88059  0.38906  0.00971  Biso   1.000  H
  H150     1.0000 0.85062  0.38204  0.03471  Biso   1.000  H
  C91      1.0000 0.79061  0.13373  0.15170  Biso   1.000  C
  C92      1.0000 0.80280  0.19722  0.06991  Biso   1.000  C
  C93      1.0000 0.82191  0.26935  0.15230  Biso   1.000  C
  C94      1.0000 0.78131  0.00451  0.11239  Biso   1.000  C
  H151     1.0000 0.76340  0.18332  0.14861  Biso   1.000  H
  C95      1.0000 0.80909  0.34135  0.10419  Biso   1.000  C
  O62      1.0000 0.77020  0.08966  0.06780  Biso   1.000  O
  H152     1.0000 0.79349  0.24505  0.03851  Biso   1.000  H
  O63      1.0000 0.82691  0.39832  0.18588  Biso   1.000  O
  H153     1.0000 0.85050  0.21650  0.16271  Biso   1.000  H
  C96      1.0000 0.74399  0.89106  0.10479  Biso   1.000  C
  H154     1.0000 0.80750  0.93664  0.12079  Biso   1.000  H
  O64      1.0000 0.77039  0.43526  0.08869  Biso   1.000  O
  H155     1.0000 0.83249  0.41435  0.10550  Biso   1.000  H
  H156     1.0000 0.79719  0.42074  0.17780  Biso   1.000  H
  H157     1.0000 0.73951  0.81305  0.08011  Biso   1.000  H
  H158     1.0000 0.71809  0.95630  0.09611  Biso   1.000  H
  H159     1.0000 0.75061  0.83070  0.13331  Biso   1.000  H
  H160     1.0000 0.75921  0.51678  0.06991  Biso   1.000  H
  O65      1.0000 0.22959  0.43526  0.41129  Biso   1.000  O
  C97      1.0000 0.19089  0.34135  0.39579  Biso   1.000  C
  H161     1.0000 0.24081  0.51678  0.43011  Biso   1.000  H
  C98      1.0000 0.17811  0.26935  0.34772  Biso   1.000  C
  C99      1.0000 0.19722  0.19722  0.43011  Biso   1.000  C
  H162     1.0000 0.16750  0.41435  0.39452  Biso   1.000  H
  C100     1.0000 0.20941  0.13373  0.34831  Biso   1.000  C
  O66      1.0000 0.17310  0.39832  0.31410  Biso   1.000  O
  H163     1.0000 0.14952  0.21650  0.33731  Biso   1.000  H
  O67      1.0000 0.22982  0.08966  0.43222  Biso   1.000  O
  O68      1.0000 0.15701  0.12109  0.41639  Biso   1.000  O
  H164     1.0000 0.20650  0.24505  0.46151  Biso   1.000  H
  O69      1.0000 0.18819  0.03857  0.30509  Biso   1.000  O
  C101     1.0000 0.21870  0.00451  0.38759  Biso   1.000  C
  H165     1.0000 0.23662  0.18332  0.35141  Biso   1.000  H
  H166     1.0000 0.20283  0.42074  0.32222  Biso   1.000  H
  C102     1.0000 0.14882  0.04032  0.45191  Biso   1.000  C
  C103     1.0000 0.21110  0.01202  0.27932  Biso   1.000  C
  C104     1.0000 0.25601  0.89106  0.39519  Biso   1.000  C
  H167     1.0000 0.19251  0.93664  0.37919  Biso   1.000  H
  C105     1.0000 0.11931  0.16166  0.46232  Biso   1.000  C
  H168     1.0000 0.17619  0.02116  0.48039  Biso   1.000  H
  C106     1.0000 0.12591  0.87841  0.43299  Biso   1.000  C
  O70      1.0000 0.20960  0.15540  0.25150  Biso   1.000  O
  C107     1.0000 0.19099  0.86151  0.24820  Biso   1.000  C
  H169     1.0000 0.24151  0.98698  0.30102  Biso   1.000  H
  H170     1.0000 0.26051  0.81305  0.41991  Biso   1.000  H
  H171     1.0000 0.28190  0.95630  0.40391  Biso   1.000  H
  H172     1.0000 0.24941  0.83070  0.36670  Biso   1.000  H
  O71      1.0000 0.10470  0.08052  0.49390  Biso   1.000  O
  C108     1.0000 0.14011  0.32231  0.48521  Biso   1.000  C
  H173     1.0000 0.09370  0.18733  0.43271  Biso   1.000  H
  C109     1.0000 0.11021  0.80729  0.46742  Biso   1.000  C
  O72      1.0000 0.15299  0.75970  0.42529  Biso   1.000  O
  H174     1.0000 0.10032  0.90045  0.40300  Biso   1.000  H
  C110     1.0000 0.16592  0.20386  0.21820  Biso   1.000  C
  O73      1.0000 0.21382  0.82244  0.22161  Biso   1.000  O
  C111     1.0000 0.14380  0.90108  0.21359  Biso   1.000  C
  H175     1.0000 0.19192  0.76496  0.26761  Biso   1.000  H
  C112     1.0000 0.08160  0.93263  0.47530  Biso   1.000  C
  H176     1.0000 0.11940  0.38906  0.49031  Biso   1.000  H
  H177     1.0000 0.14940  0.38204  0.46531  Biso   1.000  H
  H178     1.0000 0.14681  0.29952  0.51489  Biso   1.000  H
  O74      1.0000 0.14620  0.75983  0.51109  Biso   1.000  O
  H179     1.0000 0.09281  0.70699  0.45311  Biso   1.000  H
  H180     1.0000 0.18230  0.77761  0.43130  Biso   1.000  H
  C113     1.0000 0.14161  0.05672  0.18560  Biso   1.000  C
  C114     1.0000 0.17069  0.35512  0.19260  Biso   1.000  C
  H181     1.0000 0.15002  0.23704  0.23571  Biso   1.000  H
  H182     1.0000 0.23420  0.91122  0.23410  Biso   1.000  H
  O75      1.0000 0.12339  0.76684  0.18219  Biso   1.000  O
  H183     1.0000 0.12751  0.92236  0.23149  Biso   1.000  H
  O76      1.0000 0.04381  0.95567  0.43190  Biso   1.000  O
  H184     1.0000 0.07273  0.88555  0.49812  Biso   1.000  H
  H185     1.0000 0.16351  0.84911  0.53001  Biso   1.000  H
  O77      1.0000 0.09791  0.10894  0.15902  Biso   1.000  O
  H186     1.0000 0.15451  0.03331  0.16440  Biso   1.000  H
  H187     1.0000 0.18599  0.44165  0.21490  Biso   1.000  H
  H188     1.0000 0.14241  0.39507  0.17080  Biso   1.000  H
  H189     1.0000 0.18680  0.32482  0.17579  Biso   1.000  H
  H190     1.0000 0.12450  0.68232  0.19721  Biso   1.000  H
  C115     1.0000 0.00691  0.02592  0.43461  Biso   1.000  C
  C116     1.0000 0.08281  0.12635  0.10972  Biso   1.000  C
  H191     1.0000 0.01350  0.04070  0.46770  Biso   1.000  H
  C117     1.0000 0.96830  0.90558  0.41091  Biso   1.000  C
  C118     1.0000 0.99490  0.19509  0.40950  Biso   1.000  C
  C119     1.0000 0.04741  0.25795  0.09259  Biso   1.000  C
  H192     1.0000 0.10701  0.16754  0.10441  Biso   1.000  H
  O78      1.0000 0.06830  0.97433  0.08549  Biso   1.000  O
  O79      1.0000 0.93171  0.97433  0.41449  Biso   1.000  O
  C120     1.0000 0.97651  0.73328  0.43250  Biso   1.000  C
  H193     1.0000 0.96111  0.89532  0.37750  Biso   1.000  H
  O80      1.0000 0.02811  0.31605  0.43060  Biso   1.000  O
  C121     1.0000 0.95260  0.25795  0.40739  Biso   1.000  C
  H194     1.0000 0.99031  0.17806  0.37711  Biso   1.000  H
  O81      1.0000 0.03749  0.30942  0.04621  Biso   1.000  O
  C122     1.0000 0.00509  0.19509  0.09052  Biso   1.000  C
  H195     1.0000 0.05749  0.35512  0.11358  Biso   1.000  H
  C123     1.0000 0.03172  0.90558  0.08911  Biso   1.000  C
  C124     1.0000 0.91721  0.12635  0.39030  Biso   1.000  C
  H196     1.0000 0.95111  0.66491  0.41601  Biso   1.000  H
  H197     1.0000 0.98271  0.74192  0.46499  Biso   1.000  H
  H198     1.0000 0.00089  0.68345  0.43039  Biso   1.000  H
  H199     1.0000 0.01830  0.39845  0.43781  Biso   1.000  H
  O82      1.0000 0.96250  0.30942  0.45381  Biso   1.000  O
  H200     1.0000 0.94249  0.35512  0.38640  Biso   1.000  H
  H201     1.0000 0.06409  0.36138  0.05110  Biso   1.000  H
  H202     1.0000 0.00971  0.17806  0.12290  Biso   1.000  H
  O83      1.0000 0.97191  0.31605  0.06942  Biso   1.000  O
  C125     1.0000 0.99311  0.02592  0.06541  Biso   1.000  C
  C126     1.0000 0.02351  0.73328  0.06752  Biso   1.000  C
  H203     1.0000 0.03891  0.89532  0.12252  Biso   1.000  H
  O84      1.0000 0.90211  0.10894  0.34100  Biso   1.000  O
  H204     1.0000 0.89301  0.16754  0.39561  Biso   1.000  H
  H205     1.0000 0.93590  0.36138  0.44892  Biso   1.000  H
  H206     1.0000 0.98169  0.39845  0.06221  Biso   1.000  H
  O85      1.0000 0.95621  0.95567  0.06812  Biso   1.000  O
  H207     1.0000 0.98652  0.04070  0.03232  Biso   1.000  H
  H208     1.0000 0.99908  0.68345  0.06959  Biso   1.000  H
  H209     1.0000 0.04891  0.66491  0.08401  Biso   1.000  H
  H210     1.0000 0.01730  0.74192  0.03499  Biso   1.000  H
  C127     1.0000 0.85841  0.05672  0.31441  Biso   1.000  C
  C128     1.0000 0.91840  0.93263  0.02469  Biso   1.000  C
  C129     1.0000 0.85621  0.90108  0.28639  Biso   1.000  C
  C130     1.0000 0.83410  0.20386  0.28182  Biso   1.000  C
  H211     1.0000 0.84551  0.03331  0.33562  Biso   1.000  H
  C131     1.0000 0.88981  0.80729  0.03260  Biso   1.000  C
  H212     1.0000 0.92729  0.88555  0.00190  Biso   1.000  H
  O86      1.0000 0.89530  0.08052  0.00608  Biso   1.000  O
  C132     1.0000 0.80900  0.86151  0.25182  Biso   1.000  C
  O87      1.0000 0.87659  0.76684  0.31779  Biso   1.000  O
  H213     1.0000 0.87250  0.92236  0.26849  Biso   1.000  H
  O88      1.0000 0.79042  0.15540  0.24851  Biso   1.000  O
  C133     1.0000 0.82930  0.35512  0.30742  Biso   1.000  C
  H214     1.0000 0.85000  0.23704  0.26430  Biso   1.000  H
  O89      1.0000 0.85383  0.75983  0.98889  Biso   1.000  O
  C134     1.0000 0.87409  0.87841  0.06699  Biso   1.000  C
  H215     1.0000 0.90721  0.70699  0.04691  Biso   1.000  H
  C135     1.0000 0.88071  0.16166  0.03770  Biso   1.000  C
  C136     1.0000 0.78889  0.01202  0.22070  Biso   1.000  C
  O90      1.0000 0.78620  0.82244  0.27840  Biso   1.000  O
  H216     1.0000 0.80810  0.76496  0.23241  Biso   1.000  H
  H217     1.0000 0.87552  0.68232  0.30281  Biso   1.000  H
  H218     1.0000 0.81399  0.44165  0.28509  Biso   1.000  H
  H219     1.0000 0.85761  0.39507  0.32922  Biso   1.000  H
  H220     1.0000 0.81320  0.32482  0.32419  Biso   1.000  H
  H221     1.0000 0.83654  0.84911  0.97000  Biso   1.000  H
  O91      1.0000 0.84701  0.75970  0.07469  Biso   1.000  O
  H222     1.0000 0.89969  0.90045  0.09699  Biso   1.000  H
  C137     1.0000 0.85120  0.04032  0.04811  Biso   1.000  C
  C138     1.0000 0.85991  0.32231  0.01480  Biso   1.000  C
  H223     1.0000 0.90629  0.18733  0.06731  Biso   1.000  H
  O92      1.0000 0.81178  0.03857  0.19489  Biso   1.000  O
  H224     1.0000 0.75851  0.98698  0.19900  Biso   1.000  H
  H225     1.0000 0.76581  0.91122  0.26589  Biso   1.000  H
  H226     1.0000 0.81772  0.77761  0.06871  Biso   1.000  H
  O93      1.0000 0.84300  0.12109  0.08359  Biso   1.000  O
  H227     1.0000 0.82378  0.02116  0.01959  Biso   1.000  H
  H228     1.0000 0.85322  0.29952  0.98509  Biso   1.000  H
  H229     1.0000 0.88059  0.38906  0.00971  Biso   1.000  H
  H230     1.0000 0.85062  0.38204  0.03471  Biso   1.000  H
  C139     1.0000 0.79061  0.13373  0.15170  Biso   1.000  C
  C140     1.0000 0.80280  0.19722  0.06991  Biso   1.000  C
  C141     1.0000 0.82191  0.26935  0.15230  Biso   1.000  C
  C142     1.0000 0.78131  0.00451  0.11239  Biso   1.000  C
  H231     1.0000 0.76340  0.18332  0.14861  Biso   1.000  H
  C143     1.0000 0.80909  0.34135  0.10419  Biso   1.000  C
  O94      1.0000 0.77020  0.08966  0.06780  Biso   1.000  O
  H232     1.0000 0.79349  0.24505  0.03851  Biso   1.000  H
  O95      1.0000 0.82691  0.39832  0.18588  Biso   1.000  O
  H233     1.0000 0.85050  0.21650  0.16271  Biso   1.000  H
  C144     1.0000 0.74399  0.89106  0.10479  Biso   1.000  C
  H234     1.0000 0.80750  0.93664  0.12079  Biso   1.000  H
  O96      1.0000 0.77039  0.43526  0.08869  Biso   1.000  O
  H235     1.0000 0.83249  0.41435  0.10550  Biso   1.000  H
  H236     1.0000 0.79719  0.42074  0.17780  Biso   1.000  H
  H237     1.0000 0.73951  0.81305  0.08011  Biso   1.000  H
  H238     1.0000 0.71809  0.95630  0.09611  Biso   1.000  H
  H239     1.0000 0.75061  0.83070  0.13331  Biso   1.000  H
  H240     1.0000 0.75921  0.51678  0.06991  Biso   1.000  H
  C145     1.0000 0.17071  0.64488  0.69262  Biso   1.000  C
  C146     1.0000 0.16591  0.79614  0.71822  Biso   1.000  C
  H241     1.0000 0.18601  0.55835  0.71491  Biso   1.000  H
  H242     1.0000 0.14241  0.60493  0.67081  Biso   1.000  H
  H243     1.0000 0.18682  0.67518  0.67581  Biso   1.000  H
  C147     1.0000 0.14163  0.94328  0.68562  Biso   1.000  C
  O97      1.0000 0.20962  0.84460  0.75152  Biso   1.000  O
  H244     1.0000 0.15002  0.76296  0.73569  Biso   1.000  H
  O98      1.0000 0.09791  0.89106  0.65900  Biso   1.000  O
  H245     1.0000 0.15453  0.96669  0.66441  Biso   1.000  H
  C148     1.0000 0.14382  0.09892  0.71361  Biso   1.000  C
  C149     1.0000 0.21111  0.98798  0.77930  Biso   1.000  C
  C150     1.0000 0.08282  0.87365  0.60970  Biso   1.000  C
  C151     1.0000 0.19101  0.13849  0.74821  Biso   1.000  C
  O99      1.0000 0.12341  0.23316  0.68221  Biso   1.000  O
  H246     1.0000 0.12753  0.07764  0.73151  Biso   1.000  H
  O100     1.0000 0.18821  0.96143  0.80511  Biso   1.000  O
  H247     1.0000 0.24152  0.01302  0.80100  Biso   1.000  H
  C152     1.0000 0.04740  0.74205  0.59261  Biso   1.000  C
  H248     1.0000 0.10703  0.83246  0.60442  Biso   1.000  H
  O101     1.0000 0.06832  0.02567  0.58550  Biso   1.000  O
  O102     1.0000 0.21380  0.17756  0.72159  Biso   1.000  O
  H249     1.0000 0.19189  0.23504  0.76759  Biso   1.000  H
  H250     1.0000 0.12453  0.31768  0.69722  Biso   1.000  H
  C153     1.0000 0.20942  0.86627  0.84829  Biso   1.000  C
  O103     1.0000 0.03750  0.69058  0.54619  Biso   1.000  O
  C154     1.0000 0.00510  0.80491  0.59050  Biso   1.000  C
  H251     1.0000 0.05751  0.64488  0.61360  Biso   1.000  H
  C155     1.0000 0.03169  0.09442  0.58909  Biso   1.000  C
  H252     1.0000 0.23422  0.08878  0.73411  Biso   1.000  H
  C156     1.0000 0.17812  0.73065  0.84770  Biso   1.000  C
  C157     1.0000 0.21872  0.99549  0.88761  Biso   1.000  C
  H253     1.0000 0.23661  0.81668  0.85142  Biso   1.000  H
  H254     1.0000 0.06411  0.63862  0.55111  Biso   1.000  H
  H255     1.0000 0.00973  0.82194  0.62292  Biso   1.000  H
  O104     1.0000 0.97192  0.68395  0.56940  Biso   1.000  O
  C158     1.0000 0.99309  0.97408  0.56539  Biso   1.000  C
  C159     1.0000 0.02351  0.26672  0.56750  Biso   1.000  C
  H256     1.0000 0.03891  0.10468  0.62250  Biso   1.000  H
  C160     1.0000 0.19091  0.65865  0.89580  Biso   1.000  C
  O105     1.0000 0.17312  0.60168  0.81411  Biso   1.000  O
  H257     1.0000 0.14951  0.78350  0.83732  Biso   1.000  H
  O106     1.0000 0.22983  0.91034  0.93220  Biso   1.000  O
  C161     1.0000 0.25601  0.10894  0.89520  Biso   1.000  C
  H258     1.0000 0.19250  0.06336  0.87920  Biso   1.000  H
  H259     1.0000 0.98170  0.60155  0.56219  Biso   1.000  H
  H260     1.0000 0.98650  0.95930  0.53230  Biso   1.000  H
  O107     1.0000 0.95621  0.04433  0.56810  Biso   1.000  O
  H261     1.0000 0.99910  0.31655  0.56961  Biso   1.000  H
  H262     1.0000 0.04889  0.33509  0.58399  Biso   1.000  H
  H263     1.0000 0.01732  0.25808  0.53501  Biso   1.000  H
  C162     1.0000 0.19721  0.80278  0.93012  Biso   1.000  C
  O108     1.0000 0.22961  0.56474  0.91131  Biso   1.000  O
  H264     1.0000 0.16751  0.58565  0.89450  Biso   1.000  H
  H265     1.0000 0.20280  0.57926  0.82220  Biso   1.000  H
  H266     1.0000 0.26052  0.18695  0.91989  Biso   1.000  H
  H267     1.0000 0.28190  0.04370  0.90389  Biso   1.000  H
  H268     1.0000 0.24943  0.16930  0.86672  Biso   1.000  H
  C163     1.0000 0.91842  0.06737  0.52470  Biso   1.000  C
  O109     1.0000 0.15703  0.87891  0.91641  Biso   1.000  O
  H269     1.0000 0.20651  0.75495  0.96149  Biso   1.000  H
  H270     1.0000 0.24083  0.48322  0.93012  Biso   1.000  H
  O110     1.0000 0.89529  0.91948  0.50610  Biso   1.000  O
  C164     1.0000 0.88980  0.19271  0.53261  Biso   1.000  C
  H271     1.0000 0.92731  0.11445  0.50192  Biso   1.000  H
  C165     1.0000 0.14880  0.95968  0.95189  Biso   1.000  C
  C166     1.0000 0.88070  0.83834  0.53771  Biso   1.000  C
  O111     1.0000 0.85382  0.24017  0.48890  Biso   1.000  O
  C167     1.0000 0.87411  0.12159  0.56701  Biso   1.000  C
  H272     1.0000 0.90722  0.29301  0.54689  Biso   1.000  H
  C168     1.0000 0.11931  0.83834  0.96230  Biso   1.000  C
  H273     1.0000 0.17621  0.97884  0.98041  Biso   1.000  H
  C169     1.0000 0.12590  0.12159  0.93301  Biso   1.000  C
  C170     1.0000 0.85120  0.95968  0.54809  Biso   1.000  C
  C171     1.0000 0.85993  0.67769  0.51482  Biso   1.000  C
  H274     1.0000 0.90630  0.81267  0.56729  Biso   1.000  H
  H275     1.0000 0.83650  0.15089  0.47002  Biso   1.000  H
  O112     1.0000 0.84700  0.24030  0.57471  Biso   1.000  O
  H276     1.0000 0.89971  0.09955  0.59700  Biso   1.000  H
  O113     1.0000 0.10472  0.91948  0.99391  Biso   1.000  O
  C172     1.0000 0.14012  0.67769  0.98519  Biso   1.000  C
  H277     1.0000 0.09371  0.81267  0.93269  Biso   1.000  H
  C173     1.0000 0.11022  0.19271  0.96740  Biso   1.000  C
  O114     1.0000 0.15301  0.24030  0.92531  Biso   1.000  O
  H278     1.0000 0.10031  0.09955  0.90301  Biso   1.000  H
  O115     1.0000 0.84302  0.87891  0.58360  Biso   1.000  O
  H279     1.0000 0.82380  0.97884  0.51960  Biso   1.000  H
  H280     1.0000 0.88061  0.61094  0.50972  Biso   1.000  H
  H281     1.0000 0.85059  0.61796  0.53469  Biso   1.000  H
  H282     1.0000 0.85321  0.70048  0.48511  Biso   1.000  H
  H283     1.0000 0.81770  0.22239  0.56869  Biso   1.000  H
  C174     1.0000 0.08162  0.06737  0.97531  Biso   1.000  C
  H284     1.0000 0.11941  0.61094  0.99029  Biso   1.000  H
  H285     1.0000 0.14942  0.61796  0.96532  Biso   1.000  H
  H286     1.0000 0.14680  0.70048  0.01491  Biso   1.000  H
  H287     1.0000 0.09283  0.29301  0.95312  Biso   1.000  H
  O116     1.0000 0.14619  0.24017  0.01111  Biso   1.000  O
  H288     1.0000 0.18232  0.22239  0.93132  Biso   1.000  H
  C175     1.0000 0.80281  0.80278  0.56989  Biso   1.000  C
  O117     1.0000 0.04383  0.04433  0.93192  Biso   1.000  O
  H289     1.0000 0.07271  0.11445  0.99810  Biso   1.000  H
  H290     1.0000 0.16349  0.15089  0.02999  Biso   1.000  H
  C176     1.0000 0.80911  0.65865  0.60421  Biso   1.000  C
  O118     1.0000 0.77022  0.91034  0.56782  Biso   1.000  O
  H291     1.0000 0.79351  0.75495  0.53852  Biso   1.000  H
  C177     1.0000 0.00693  0.97408  0.93463  Biso   1.000  C
  O119     1.0000 0.77041  0.56474  0.58870  Biso   1.000  O
  C178     1.0000 0.82193  0.73065  0.65232  Biso   1.000  C
  H292     1.0000 0.83251  0.58565  0.60551  Biso   1.000  H
  C179     1.0000 0.78130  0.99549  0.61240  Biso   1.000  C
  H293     1.0000 0.01352  0.95930  0.96772  Biso   1.000  H
  C180     1.0000 0.99492  0.80491  0.90952  Biso   1.000  C
  C181     1.0000 0.96832  0.09442  0.91092  Biso   1.000  C
  H294     1.0000 0.75921  0.48322  0.56989  Biso   1.000  H
  O120     1.0000 0.82690  0.60168  0.68590  Biso   1.000  O
  C182     1.0000 0.79063  0.86627  0.65172  Biso   1.000  C
  H295     1.0000 0.85051  0.78350  0.66269  Biso   1.000  H
  C183     1.0000 0.74401  0.10894  0.60481  Biso   1.000  C
  H296     1.0000 0.80752  0.06336  0.62081  Biso   1.000  H
  O121     1.0000 0.02813  0.68395  0.93062  Biso   1.000  O
  C184     1.0000 0.95262  0.74205  0.90741  Biso   1.000  C
  H297     1.0000 0.99032  0.82194  0.87709  Biso   1.000  H
  O122     1.0000 0.93173  0.02567  0.91451  Biso   1.000  O
  C185     1.0000 0.97653  0.26672  0.93252  Biso   1.000  C
  H298     1.0000 0.96113  0.10468  0.87752  Biso   1.000  H
  H299     1.0000 0.79721  0.57926  0.67781  Biso   1.000  H
  O123     1.0000 0.81180  0.96143  0.69490  Biso   1.000  O
  H300     1.0000 0.76341  0.81668  0.64859  Biso   1.000  H
  H301     1.0000 0.73951  0.18695  0.58009  Biso   1.000  H
  H302     1.0000 0.71810  0.04370  0.59609  Biso   1.000  H
  H303     1.0000 0.75061  0.16930  0.63329  Biso   1.000  H
  H304     1.0000 0.01832  0.60155  0.93783  Biso   1.000  H
  C186     1.0000 0.91723  0.87365  0.89032  Biso   1.000  C
  O124     1.0000 0.96252  0.69058  0.95383  Biso   1.000  O
  H305     1.0000 0.94251  0.64488  0.88641  Biso   1.000  H
  H306     1.0000 0.95113  0.33509  0.91602  Biso   1.000  H
  H307     1.0000 0.98273  0.25808  0.96501  Biso   1.000  H
  H308     1.0000 0.00091  0.31655  0.93041  Biso   1.000  H
  C187     1.0000 0.78891  0.98798  0.72071  Biso   1.000  C
  O125     1.0000 0.90211  0.89106  0.84101  Biso   1.000  O
  H309     1.0000 0.89302  0.83246  0.89559  Biso   1.000  H
  H310     1.0000 0.93591  0.63862  0.94890  Biso   1.000  H
  O126     1.0000 0.79040  0.84460  0.74849  Biso   1.000  O
  C188     1.0000 0.80901  0.13849  0.75180  Biso   1.000  C
  H311     1.0000 0.75853  0.01302  0.69902  Biso   1.000  H
  C189     1.0000 0.85841  0.94328  0.81439  Biso   1.000  C
  C190     1.0000 0.83411  0.79614  0.78180  Biso   1.000  C
  O127     1.0000 0.78622  0.17756  0.77842  Biso   1.000  O
  C191     1.0000 0.85620  0.09892  0.78640  Biso   1.000  C
  H312     1.0000 0.80811  0.23504  0.73239  Biso   1.000  H
  H313     1.0000 0.84552  0.96669  0.83560  Biso   1.000  H
  C192     1.0000 0.82930  0.64488  0.80740  Biso   1.000  C
  H314     1.0000 0.85002  0.76296  0.76432  Biso   1.000  H
  H315     1.0000 0.76583  0.08878  0.76590  Biso   1.000  H
  O128     1.0000 0.87661  0.23316  0.81781  Biso   1.000  O
  H316     1.0000 0.87252  0.07764  0.76850  Biso   1.000  H
  H317     1.0000 0.81401  0.55835  0.78510  Biso   1.000  H
  H318     1.0000 0.85761  0.60493  0.82920  Biso   1.000  H
  H319     1.0000 0.81322  0.67518  0.82421  Biso   1.000  H
  H320     1.0000 0.87552  0.31768  0.80279  Biso   1.000  H
  C193     1.0000 0.17071  0.64488  0.69262  Biso   1.000  C
  C194     1.0000 0.16591  0.79614  0.71822  Biso   1.000  C
  H321     1.0000 0.18601  0.55835  0.71491  Biso   1.000  H
  H322     1.0000 0.14241  0.60493  0.67081  Biso   1.000  H
  H323     1.0000 0.18682  0.67518  0.67581  Biso   1.000  H
  C195     1.0000 0.14163  0.94328  0.68562  Biso   1.000  C
  O129     1.0000 0.20962  0.84460  0.75152  Biso   1.000  O
  H324     1.0000 0.15002  0.76296  0.73569  Biso   1.000  H
  O130     1.0000 0.09791  0.89106  0.65900  Biso   1.000  O
  H325     1.0000 0.15453  0.96669  0.66441  Biso   1.000  H
  C196     1.0000 0.14382  0.09892  0.71361  Biso   1.000  C
  C197     1.0000 0.21111  0.98798  0.77930  Biso   1.000  C
  C198     1.0000 0.08282  0.87365  0.60970  Biso   1.000  C
  C199     1.0000 0.19101  0.13849  0.74821  Biso   1.000  C
  O131     1.0000 0.12341  0.23316  0.68221  Biso   1.000  O
  H326     1.0000 0.12753  0.07764  0.73151  Biso   1.000  H
  O132     1.0000 0.18821  0.96143  0.80511  Biso   1.000  O
  H327     1.0000 0.24152  0.01302  0.80100  Biso   1.000  H
  C200     1.0000 0.04740  0.74205  0.59261  Biso   1.000  C
  H328     1.0000 0.10703  0.83246  0.60442  Biso   1.000  H
  O133     1.0000 0.06832  0.02567  0.58550  Biso   1.000  O
  O134     1.0000 0.21380  0.17756  0.72159  Biso   1.000  O
  H329     1.0000 0.19189  0.23504  0.76759  Biso   1.000  H
  H330     1.0000 0.12453  0.31768  0.69722  Biso   1.000  H
  C201     1.0000 0.20942  0.86627  0.84829  Biso   1.000  C
  O135     1.0000 0.03750  0.69058  0.54619  Biso   1.000  O
  C202     1.0000 0.00510  0.80491  0.59050  Biso   1.000  C
  H331     1.0000 0.05751  0.64488  0.61360  Biso   1.000  H
  C203     1.0000 0.03169  0.09442  0.58909  Biso   1.000  C
  H332     1.0000 0.23422  0.08878  0.73411  Biso   1.000  H
  C204     1.0000 0.17812  0.73065  0.84770  Biso   1.000  C
  C205     1.0000 0.21872  0.99549  0.88761  Biso   1.000  C
  H333     1.0000 0.23661  0.81668  0.85142  Biso   1.000  H
  H334     1.0000 0.06411  0.63862  0.55111  Biso   1.000  H
  H335     1.0000 0.00973  0.82194  0.62292  Biso   1.000  H
  O136     1.0000 0.97192  0.68395  0.56940  Biso   1.000  O
  C206     1.0000 0.99309  0.97408  0.56539  Biso   1.000  C
  C207     1.0000 0.02351  0.26672  0.56750  Biso   1.000  C
  H336     1.0000 0.03891  0.10468  0.62250  Biso   1.000  H
  C208     1.0000 0.19091  0.65865  0.89580  Biso   1.000  C
  O137     1.0000 0.17312  0.60168  0.81411  Biso   1.000  O
  H337     1.0000 0.14951  0.78350  0.83732  Biso   1.000  H
  O138     1.0000 0.22983  0.91034  0.93220  Biso   1.000  O
  C209     1.0000 0.25601  0.10894  0.89520  Biso   1.000  C
  H338     1.0000 0.19250  0.06336  0.87920  Biso   1.000  H
  H339     1.0000 0.98170  0.60155  0.56219  Biso   1.000  H
  H340     1.0000 0.98650  0.95930  0.53230  Biso   1.000  H
  O139     1.0000 0.95621  0.04433  0.56810  Biso   1.000  O
  H341     1.0000 0.99910  0.31655  0.56961  Biso   1.000  H
  H342     1.0000 0.04889  0.33509  0.58399  Biso   1.000  H
  H343     1.0000 0.01732  0.25808  0.53501  Biso   1.000  H
  C210     1.0000 0.19721  0.80278  0.93012  Biso   1.000  C
  O140     1.0000 0.22961  0.56474  0.91131  Biso   1.000  O
  H344     1.0000 0.16751  0.58565  0.89450  Biso   1.000  H
  H345     1.0000 0.20280  0.57926  0.82220  Biso   1.000  H
  H346     1.0000 0.26052  0.18695  0.91989  Biso   1.000  H
  H347     1.0000 0.28190  0.04370  0.90389  Biso   1.000  H
  H348     1.0000 0.24943  0.16930  0.86672  Biso   1.000  H
  C211     1.0000 0.91842  0.06737  0.52470  Biso   1.000  C
  O141     1.0000 0.15703  0.87891  0.91641  Biso   1.000  O
  H349     1.0000 0.20651  0.75495  0.96149  Biso   1.000  H
  H350     1.0000 0.24083  0.48322  0.93012  Biso   1.000  H
  O142     1.0000 0.89529  0.91948  0.50610  Biso   1.000  O
  C212     1.0000 0.88980  0.19271  0.53261  Biso   1.000  C
  H351     1.0000 0.92731  0.11445  0.50192  Biso   1.000  H
  C213     1.0000 0.14880  0.95968  0.95189  Biso   1.000  C
  C214     1.0000 0.88070  0.83834  0.53771  Biso   1.000  C
  O143     1.0000 0.85382  0.24017  0.48890  Biso   1.000  O
  C215     1.0000 0.87411  0.12159  0.56701  Biso   1.000  C
  H352     1.0000 0.90722  0.29301  0.54689  Biso   1.000  H
  C216     1.0000 0.11931  0.83834  0.96230  Biso   1.000  C
  H353     1.0000 0.17621  0.97884  0.98041  Biso   1.000  H
  C217     1.0000 0.12590  0.12159  0.93301  Biso   1.000  C
  C218     1.0000 0.85120  0.95968  0.54809  Biso   1.000  C
  C219     1.0000 0.85993  0.67769  0.51482  Biso   1.000  C
  H354     1.0000 0.90630  0.81267  0.56729  Biso   1.000  H
  H355     1.0000 0.83650  0.15089  0.47002  Biso   1.000  H
  O144     1.0000 0.84700  0.24030  0.57471  Biso   1.000  O
  H356     1.0000 0.89971  0.09955  0.59700  Biso   1.000  H
  O145     1.0000 0.10472  0.91948  0.99391  Biso   1.000  O
  C220     1.0000 0.14012  0.67769  0.98519  Biso   1.000  C
  H357     1.0000 0.09371  0.81267  0.93269  Biso   1.000  H
  C221     1.0000 0.11022  0.19271  0.96740  Biso   1.000  C
  O146     1.0000 0.15301  0.24030  0.92531  Biso   1.000  O
  H358     1.0000 0.10031  0.09955  0.90301  Biso   1.000  H
  O147     1.0000 0.84302  0.87891  0.58360  Biso   1.000  O
  H359     1.0000 0.82380  0.97884  0.51960  Biso   1.000  H
  H360     1.0000 0.88061  0.61094  0.50972  Biso   1.000  H
  H361     1.0000 0.85059  0.61796  0.53469  Biso   1.000  H
  H362     1.0000 0.85321  0.70048  0.48511  Biso   1.000  H
  H363     1.0000 0.81770  0.22239  0.56869  Biso   1.000  H
  C222     1.0000 0.08162  0.06737  0.97531  Biso   1.000  C
  H364     1.0000 0.11941  0.61094  0.99029  Biso   1.000  H
  H365     1.0000 0.14942  0.61796  0.96532  Biso   1.000  H
  H366     1.0000 0.14680  0.70048  0.01491  Biso   1.000  H
  H367     1.0000 0.09283  0.29301  0.95312  Biso   1.000  H
  O148     1.0000 0.14619  0.24017  0.01111  Biso   1.000  O
  H368     1.0000 0.18232  0.22239  0.93132  Biso   1.000  H
  C223     1.0000 0.80281  0.80278  0.56989  Biso   1.000  C
  O149     1.0000 0.04383  0.04433  0.93192  Biso   1.000  O
  H369     1.0000 0.07271  0.11445  0.99810  Biso   1.000  H
  H370     1.0000 0.16349  0.15089  0.02999  Biso   1.000  H
  C224     1.0000 0.80911  0.65865  0.60421  Biso   1.000  C
  O150     1.0000 0.77022  0.91034  0.56782  Biso   1.000  O
  H371     1.0000 0.79351  0.75495  0.53852  Biso   1.000  H
  C225     1.0000 0.00693  0.97408  0.93463  Biso   1.000  C
  O151     1.0000 0.77041  0.56474  0.58870  Biso   1.000  O
  C226     1.0000 0.82193  0.73065  0.65232  Biso   1.000  C
  H372     1.0000 0.83251  0.58565  0.60551  Biso   1.000  H
  C227     1.0000 0.78130  0.99549  0.61240  Biso   1.000  C
  H373     1.0000 0.01352  0.95930  0.96772  Biso   1.000  H
  C228     1.0000 0.99492  0.80491  0.90952  Biso   1.000  C
  C229     1.0000 0.96832  0.09442  0.91092  Biso   1.000  C
  H374     1.0000 0.75921  0.48322  0.56989  Biso   1.000  H
  O152     1.0000 0.82690  0.60168  0.68590  Biso   1.000  O
  C230     1.0000 0.79063  0.86627  0.65172  Biso   1.000  C
  H375     1.0000 0.85051  0.78350  0.66269  Biso   1.000  H
  C231     1.0000 0.74401  0.10894  0.60481  Biso   1.000  C
  H376     1.0000 0.80752  0.06336  0.62081  Biso   1.000  H
  O153     1.0000 0.02813  0.68395  0.93062  Biso   1.000  O
  C232     1.0000 0.95262  0.74205  0.90741  Biso   1.000  C
  H377     1.0000 0.99032  0.82194  0.87709  Biso   1.000  H
  O154     1.0000 0.93173  0.02567  0.91451  Biso   1.000  O
  C233     1.0000 0.97653  0.26672  0.93252  Biso   1.000  C
  H378     1.0000 0.96113  0.10468  0.87752  Biso   1.000  H
  H379     1.0000 0.79721  0.57926  0.67781  Biso   1.000  H
  O155     1.0000 0.81180  0.96143  0.69490  Biso   1.000  O
  H380     1.0000 0.76341  0.81668  0.64859  Biso   1.000  H
  H381     1.0000 0.73951  0.18695  0.58009  Biso   1.000  H
  H382     1.0000 0.71810  0.04370  0.59609  Biso   1.000  H
  H383     1.0000 0.75061  0.16930  0.63329  Biso   1.000  H
  H384     1.0000 0.01832  0.60155  0.93783  Biso   1.000  H
  C234     1.0000 0.91723  0.87365  0.89032  Biso   1.000  C
  O156     1.0000 0.96252  0.69058  0.95383  Biso   1.000  O
  H385     1.0000 0.94251  0.64488  0.88641  Biso   1.000  H
  H386     1.0000 0.95113  0.33509  0.91602  Biso   1.000  H
  H387     1.0000 0.98273  0.25808  0.96501  Biso   1.000  H
  H388     1.0000 0.00091  0.31655  0.93041  Biso   1.000  H
  C235     1.0000 0.78891  0.98798  0.72071  Biso   1.000  C
  O157     1.0000 0.90211  0.89106  0.84101  Biso   1.000  O
  H389     1.0000 0.89302  0.83246  0.89559  Biso   1.000  H
  H390     1.0000 0.93591  0.63862  0.94890  Biso   1.000  H
  O158     1.0000 0.79040  0.84460  0.74849  Biso   1.000  O
  C236     1.0000 0.80901  0.13849  0.75180  Biso   1.000  C
  H391     1.0000 0.75853  0.01302  0.69902  Biso   1.000  H
  C237     1.0000 0.85841  0.94328  0.81439  Biso   1.000  C
  C238     1.0000 0.83411  0.79614  0.78180  Biso   1.000  C
  O159     1.0000 0.78622  0.17756  0.77842  Biso   1.000  O
  C239     1.0000 0.85620  0.09892  0.78640  Biso   1.000  C
  H392     1.0000 0.80811  0.23504  0.73239  Biso   1.000  H
  H393     1.0000 0.84552  0.96669  0.83560  Biso   1.000  H
  C240     1.0000 0.82930  0.64488  0.80740  Biso   1.000  C
  H394     1.0000 0.85002  0.76296  0.76432  Biso   1.000  H
  H395     1.0000 0.76583  0.08878  0.76590  Biso   1.000  H
  O160     1.0000 0.87661  0.23316  0.81781  Biso   1.000  O
  H396     1.0000 0.87252  0.07764  0.76850  Biso   1.000  H
  H397     1.0000 0.81401  0.55835  0.78510  Biso   1.000  H
  H398     1.0000 0.85761  0.60493  0.82920  Biso   1.000  H
  H399     1.0000 0.81322  0.67518  0.82421  Biso   1.000  H
  H400     1.0000 0.87552  0.31768  0.80279  Biso   1.000  H
  O161     1.0000 0.28620  0.32244  0.27840  Biso   1.000  O
  C241     1.0000 0.30900  0.36151  0.25182  Biso   1.000  C
  H401     1.0000 0.26581  0.41122  0.26589  Biso   1.000  H
  C242     1.0000 0.28889  0.51202  0.22070  Biso   1.000  C
  C243     1.0000 0.35621  0.40108  0.28639  Biso   1.000  C
  H402     1.0000 0.30810  0.26496  0.23241  Biso   1.000  H
  O162     1.0000 0.31178  0.53857  0.19489  Biso   1.000  O
  O163     1.0000 0.29042  0.65540  0.24851  Biso   1.000  O
  H403     1.0000 0.25851  0.48698  0.19900  Biso   1.000  H
  O164     1.0000 0.37659  0.26684  0.31779  Biso   1.000  O
  C244     1.0000 0.35841  0.55672  0.31441  Biso   1.000  C
  H404     1.0000 0.37250  0.42236  0.26849  Biso   1.000  H
  C245     1.0000 0.29061  0.63373  0.15170  Biso   1.000  C
  C246     1.0000 0.33410  0.70386  0.28182  Biso   1.000  C
  H405     1.0000 0.37552  0.18232  0.30281  Biso   1.000  H
  O165     1.0000 0.40211  0.60894  0.34100  Biso   1.000  O
  H406     1.0000 0.34551  0.53331  0.33562  Biso   1.000  H
  C247     1.0000 0.32191  0.76935  0.15230  Biso   1.000  C
  C248     1.0000 0.28131  0.50451  0.11239  Biso   1.000  C
  H407     1.0000 0.26340  0.68332  0.14861  Biso   1.000  H
  C249     1.0000 0.32930  0.85512  0.30742  Biso   1.000  C
  H408     1.0000 0.35000  0.73704  0.26430  Biso   1.000  H
  C250     1.0000 0.41721  0.62635  0.39030  Biso   1.000  C
  C251     1.0000 0.30909  0.84135  0.10419  Biso   1.000  C
  O166     1.0000 0.32691  0.89832  0.18588  Biso   1.000  O
  H409     1.0000 0.35050  0.71650  0.16271  Biso   1.000  H
  O167     1.0000 0.27020  0.58966  0.06780  Biso   1.000  O
  C252     1.0000 0.24399  0.39106  0.10479  Biso   1.000  C
  H410     1.0000 0.30750  0.43664  0.12079  Biso   1.000  H
  H411     1.0000 0.31399  0.94165  0.28509  Biso   1.000  H
  H412     1.0000 0.35761  0.89507  0.32922  Biso   1.000  H
  H413     1.0000 0.31320  0.82482  0.32419  Biso   1.000  H
  C253     1.0000 0.45260  0.75795  0.40739  Biso   1.000  C
  O168     1.0000 0.43171  0.47433  0.41449  Biso   1.000  O
  H414     1.0000 0.39301  0.66754  0.39561  Biso   1.000  H
  C254     1.0000 0.30280  0.69722  0.06991  Biso   1.000  C
  O169     1.0000 0.27039  0.93526  0.08869  Biso   1.000  O
  H415     1.0000 0.33249  0.91435  0.10550  Biso   1.000  H
  H416     1.0000 0.29719  0.92074  0.17780  Biso   1.000  H
  H417     1.0000 0.23951  0.31305  0.08011  Biso   1.000  H
  H418     1.0000 0.21809  0.45630  0.09611  Biso   1.000  H
  H419     1.0000 0.25061  0.33070  0.13331  Biso   1.000  H
  O170     1.0000 0.46250  0.80942  0.45381  Biso   1.000  O
  C255     1.0000 0.49490  0.69509  0.40950  Biso   1.000  C
  H420     1.0000 0.44249  0.85512  0.38640  Biso   1.000  H
  C256     1.0000 0.46830  0.40558  0.41091  Biso   1.000  C
  O171     1.0000 0.34300  0.62109  0.08359  Biso   1.000  O
  H421     1.0000 0.29349  0.74505  0.03851  Biso   1.000  H
  H422     1.0000 0.25921  0.01678  0.06991  Biso   1.000  H
  H423     1.0000 0.43590  0.86138  0.44892  Biso   1.000  H
  O172     1.0000 0.52811  0.81605  0.43060  Biso   1.000  O
  C257     1.0000 0.50691  0.52592  0.43461  Biso   1.000  C
  H424     1.0000 0.49031  0.67806  0.37711  Biso   1.000  H
  C258     1.0000 0.47651  0.23328  0.43250  Biso   1.000  C
  H425     1.0000 0.46111  0.39532  0.37750  Biso   1.000  H
  C259     1.0000 0.35120  0.54032  0.04811  Biso   1.000  C
  H426     1.0000 0.51830  0.89845  0.43781  Biso   1.000  H
  H427     1.0000 0.51350  0.54070  0.46770  Biso   1.000  H
  O173     1.0000 0.54381  0.45567  0.43190  Biso   1.000  O
  H428     1.0000 0.45111  0.16491  0.41601  Biso   1.000  H
  H429     1.0000 0.48271  0.24192  0.46499  Biso   1.000  H
  H430     1.0000 0.50089  0.18345  0.43039  Biso   1.000  H
  C260     1.0000 0.37409  0.37841  0.06699  Biso   1.000  C
  C261     1.0000 0.38071  0.66166  0.03770  Biso   1.000  C
  H431     1.0000 0.32378  0.52116  0.01959  Biso   1.000  H
  C262     1.0000 0.58160  0.43263  0.47530  Biso   1.000  C
  C263     1.0000 0.38981  0.30729  0.03260  Biso   1.000  C
  O174     1.0000 0.34701  0.25970  0.07469  Biso   1.000  O
  H432     1.0000 0.39969  0.40045  0.09699  Biso   1.000  H
  O175     1.0000 0.39530  0.58052  0.00608  Biso   1.000  O
  C264     1.0000 0.35991  0.82231  0.01480  Biso   1.000  C
  H433     1.0000 0.40629  0.68733  0.06731  Biso   1.000  H
  C265     1.0000 0.61021  0.30729  0.46742  Biso   1.000  C
  O176     1.0000 0.60470  0.58052  0.49390  Biso   1.000  O
  H434     1.0000 0.57273  0.38555  0.49812  Biso   1.000  H
  C266     1.0000 0.41840  0.43263  0.02469  Biso   1.000  C
  H435     1.0000 0.40721  0.20699  0.04691  Biso   1.000  H
  O177     1.0000 0.35383  0.25983  0.98889  Biso   1.000  O
  H436     1.0000 0.31772  0.27761  0.06871  Biso   1.000  H
  H437     1.0000 0.38059  0.88906  0.00971  Biso   1.000  H
  H438     1.0000 0.35062  0.88204  0.03471  Biso   1.000  H
  H439     1.0000 0.35322  0.79952  0.98509  Biso   1.000  H
  O178     1.0000 0.64620  0.25983  0.51109  Biso   1.000  O
  C267     1.0000 0.62591  0.37841  0.43299  Biso   1.000  C
  H440     1.0000 0.59281  0.20699  0.45311  Biso   1.000  H
  C268     1.0000 0.61931  0.66166  0.46232  Biso   1.000  C
  O179     1.0000 0.45621  0.45567  0.06812  Biso   1.000  O
  H441     1.0000 0.42729  0.38555  0.00190  Biso   1.000  H
  H442     1.0000 0.33654  0.34911  0.97000  Biso   1.000  H
  H443     1.0000 0.66351  0.34911  0.53001  Biso   1.000  H
  O180     1.0000 0.65299  0.25970  0.42529  Biso   1.000  O
  C269     1.0000 0.64882  0.54032  0.45191  Biso   1.000  C
  H444     1.0000 0.60032  0.40045  0.40300  Biso   1.000  H
  C270     1.0000 0.64011  0.82231  0.48521  Biso   1.000  C
  H445     1.0000 0.59370  0.68733  0.43271  Biso   1.000  H
  C271     1.0000 0.49311  0.52592  0.06541  Biso   1.000  C
  H446     1.0000 0.68230  0.27761  0.43130  Biso   1.000  H
  O181     1.0000 0.65701  0.62109  0.41639  Biso   1.000  O
  H447     1.0000 0.67619  0.52116  0.48039  Biso   1.000  H
  H448     1.0000 0.61940  0.88906  0.49031  Biso   1.000  H
  H449     1.0000 0.64940  0.88204  0.46531  Biso   1.000  H
  H450     1.0000 0.64681  0.79952  0.51489  Biso   1.000  H
  C272     1.0000 0.50509  0.69509  0.09052  Biso   1.000  C
  C273     1.0000 0.53172  0.40558  0.08911  Biso   1.000  C
  H451     1.0000 0.48652  0.54070  0.03232  Biso   1.000  H
  C274     1.0000 0.69722  0.69722  0.43011  Biso   1.000  C
  C275     1.0000 0.54741  0.75795  0.09259  Biso   1.000  C
  O182     1.0000 0.47191  0.81605  0.06942  Biso   1.000  O
  H452     1.0000 0.50971  0.67806  0.12290  Biso   1.000  H
  O183     1.0000 0.56830  0.47433  0.08549  Biso   1.000  O
  C276     1.0000 0.52351  0.23328  0.06752  Biso   1.000  C
  H453     1.0000 0.53891  0.39532  0.12252  Biso   1.000  H
  C277     1.0000 0.69089  0.84135  0.39579  Biso   1.000  C
  O184     1.0000 0.72982  0.58966  0.43222  Biso   1.000  O
  H454     1.0000 0.70650  0.74505  0.46151  Biso   1.000  H
  C278     1.0000 0.58281  0.62635  0.10972  Biso   1.000  C
  O185     1.0000 0.53749  0.80942  0.04621  Biso   1.000  O
  H455     1.0000 0.55749  0.85512  0.11358  Biso   1.000  H
  H456     1.0000 0.48169  0.89845  0.06221  Biso   1.000  H
  H457     1.0000 0.54891  0.16491  0.08401  Biso   1.000  H
  H458     1.0000 0.51730  0.24192  0.03499  Biso   1.000  H
  H459     1.0000 0.49908  0.18345  0.06959  Biso   1.000  H
  O186     1.0000 0.72959  0.93526  0.41129  Biso   1.000  O
  C279     1.0000 0.67811  0.76935  0.34772  Biso   1.000  C
  H460     1.0000 0.66750  0.91435  0.39452  Biso   1.000  H
  C280     1.0000 0.71870  0.50451  0.38759  Biso   1.000  C
  O187     1.0000 0.59791  0.60894  0.15902  Biso   1.000  O
  H461     1.0000 0.60701  0.66754  0.10441  Biso   1.000  H
  H462     1.0000 0.56409  0.86138  0.05110  Biso   1.000  H
  H463     1.0000 0.74081  0.01678  0.43011  Biso   1.000  H
  O188     1.0000 0.67310  0.89832  0.31410  Biso   1.000  O
  C281     1.0000 0.70941  0.63373  0.34831  Biso   1.000  C
  H464     1.0000 0.64952  0.71650  0.33731  Biso   1.000  H
  C282     1.0000 0.75601  0.39106  0.39519  Biso   1.000  C
  H465     1.0000 0.69251  0.43664  0.37919  Biso   1.000  H
  C283     1.0000 0.64161  0.55672  0.18560  Biso   1.000  C
  H466     1.0000 0.70283  0.92074  0.32222  Biso   1.000  H
  O189     1.0000 0.68819  0.53857  0.30509  Biso   1.000  O
  H467     1.0000 0.73662  0.68332  0.35141  Biso   1.000  H
  H468     1.0000 0.76051  0.31305  0.41991  Biso   1.000  H
  H469     1.0000 0.78190  0.45630  0.40391  Biso   1.000  H
  H470     1.0000 0.74941  0.33070  0.36670  Biso   1.000  H
  C284     1.0000 0.64380  0.40108  0.21359  Biso   1.000  C
  C285     1.0000 0.66592  0.70386  0.21820  Biso   1.000  C
  H471     1.0000 0.65451  0.53331  0.16440  Biso   1.000  H
  C286     1.0000 0.71110  0.51202  0.27932  Biso   1.000  C
  C287     1.0000 0.69099  0.36151  0.24820  Biso   1.000  C
  O190     1.0000 0.62339  0.26684  0.18219  Biso   1.000  O
  H472     1.0000 0.62751  0.42236  0.23149  Biso   1.000  H
  O191     1.0000 0.70960  0.65540  0.25150  Biso   1.000  O
  C288     1.0000 0.67069  0.85512  0.19260  Biso   1.000  C
  H473     1.0000 0.65002  0.73704  0.23571  Biso   1.000  H
  H474     1.0000 0.74151  0.48698  0.30102  Biso   1.000  H
  O192     1.0000 0.71382  0.32244  0.22161  Biso   1.000  O
  H475     1.0000 0.69192  0.26496  0.26761  Biso   1.000  H
  H476     1.0000 0.62450  0.18232  0.19721  Biso   1.000  H
  H477     1.0000 0.68599  0.94165  0.21490  Biso   1.000  H
  H478     1.0000 0.64241  0.89507  0.17080  Biso   1.000  H
  H479     1.0000 0.68680  0.82482  0.17579  Biso   1.000  H
  H480     1.0000 0.73420  0.41122  0.23410  Biso   1.000  H
  Ne1      1.0000 0.50000  0.56844  0.25000  Biso   1.000  Ne
  He1      1.0000 0.48744  0.67552  0.24300  Biso   1.000  He
  He2      1.0000 0.51451  0.56369  0.25809  Biso   1.000  He
  Ar1      1.0000 0.50000  0.56843  0.25000  Biso   1.000  Ar
  Ne2      1.0000 0.00000  0.06844  0.25000  Biso   1.000  Ne
  He3      1.0000 0.98744  0.17552  0.24300  Biso   1.000  He
  He4      1.0000 0.01451  0.06369  0.25809  Biso   1.000  He
  Ar2      1.0000 0.00000  0.06843  0.25000  Biso   1.000  Ar
  Ne3      1.0000 0.00000  0.06844  0.25000  Biso   1.000  Ne
  He5      1.0000 0.98744  0.17552  0.24300  Biso   1.000  He
  He6      1.0000 0.01451  0.06369  0.25809  Biso   1.000  He
  Ar3      1.0000 0.00000  0.06843  0.25000  Biso   1.000  Ar
  Ne4      1.0000 0.50001  0.43156  0.75001  Biso   1.000  Ne
  He7      1.0000 0.51268  0.33004  0.75706  Biso   1.000  He
  He8      1.0000 0.48553  0.43468  0.74193  Biso   1.000  He
  Ar4      1.0000 0.50001  0.43157  0.75000  Biso   1.000  Ar
  Ne5      1.0000 0.00001  0.93156  0.75001  Biso   1.000  Ne
  He9      1.0000 0.01268  0.83004  0.75706  Biso   1.000  He
  He10     1.0000 0.98553  0.93468  0.74193  Biso   1.000  He
  Ar5      1.0000 0.00001  0.93157  0.75000  Biso   1.000  Ar
  Ne6      1.0000 0.00001  0.93156  0.75001  Biso   1.000  Ne
  He11     1.0000 0.01268  0.83004  0.75706  Biso   1.000  He
  He12     1.0000 0.98553  0.93468  0.74193  Biso   1.000  He
  Ar6      1.0000 0.00001  0.93157  0.75000  Biso   1.000  Ar
