data_image0
_cell_length_a       24.923
_cell_length_b       24.923
_cell_length_c       24.923
_cell_angle_alpha    90
_cell_angle_beta     90
_cell_angle_gamma    90

_symmetry_space_group_name_H-M    "P 1"
_symmetry_int_tables_number       1

loop_
  _symmetry_equiv_pos_as_xyz
  'x, y, z'

loop_
  _atom_site_label
  _atom_site_occupancy
  _atom_site_fract_x
  _atom_site_fract_y
  _atom_site_fract_z
  _atom_site_thermal_displace_type
  _atom_site_B_iso_or_equiv
  _atom_site_type_symbol
  C1       1.0000 0.37861  0.23781  0.27741  Biso   1.000  C
  C2       1.0000 0.37861  0.26221  0.22261  Biso   1.000  C
  C3       1.0000 0.43000  0.20599  0.28480  Biso   1.000  C
  H1       1.0000 0.34711  0.21390  0.28159  Biso   1.000  H
  H2       1.0000 0.37620  0.26630  0.30490  Biso   1.000  H
  C4       1.0000 0.43000  0.29399  0.21518  Biso   1.000  C
  H3       1.0000 0.34711  0.28608  0.21839  Biso   1.000  H
  H4       1.0000 0.37620  0.23372  0.19508  Biso   1.000  H
  C5       1.0000 0.47952  0.23801  0.27721  Biso   1.000  C
  H5       1.0000 0.43029  0.19051  0.32131  Biso   1.000  H
  H6       1.0000 0.43021  0.17590  0.25892  Biso   1.000  H
  C6       1.0000 0.47952  0.26201  0.22281  Biso   1.000  C
  H7       1.0000 0.43029  0.30951  0.17871  Biso   1.000  H
  H8       1.0000 0.43021  0.32412  0.24110  Biso   1.000  H
  N1       1.0000 0.52630  0.20519  0.28279  Biso   1.000  N
  H9       1.0000 0.48052  0.26730  0.30462  Biso   1.000  H
  N2       1.0000 0.52630  0.29479  0.21719  Biso   1.000  N
  H10      1.0000 0.48052  0.23272  0.19540  Biso   1.000  H
  C7       1.0000 0.55968  0.21302  0.32380  Biso   1.000  C
  C8       1.0000 0.55968  0.28700  0.17618  Biso   1.000  C
  C9       1.0000 0.60651  0.18092  0.33788  Biso   1.000  C
  H11      1.0000 0.55218  0.24271  0.34639  Biso   1.000  H
  C10      1.0000 0.60651  0.31910  0.16210  Biso   1.000  C
  H12      1.0000 0.55218  0.25731  0.15359  Biso   1.000  H
  C11      1.0000 0.63620  0.19119  0.38318  Biso   1.000  C
  C12      1.0000 0.61682  0.13622  0.30879  Biso   1.000  C
  C13      1.0000 0.63620  0.30879  0.11680  Biso   1.000  C
  C14      1.0000 0.61682  0.36380  0.19119  Biso   1.000  C
  H13      1.0000 0.62549  0.21879  0.40721  Biso   1.000  H
  C15      1.0000 0.68090  0.16210  0.39349  Biso   1.000  C
  C16      1.0000 0.66212  0.10649  0.31910  Biso   1.000  C
  H14      1.0000 0.59279  0.12551  0.28119  Biso   1.000  H
  H15      1.0000 0.62549  0.28119  0.09281  Biso   1.000  H
  C17      1.0000 0.68090  0.33788  0.10649  Biso   1.000  C
  C18      1.0000 0.66212  0.39349  0.18092  Biso   1.000  C
  H16      1.0000 0.59279  0.37451  0.21879  Biso   1.000  H
  C19      1.0000 0.69121  0.11680  0.36380  Biso   1.000  C
  C20      1.0000 0.71300  0.17618  0.44032  Biso   1.000  C
  C21      1.0000 0.67620  0.05970  0.28700  Biso   1.000  C
  C22      1.0000 0.69121  0.38318  0.13622  Biso   1.000  C
  C23      1.0000 0.71300  0.32380  0.05970  Biso   1.000  C
  C24      1.0000 0.67620  0.44032  0.21302  Biso   1.000  C
  H17      1.0000 0.71881  0.09281  0.37451  Biso   1.000  H
  N3       1.0000 0.70521  0.21719  0.47370  Biso   1.000  N
  H18      1.0000 0.74269  0.15359  0.44782  Biso   1.000  H
  N4       1.0000 0.71721  0.02628  0.29479  Biso   1.000  N
  H19      1.0000 0.65361  0.05220  0.25731  Biso   1.000  H
  H20      1.0000 0.71881  0.40721  0.12551  Biso   1.000  H
  N5       1.0000 0.70521  0.28279  0.02628  Biso   1.000  N
  H21      1.0000 0.74269  0.34639  0.05220  Biso   1.000  H
  N6       1.0000 0.71721  0.47370  0.20519  Biso   1.000  N
  H22      1.0000 0.65361  0.44782  0.24271  Biso   1.000  H
  C25      1.0000 0.73799  0.22281  0.52048  Biso   1.000  C
  C26      1.0000 0.72279  0.97950  0.26201  Biso   1.000  C
  C27      1.0000 0.73799  0.27721  0.97950  Biso   1.000  C
  C28      1.0000 0.72279  0.52048  0.23801  Biso   1.000  C
  H23      1.0000 0.76728  0.19540  0.51948  Biso   1.000  H
  C29      1.0000 0.70601  0.21518  0.57000  Biso   1.000  C
  C30      1.0000 0.76199  0.27721  0.52048  Biso   1.000  C
  H24      1.0000 0.69538  0.98050  0.23272  Biso   1.000  H
  C31      1.0000 0.71520  0.92998  0.29399  Biso   1.000  C
  C32      1.0000 0.77719  0.97950  0.23801  Biso   1.000  C
  H25      1.0000 0.76728  0.30462  0.98050  Biso   1.000  H
  C33      1.0000 0.70601  0.28480  0.92998  Biso   1.000  C
  C34      1.0000 0.76199  0.22281  0.97950  Biso   1.000  C
  H26      1.0000 0.69538  0.51948  0.26730  Biso   1.000  H
  C35      1.0000 0.71520  0.57000  0.20599  Biso   1.000  C
  C36      1.0000 0.77719  0.52048  0.26201  Biso   1.000  C
  H27      1.0000 0.69049  0.17871  0.56971  Biso   1.000  H
  H28      1.0000 0.67588  0.24110  0.56979  Biso   1.000  H
  C37      1.0000 0.73779  0.22261  0.62139  Biso   1.000  C
  N7       1.0000 0.79481  0.28279  0.47370  Biso   1.000  N
  H29      1.0000 0.73270  0.30462  0.51948  Biso   1.000  H
  C38      1.0000 0.79401  0.28480  0.57000  Biso   1.000  C
  H30      1.0000 0.67869  0.93031  0.30951  Biso   1.000  H
  H31      1.0000 0.74108  0.93018  0.32412  Biso   1.000  H
  C39      1.0000 0.72259  0.87859  0.26221  Biso   1.000  C
  N8       1.0000 0.78281  0.02628  0.20519  Biso   1.000  N
  H32      1.0000 0.80460  0.98050  0.26730  Biso   1.000  H
  C40      1.0000 0.78482  0.92998  0.20599  Biso   1.000  C
  H33      1.0000 0.69049  0.32131  0.93031  Biso   1.000  H
  H34      1.0000 0.67588  0.25892  0.93018  Biso   1.000  H
  C41      1.0000 0.73779  0.27741  0.87859  Biso   1.000  C
  N9       1.0000 0.79481  0.21719  0.02628  Biso   1.000  N
  H35      1.0000 0.73270  0.19540  0.98050  Biso   1.000  H
  C42      1.0000 0.79401  0.21518  0.92998  Biso   1.000  C
  H36      1.0000 0.67869  0.56971  0.19051  Biso   1.000  H
  H37      1.0000 0.74108  0.56979  0.17590  Biso   1.000  H
  C43      1.0000 0.72259  0.62139  0.23781  Biso   1.000  C
  N10      1.0000 0.78281  0.47370  0.29479  Biso   1.000  N
  H38      1.0000 0.80460  0.51948  0.23272  Biso   1.000  H
  C44      1.0000 0.78482  0.57000  0.29399  Biso   1.000  C
  H39      1.0000 0.71392  0.21839  0.65289  Biso   1.000  H
  H40      1.0000 0.76628  0.19508  0.62380  Biso   1.000  H
  C45      1.0000 0.76219  0.27741  0.62139  Biso   1.000  C
  C46      1.0000 0.78698  0.32380  0.44032  Biso   1.000  C
  H41      1.0000 0.80949  0.32131  0.56971  Biso   1.000  H
  H42      1.0000 0.82410  0.25892  0.56979  Biso   1.000  H
  H43      1.0000 0.71841  0.84709  0.28608  Biso   1.000  H
  H44      1.0000 0.69510  0.87622  0.23372  Biso   1.000  H
  C47      1.0000 0.77739  0.87859  0.23781  Biso   1.000  C
  C48      1.0000 0.82382  0.05970  0.21302  Biso   1.000  C
  H45      1.0000 0.82129  0.93031  0.19051  Biso   1.000  H
  H46      1.0000 0.75890  0.93018  0.17590  Biso   1.000  H
  H47      1.0000 0.71392  0.28159  0.84709  Biso   1.000  H
  H48      1.0000 0.76628  0.30490  0.87622  Biso   1.000  H
  C49      1.0000 0.76219  0.22261  0.87859  Biso   1.000  C
  C50      1.0000 0.78698  0.17618  0.05970  Biso   1.000  C
  H49      1.0000 0.80949  0.17871  0.93031  Biso   1.000  H
  H50      1.0000 0.82410  0.24110  0.93018  Biso   1.000  H
  H51      1.0000 0.71841  0.65289  0.21390  Biso   1.000  H
  H52      1.0000 0.69510  0.62380  0.26630  Biso   1.000  H
  C51      1.0000 0.77739  0.62139  0.26221  Biso   1.000  C
  C52      1.0000 0.82382  0.44032  0.28700  Biso   1.000  C
  H53      1.0000 0.82129  0.56971  0.30951  Biso   1.000  H
  H54      1.0000 0.75890  0.56979  0.32412  Biso   1.000  H
  H55      1.0000 0.78610  0.28159  0.65289  Biso   1.000  H
  H56      1.0000 0.73370  0.30490  0.62380  Biso   1.000  H
  C53      1.0000 0.81908  0.33788  0.39349  Biso   1.000  C
  H57      1.0000 0.75729  0.34639  0.44782  Biso   1.000  H
  H58      1.0000 0.78161  0.84709  0.21390  Biso   1.000  H
  H59      1.0000 0.80492  0.87622  0.26630  Biso   1.000  H
  C54      1.0000 0.83790  0.10649  0.18092  Biso   1.000  C
  H60      1.0000 0.84641  0.05220  0.24271  Biso   1.000  H
  H61      1.0000 0.78610  0.21839  0.84709  Biso   1.000  H
  H62      1.0000 0.73370  0.19508  0.87622  Biso   1.000  H
  C55      1.0000 0.81908  0.16210  0.10649  Biso   1.000  C
  H63      1.0000 0.75729  0.15359  0.05220  Biso   1.000  H
  H64      1.0000 0.78161  0.65289  0.28608  Biso   1.000  H
  H65      1.0000 0.80492  0.62380  0.23372  Biso   1.000  H
  C56      1.0000 0.83790  0.39349  0.31910  Biso   1.000  C
  H66      1.0000 0.84641  0.44782  0.25731  Biso   1.000  H
  C57      1.0000 0.80881  0.38318  0.36380  Biso   1.000  C
  C58      1.0000 0.86378  0.30879  0.38318  Biso   1.000  C
  C59      1.0000 0.80881  0.11680  0.13622  Biso   1.000  C
  C60      1.0000 0.88320  0.13622  0.19119  Biso   1.000  C
  C61      1.0000 0.86378  0.19119  0.11680  Biso   1.000  C
  C62      1.0000 0.88320  0.36380  0.30879  Biso   1.000  C
  H67      1.0000 0.78121  0.40721  0.37451  Biso   1.000  H
  C63      1.0000 0.89351  0.31910  0.33788  Biso   1.000  C
  H68      1.0000 0.87449  0.28119  0.40721  Biso   1.000  H
  H69      1.0000 0.78121  0.09281  0.12551  Biso   1.000  H
  C64      1.0000 0.89351  0.18092  0.16210  Biso   1.000  C
  H70      1.0000 0.90719  0.12551  0.21879  Biso   1.000  H
  H71      1.0000 0.87449  0.21879  0.09281  Biso   1.000  H
  H72      1.0000 0.90719  0.37451  0.28119  Biso   1.000  H
  C65      1.0000 0.94030  0.28700  0.32380  Biso   1.000  C
  C66      1.0000 0.94030  0.21302  0.17618  Biso   1.000  C
  N11      1.0000 0.97372  0.29479  0.28279  Biso   1.000  N
  H73      1.0000 0.94780  0.25731  0.34639  Biso   1.000  H
  N12      1.0000 0.97372  0.20519  0.21719  Biso   1.000  N
  H74      1.0000 0.94780  0.24271  0.15359  Biso   1.000  H
  C67      1.0000 0.02050  0.26201  0.27721  Biso   1.000  C
  C68      1.0000 0.02050  0.23801  0.22281  Biso   1.000  C
  H75      1.0000 0.01950  0.23272  0.30462  Biso   1.000  H
  C69      1.0000 0.07002  0.29399  0.28480  Biso   1.000  C
  H76      1.0000 0.01950  0.26730  0.19540  Biso   1.000  H
  C70      1.0000 0.07002  0.20599  0.21518  Biso   1.000  C
  H77      1.0000 0.06969  0.30951  0.32131  Biso   1.000  H
  H78      1.0000 0.06982  0.32412  0.25892  Biso   1.000  H
  C71      1.0000 0.12141  0.26221  0.27741  Biso   1.000  C
  H79      1.0000 0.06969  0.19051  0.17871  Biso   1.000  H
  H80      1.0000 0.06982  0.17590  0.24110  Biso   1.000  H
  C72      1.0000 0.12141  0.23781  0.22261  Biso   1.000  C
  H81      1.0000 0.15291  0.28608  0.28159  Biso   1.000  H
  H82      1.0000 0.12378  0.23372  0.30490  Biso   1.000  H
  H83      1.0000 0.15291  0.21390  0.21839  Biso   1.000  H
  H84      1.0000 0.12378  0.26630  0.19508  Biso   1.000  H
  C73      1.0000 0.27741  0.37861  0.23781  Biso   1.000  C
  C74      1.0000 0.22261  0.37861  0.26221  Biso   1.000  C
  C75      1.0000 0.28480  0.43000  0.20599  Biso   1.000  C
  H85      1.0000 0.28159  0.34711  0.21390  Biso   1.000  H
  H86      1.0000 0.30490  0.37620  0.26630  Biso   1.000  H
  C76      1.0000 0.21518  0.43000  0.29399  Biso   1.000  C
  H87      1.0000 0.21839  0.34711  0.28608  Biso   1.000  H
  H88      1.0000 0.19508  0.37620  0.23372  Biso   1.000  H
  C77      1.0000 0.27721  0.47952  0.23801  Biso   1.000  C
  H89      1.0000 0.32131  0.43029  0.19051  Biso   1.000  H
  H90      1.0000 0.25892  0.43021  0.17590  Biso   1.000  H
  C78      1.0000 0.22281  0.47952  0.26201  Biso   1.000  C
  H91      1.0000 0.17871  0.43029  0.30951  Biso   1.000  H
  H92      1.0000 0.24110  0.43021  0.32412  Biso   1.000  H
  N13      1.0000 0.28279  0.52630  0.20519  Biso   1.000  N
  H93      1.0000 0.30462  0.48052  0.26730  Biso   1.000  H
  N14      1.0000 0.21719  0.52630  0.29479  Biso   1.000  N
  H94      1.0000 0.19540  0.48052  0.23272  Biso   1.000  H
  C79      1.0000 0.32380  0.55968  0.21302  Biso   1.000  C
  C80      1.0000 0.17618  0.55968  0.28700  Biso   1.000  C
  C81      1.0000 0.33788  0.60651  0.18092  Biso   1.000  C
  H95      1.0000 0.34639  0.55218  0.24271  Biso   1.000  H
  C82      1.0000 0.16210  0.60651  0.31910  Biso   1.000  C
  H96      1.0000 0.15359  0.55218  0.25731  Biso   1.000  H
  C83      1.0000 0.30879  0.61682  0.13622  Biso   1.000  C
  C84      1.0000 0.38318  0.63620  0.19119  Biso   1.000  C
  C85      1.0000 0.19119  0.61682  0.36380  Biso   1.000  C
  C86      1.0000 0.11680  0.63620  0.30879  Biso   1.000  C
  C87      1.0000 0.31910  0.66212  0.10649  Biso   1.000  C
  H97      1.0000 0.28119  0.59279  0.12551  Biso   1.000  H
  H98      1.0000 0.40721  0.62549  0.21879  Biso   1.000  H
  C88      1.0000 0.39349  0.68090  0.16210  Biso   1.000  C
  C89      1.0000 0.18092  0.66212  0.39349  Biso   1.000  C
  H99      1.0000 0.21879  0.59279  0.37451  Biso   1.000  H
  C90      1.0000 0.10649  0.68090  0.33788  Biso   1.000  C
  H100     1.0000 0.09281  0.62549  0.28119  Biso   1.000  H
  C91      1.0000 0.28700  0.67620  0.05970  Biso   1.000  C
  C92      1.0000 0.36380  0.69121  0.11680  Biso   1.000  C
  C93      1.0000 0.44032  0.71300  0.17618  Biso   1.000  C
  C94      1.0000 0.13622  0.69121  0.38318  Biso   1.000  C
  C95      1.0000 0.21302  0.67620  0.44032  Biso   1.000  C
  C96      1.0000 0.05970  0.71300  0.32380  Biso   1.000  C
  N15      1.0000 0.29479  0.71721  0.02628  Biso   1.000  N
  H101     1.0000 0.25731  0.65361  0.05220  Biso   1.000  H
  H102     1.0000 0.37451  0.71881  0.09281  Biso   1.000  H
  N16      1.0000 0.47370  0.70521  0.21719  Biso   1.000  N
  H103     1.0000 0.44782  0.74269  0.15359  Biso   1.000  H
  H104     1.0000 0.12551  0.71881  0.40721  Biso   1.000  H
  N17      1.0000 0.20519  0.71721  0.47370  Biso   1.000  N
  H105     1.0000 0.24271  0.65361  0.44782  Biso   1.000  H
  N18      1.0000 0.02628  0.70521  0.28279  Biso   1.000  N
  H106     1.0000 0.05220  0.74269  0.34639  Biso   1.000  H
  C97      1.0000 0.26201  0.72279  0.97950  Biso   1.000  C
  C98      1.0000 0.52048  0.73799  0.22281  Biso   1.000  C
  C99      1.0000 0.23801  0.72279  0.52048  Biso   1.000  C
  C100     1.0000 0.97950  0.73799  0.27721  Biso   1.000  C
  C101     1.0000 0.23801  0.77719  0.97950  Biso   1.000  C
  H107     1.0000 0.23272  0.69538  0.98050  Biso   1.000  H
  C102     1.0000 0.29399  0.71520  0.92998  Biso   1.000  C
  H108     1.0000 0.51948  0.76728  0.19540  Biso   1.000  H
  C103     1.0000 0.57000  0.70601  0.21518  Biso   1.000  C
  C104     1.0000 0.52048  0.76199  0.27721  Biso   1.000  C
  H109     1.0000 0.26730  0.69538  0.51948  Biso   1.000  H
  C105     1.0000 0.20599  0.71520  0.57000  Biso   1.000  C
  C106     1.0000 0.26201  0.77719  0.52048  Biso   1.000  C
  C107     1.0000 0.97950  0.76199  0.22281  Biso   1.000  C
  H110     1.0000 0.98050  0.76728  0.30462  Biso   1.000  H
  C108     1.0000 0.92998  0.70601  0.28480  Biso   1.000  C
  N19      1.0000 0.20519  0.78281  0.02628  Biso   1.000  N
  H111     1.0000 0.26730  0.80460  0.98050  Biso   1.000  H
  C109     1.0000 0.20599  0.78482  0.92998  Biso   1.000  C
  H112     1.0000 0.30951  0.67869  0.93031  Biso   1.000  H
  H113     1.0000 0.32412  0.74108  0.93018  Biso   1.000  H
  C110     1.0000 0.26221  0.72259  0.87859  Biso   1.000  C
  H114     1.0000 0.56971  0.69049  0.17871  Biso   1.000  H
  H115     1.0000 0.56979  0.67588  0.24110  Biso   1.000  H
  C111     1.0000 0.62139  0.73779  0.22261  Biso   1.000  C
  N20      1.0000 0.47370  0.79481  0.28279  Biso   1.000  N
  H116     1.0000 0.51948  0.73270  0.30462  Biso   1.000  H
  C112     1.0000 0.57000  0.79401  0.28480  Biso   1.000  C
  H117     1.0000 0.19051  0.67869  0.56971  Biso   1.000  H
  H118     1.0000 0.17590  0.74108  0.56979  Biso   1.000  H
  C113     1.0000 0.23781  0.72259  0.62139  Biso   1.000  C
  N21      1.0000 0.29479  0.78281  0.47370  Biso   1.000  N
  H119     1.0000 0.23272  0.80460  0.51948  Biso   1.000  H
  C114     1.0000 0.29399  0.78482  0.57000  Biso   1.000  C
  N22      1.0000 0.02628  0.79481  0.21719  Biso   1.000  N
  H120     1.0000 0.98050  0.73270  0.19540  Biso   1.000  H
  C115     1.0000 0.92998  0.79401  0.21518  Biso   1.000  C
  H121     1.0000 0.93031  0.69049  0.32131  Biso   1.000  H
  H122     1.0000 0.93018  0.67588  0.25892  Biso   1.000  H
  C116     1.0000 0.87859  0.73779  0.27741  Biso   1.000  C
  C117     1.0000 0.21302  0.82382  0.05970  Biso   1.000  C
  H123     1.0000 0.19051  0.82129  0.93031  Biso   1.000  H
  H124     1.0000 0.17590  0.75890  0.93018  Biso   1.000  H
  C118     1.0000 0.23781  0.77739  0.87859  Biso   1.000  C
  H125     1.0000 0.28608  0.71841  0.84709  Biso   1.000  H
  H126     1.0000 0.23372  0.69510  0.87622  Biso   1.000  H
  H127     1.0000 0.65289  0.71392  0.21839  Biso   1.000  H
  H128     1.0000 0.62380  0.76628  0.19508  Biso   1.000  H
  C119     1.0000 0.62139  0.76219  0.27741  Biso   1.000  C
  C120     1.0000 0.44032  0.78698  0.32380  Biso   1.000  C
  H129     1.0000 0.56971  0.80949  0.32131  Biso   1.000  H
  H130     1.0000 0.56979  0.82410  0.25892  Biso   1.000  H
  H131     1.0000 0.21390  0.71841  0.65289  Biso   1.000  H
  H132     1.0000 0.26630  0.69510  0.62380  Biso   1.000  H
  C121     1.0000 0.26221  0.77739  0.62139  Biso   1.000  C
  C122     1.0000 0.28700  0.82382  0.44032  Biso   1.000  C
  H133     1.0000 0.30951  0.82129  0.56971  Biso   1.000  H
  H134     1.0000 0.32412  0.75890  0.56979  Biso   1.000  H
  C123     1.0000 0.05970  0.78698  0.17618  Biso   1.000  C
  H135     1.0000 0.93031  0.80949  0.17871  Biso   1.000  H
  H136     1.0000 0.93018  0.82410  0.24110  Biso   1.000  H
  C124     1.0000 0.87859  0.76219  0.22261  Biso   1.000  C
  H137     1.0000 0.84709  0.71392  0.28159  Biso   1.000  H
  H138     1.0000 0.87622  0.76628  0.30490  Biso   1.000  H
  C125     1.0000 0.18092  0.83790  0.10649  Biso   1.000  C
  H139     1.0000 0.24271  0.84641  0.05220  Biso   1.000  H
  H140     1.0000 0.21390  0.78161  0.84709  Biso   1.000  H
  H141     1.0000 0.26630  0.80492  0.87622  Biso   1.000  H
  H142     1.0000 0.65289  0.78610  0.28159  Biso   1.000  H
  H143     1.0000 0.62380  0.73370  0.30490  Biso   1.000  H
  C126     1.0000 0.39349  0.81908  0.33788  Biso   1.000  C
  H144     1.0000 0.44782  0.75729  0.34639  Biso   1.000  H
  H145     1.0000 0.28608  0.78161  0.65289  Biso   1.000  H
  H146     1.0000 0.23372  0.80492  0.62380  Biso   1.000  H
  C127     1.0000 0.31910  0.83790  0.39349  Biso   1.000  C
  H147     1.0000 0.25731  0.84641  0.44782  Biso   1.000  H
  C128     1.0000 0.10649  0.81908  0.16210  Biso   1.000  C
  H148     1.0000 0.05220  0.75729  0.15359  Biso   1.000  H
  H149     1.0000 0.84709  0.78610  0.21839  Biso   1.000  H
  H150     1.0000 0.87622  0.73370  0.19508  Biso   1.000  H
  C129     1.0000 0.13622  0.80881  0.11680  Biso   1.000  C
  C130     1.0000 0.19119  0.88320  0.13622  Biso   1.000  C
  C131     1.0000 0.38318  0.86378  0.30879  Biso   1.000  C
  C132     1.0000 0.36380  0.80881  0.38318  Biso   1.000  C
  C133     1.0000 0.30879  0.88320  0.36380  Biso   1.000  C
  C134     1.0000 0.11680  0.86378  0.19119  Biso   1.000  C
  H151     1.0000 0.12551  0.78121  0.09281  Biso   1.000  H
  H152     1.0000 0.21879  0.90719  0.12551  Biso   1.000  H
  C135     1.0000 0.16210  0.89351  0.18092  Biso   1.000  C
  C136     1.0000 0.33788  0.89351  0.31910  Biso   1.000  C
  H153     1.0000 0.40721  0.87449  0.28119  Biso   1.000  H
  H154     1.0000 0.37451  0.78121  0.40721  Biso   1.000  H
  H155     1.0000 0.28119  0.90719  0.37451  Biso   1.000  H
  H156     1.0000 0.09281  0.87449  0.21879  Biso   1.000  H
  C137     1.0000 0.17618  0.94030  0.21302  Biso   1.000  C
  C138     1.0000 0.32380  0.94030  0.28700  Biso   1.000  C
  N23      1.0000 0.21719  0.97372  0.20519  Biso   1.000  N
  H157     1.0000 0.15359  0.94780  0.24271  Biso   1.000  H
  N24      1.0000 0.28279  0.97372  0.29479  Biso   1.000  N
  H158     1.0000 0.34639  0.94780  0.25731  Biso   1.000  H
  C139     1.0000 0.22281  0.02050  0.23801  Biso   1.000  C
  C140     1.0000 0.27721  0.02050  0.26201  Biso   1.000  C
  H159     1.0000 0.19540  0.01950  0.26730  Biso   1.000  H
  C141     1.0000 0.21518  0.07002  0.20599  Biso   1.000  C
  H160     1.0000 0.30462  0.01950  0.23272  Biso   1.000  H
  C142     1.0000 0.28480  0.07002  0.29399  Biso   1.000  C
  H161     1.0000 0.17871  0.06969  0.19051  Biso   1.000  H
  H162     1.0000 0.24110  0.06982  0.17590  Biso   1.000  H
  C143     1.0000 0.22261  0.12141  0.23781  Biso   1.000  C
  H163     1.0000 0.32131  0.06969  0.30951  Biso   1.000  H
  H164     1.0000 0.25892  0.06982  0.32412  Biso   1.000  H
  C144     1.0000 0.27741  0.12141  0.26221  Biso   1.000  C
  H165     1.0000 0.21839  0.15291  0.21390  Biso   1.000  H
  H166     1.0000 0.19508  0.12378  0.26630  Biso   1.000  H
  H167     1.0000 0.28159  0.15291  0.28608  Biso   1.000  H
  H168     1.0000 0.30490  0.12378  0.23372  Biso   1.000  H
  C145     1.0000 0.23781  0.27741  0.37861  Biso   1.000  C
  C146     1.0000 0.26221  0.22261  0.37861  Biso   1.000  C
  C147     1.0000 0.20599  0.28480  0.43000  Biso   1.000  C
  H169     1.0000 0.21390  0.28159  0.34711  Biso   1.000  H
  H170     1.0000 0.26630  0.30490  0.37620  Biso   1.000  H
  C148     1.0000 0.29399  0.21518  0.43000  Biso   1.000  C
  H171     1.0000 0.28608  0.21839  0.34711  Biso   1.000  H
  H172     1.0000 0.23372  0.19508  0.37620  Biso   1.000  H
  C149     1.0000 0.23801  0.27721  0.47952  Biso   1.000  C
  H173     1.0000 0.19051  0.32131  0.43029  Biso   1.000  H
  H174     1.0000 0.17590  0.25892  0.43021  Biso   1.000  H
  C150     1.0000 0.26201  0.22281  0.47952  Biso   1.000  C
  H175     1.0000 0.30951  0.17871  0.43029  Biso   1.000  H
  H176     1.0000 0.32412  0.24110  0.43021  Biso   1.000  H
  N25      1.0000 0.20519  0.28279  0.52630  Biso   1.000  N
  H177     1.0000 0.26730  0.30462  0.48052  Biso   1.000  H
  N26      1.0000 0.29479  0.21719  0.52630  Biso   1.000  N
  H178     1.0000 0.23272  0.19540  0.48052  Biso   1.000  H
  C151     1.0000 0.21302  0.32380  0.55968  Biso   1.000  C
  C152     1.0000 0.28700  0.17618  0.55968  Biso   1.000  C
  C153     1.0000 0.18092  0.33788  0.60651  Biso   1.000  C
  H179     1.0000 0.24271  0.34639  0.55218  Biso   1.000  H
  C154     1.0000 0.31910  0.16210  0.60651  Biso   1.000  C
  H180     1.0000 0.25731  0.15359  0.55218  Biso   1.000  H
  C155     1.0000 0.13622  0.30879  0.61682  Biso   1.000  C
  C156     1.0000 0.19119  0.38318  0.63620  Biso   1.000  C
  C157     1.0000 0.30879  0.11680  0.63620  Biso   1.000  C
  C158     1.0000 0.36380  0.19119  0.61682  Biso   1.000  C
  C159     1.0000 0.10649  0.31910  0.66212  Biso   1.000  C
  H181     1.0000 0.12551  0.28119  0.59279  Biso   1.000  H
  H182     1.0000 0.21879  0.40721  0.62549  Biso   1.000  H
  C160     1.0000 0.16210  0.39349  0.68090  Biso   1.000  C
  H183     1.0000 0.28119  0.09281  0.62549  Biso   1.000  H
  C161     1.0000 0.33788  0.10649  0.68090  Biso   1.000  C
  C162     1.0000 0.39349  0.18092  0.66212  Biso   1.000  C
  H184     1.0000 0.37451  0.21879  0.59279  Biso   1.000  H
  C163     1.0000 0.05970  0.28700  0.67620  Biso   1.000  C
  C164     1.0000 0.11680  0.36380  0.69121  Biso   1.000  C
  C165     1.0000 0.17618  0.44032  0.71300  Biso   1.000  C
  C166     1.0000 0.38318  0.13622  0.69121  Biso   1.000  C
  C167     1.0000 0.32380  0.05970  0.71300  Biso   1.000  C
  C168     1.0000 0.44032  0.21302  0.67620  Biso   1.000  C
  N27      1.0000 0.02628  0.29479  0.71721  Biso   1.000  N
  H185     1.0000 0.05220  0.25731  0.65361  Biso   1.000  H
  H186     1.0000 0.09281  0.37451  0.71881  Biso   1.000  H
  N28      1.0000 0.21719  0.47370  0.70521  Biso   1.000  N
  H187     1.0000 0.15359  0.44782  0.74269  Biso   1.000  H
  H188     1.0000 0.40721  0.12551  0.71881  Biso   1.000  H
  N29      1.0000 0.28279  0.02628  0.70521  Biso   1.000  N
  H189     1.0000 0.34639  0.05220  0.74269  Biso   1.000  H
  N30      1.0000 0.47370  0.20519  0.71721  Biso   1.000  N
  H190     1.0000 0.44782  0.24271  0.65361  Biso   1.000  H
  C169     1.0000 0.97950  0.26201  0.72279  Biso   1.000  C
  C170     1.0000 0.22281  0.52048  0.73799  Biso   1.000  C
  C171     1.0000 0.27721  0.97950  0.73799  Biso   1.000  C
  C172     1.0000 0.52048  0.23801  0.72279  Biso   1.000  C
  H191     1.0000 0.98050  0.23272  0.69538  Biso   1.000  H
  C173     1.0000 0.92998  0.29399  0.71520  Biso   1.000  C
  C174     1.0000 0.97950  0.23801  0.77719  Biso   1.000  C
  H192     1.0000 0.19540  0.51948  0.76728  Biso   1.000  H
  C175     1.0000 0.21518  0.57000  0.70601  Biso   1.000  C
  C176     1.0000 0.27721  0.52048  0.76199  Biso   1.000  C
  C177     1.0000 0.22281  0.97950  0.76199  Biso   1.000  C
  H193     1.0000 0.30462  0.98050  0.76728  Biso   1.000  H
  C178     1.0000 0.28480  0.92998  0.70601  Biso   1.000  C
  H194     1.0000 0.51948  0.26730  0.69538  Biso   1.000  H
  C179     1.0000 0.57000  0.20599  0.71520  Biso   1.000  C
  C180     1.0000 0.52048  0.26201  0.77719  Biso   1.000  C
  H195     1.0000 0.93031  0.30951  0.67869  Biso   1.000  H
  H196     1.0000 0.93018  0.32412  0.74108  Biso   1.000  H
  C181     1.0000 0.87859  0.26221  0.72259  Biso   1.000  C
  N31      1.0000 0.02628  0.20519  0.78281  Biso   1.000  N
  H197     1.0000 0.98050  0.26730  0.80460  Biso   1.000  H
  C182     1.0000 0.92998  0.20599  0.78482  Biso   1.000  C
  H198     1.0000 0.17871  0.56971  0.69049  Biso   1.000  H
  H199     1.0000 0.24110  0.56979  0.67588  Biso   1.000  H
  C183     1.0000 0.22261  0.62139  0.73779  Biso   1.000  C
  N32      1.0000 0.28279  0.47370  0.79481  Biso   1.000  N
  H200     1.0000 0.30462  0.51948  0.73270  Biso   1.000  H
  C184     1.0000 0.28480  0.57000  0.79401  Biso   1.000  C
  N33      1.0000 0.21719  0.02628  0.79481  Biso   1.000  N
  H201     1.0000 0.19540  0.98050  0.73270  Biso   1.000  H
  C185     1.0000 0.21518  0.92998  0.79401  Biso   1.000  C
  H202     1.0000 0.32131  0.93031  0.69049  Biso   1.000  H
  H203     1.0000 0.25892  0.93018  0.67588  Biso   1.000  H
  C186     1.0000 0.27741  0.87859  0.73779  Biso   1.000  C
  H204     1.0000 0.56971  0.19051  0.67869  Biso   1.000  H
  H205     1.0000 0.56979  0.17590  0.74108  Biso   1.000  H
  C187     1.0000 0.62139  0.23781  0.72259  Biso   1.000  C
  N34      1.0000 0.47370  0.29479  0.78281  Biso   1.000  N
  H206     1.0000 0.51948  0.23272  0.80460  Biso   1.000  H
  C188     1.0000 0.57000  0.29399  0.78482  Biso   1.000  C
  H207     1.0000 0.84709  0.28608  0.71841  Biso   1.000  H
  H208     1.0000 0.87622  0.23372  0.69510  Biso   1.000  H
  C189     1.0000 0.87859  0.23781  0.77739  Biso   1.000  C
  C190     1.0000 0.05970  0.21302  0.82382  Biso   1.000  C
  H209     1.0000 0.93031  0.19051  0.82129  Biso   1.000  H
  H210     1.0000 0.93018  0.17590  0.75890  Biso   1.000  H
  H211     1.0000 0.21839  0.65289  0.71392  Biso   1.000  H
  H212     1.0000 0.19508  0.62380  0.76628  Biso   1.000  H
  C191     1.0000 0.27741  0.62139  0.76219  Biso   1.000  C
  C192     1.0000 0.32380  0.44032  0.78698  Biso   1.000  C
  H213     1.0000 0.32131  0.56971  0.80949  Biso   1.000  H
  H214     1.0000 0.25892  0.56979  0.82410  Biso   1.000  H
  C193     1.0000 0.17618  0.05970  0.78698  Biso   1.000  C
  H215     1.0000 0.17871  0.93031  0.80949  Biso   1.000  H
  H216     1.0000 0.24110  0.93018  0.82410  Biso   1.000  H
  C194     1.0000 0.22261  0.87859  0.76219  Biso   1.000  C
  H217     1.0000 0.28159  0.84709  0.71392  Biso   1.000  H
  H218     1.0000 0.30490  0.87622  0.76628  Biso   1.000  H
  H219     1.0000 0.65289  0.21390  0.71841  Biso   1.000  H
  H220     1.0000 0.62380  0.26630  0.69510  Biso   1.000  H
  C195     1.0000 0.62139  0.26221  0.77739  Biso   1.000  C
  C196     1.0000 0.44032  0.28700  0.82382  Biso   1.000  C
  H221     1.0000 0.56971  0.30951  0.82129  Biso   1.000  H
  H222     1.0000 0.56979  0.32412  0.75890  Biso   1.000  H
  H223     1.0000 0.84709  0.21390  0.78161  Biso   1.000  H
  H224     1.0000 0.87622  0.26630  0.80492  Biso   1.000  H
  C197     1.0000 0.10649  0.18092  0.83790  Biso   1.000  C
  H225     1.0000 0.05220  0.24271  0.84641  Biso   1.000  H
  H226     1.0000 0.28159  0.65289  0.78610  Biso   1.000  H
  H227     1.0000 0.30490  0.62380  0.73370  Biso   1.000  H
  C198     1.0000 0.33788  0.39349  0.81908  Biso   1.000  C
  H228     1.0000 0.34639  0.44782  0.75729  Biso   1.000  H
  C199     1.0000 0.16210  0.10649  0.81908  Biso   1.000  C
  H229     1.0000 0.15359  0.05220  0.75729  Biso   1.000  H
  H230     1.0000 0.21839  0.84709  0.78610  Biso   1.000  H
  H231     1.0000 0.19508  0.87622  0.73370  Biso   1.000  H
  H232     1.0000 0.65289  0.28608  0.78161  Biso   1.000  H
  H233     1.0000 0.62380  0.23372  0.80492  Biso   1.000  H
  C200     1.0000 0.39349  0.31910  0.83790  Biso   1.000  C
  H234     1.0000 0.44782  0.25731  0.84641  Biso   1.000  H
  C201     1.0000 0.11680  0.13622  0.80881  Biso   1.000  C
  C202     1.0000 0.13622  0.19119  0.88320  Biso   1.000  C
  C203     1.0000 0.38318  0.36380  0.80881  Biso   1.000  C
  C204     1.0000 0.30879  0.38318  0.86378  Biso   1.000  C
  C205     1.0000 0.19119  0.11680  0.86378  Biso   1.000  C
  C206     1.0000 0.36380  0.30879  0.88320  Biso   1.000  C
  H235     1.0000 0.09281  0.12551  0.78121  Biso   1.000  H
  C207     1.0000 0.18092  0.16210  0.89351  Biso   1.000  C
  H236     1.0000 0.12551  0.21879  0.90719  Biso   1.000  H
  H237     1.0000 0.40721  0.37451  0.78121  Biso   1.000  H
  C208     1.0000 0.31910  0.33788  0.89351  Biso   1.000  C
  H238     1.0000 0.28119  0.40721  0.87449  Biso   1.000  H
  H239     1.0000 0.21879  0.09281  0.87449  Biso   1.000  H
  H240     1.0000 0.37451  0.28119  0.90719  Biso   1.000  H
  C209     1.0000 0.21302  0.17618  0.94030  Biso   1.000  C
  C210     1.0000 0.28700  0.32380  0.94030  Biso   1.000  C
  N35      1.0000 0.20519  0.21719  0.97372  Biso   1.000  N
  H241     1.0000 0.24271  0.15359  0.94780  Biso   1.000  H
  N36      1.0000 0.29479  0.28279  0.97372  Biso   1.000  N
  H242     1.0000 0.25731  0.34639  0.94780  Biso   1.000  H
  C211     1.0000 0.23801  0.22281  0.02050  Biso   1.000  C
  C212     1.0000 0.26201  0.27721  0.02050  Biso   1.000  C
  H243     1.0000 0.26730  0.19540  0.01950  Biso   1.000  H
  C213     1.0000 0.20599  0.21518  0.07002  Biso   1.000  C
  H244     1.0000 0.23272  0.30462  0.01950  Biso   1.000  H
  C214     1.0000 0.29399  0.28480  0.07002  Biso   1.000  C
  H245     1.0000 0.19051  0.17871  0.06969  Biso   1.000  H
  H246     1.0000 0.17590  0.24110  0.06982  Biso   1.000  H
  C215     1.0000 0.23781  0.22261  0.12141  Biso   1.000  C
  H247     1.0000 0.30951  0.32131  0.06969  Biso   1.000  H
  H248     1.0000 0.32412  0.25892  0.06982  Biso   1.000  H
  C216     1.0000 0.26221  0.27741  0.12141  Biso   1.000  C
  H249     1.0000 0.21390  0.21839  0.15291  Biso   1.000  H
  H250     1.0000 0.26630  0.19508  0.12378  Biso   1.000  H
  H251     1.0000 0.28608  0.28159  0.15291  Biso   1.000  H
  H252     1.0000 0.23372  0.30490  0.12378  Biso   1.000  H
  C217     1.0000 0.44120  0.38619  0.36681  Biso   1.000  C
  C218     1.0000 0.41211  0.43089  0.35650  Biso   1.000  C
  C219     1.0000 0.43089  0.35650  0.41211  Biso   1.000  C
  H253     1.0000 0.46880  0.37552  0.34282  Biso   1.000  H
  C220     1.0000 0.36681  0.44120  0.38619  Biso   1.000  C
  C221     1.0000 0.42619  0.46299  0.30971  Biso   1.000  C
  C222     1.0000 0.38619  0.36681  0.44120  Biso   1.000  C
  C223     1.0000 0.46299  0.30971  0.42619  Biso   1.000  C
  H254     1.0000 0.34282  0.46880  0.37552  Biso   1.000  H
  C224     1.0000 0.35650  0.41211  0.43089  Biso   1.000  C
  N37      1.0000 0.46720  0.45520  0.27629  Biso   1.000  N
  H255     1.0000 0.40360  0.49272  0.30221  Biso   1.000  H
  H256     1.0000 0.37552  0.34282  0.46880  Biso   1.000  H
  N38      1.0000 0.45520  0.27629  0.46720  Biso   1.000  N
  H257     1.0000 0.49272  0.30221  0.40360  Biso   1.000  H
  C225     1.0000 0.30971  0.42619  0.46299  Biso   1.000  C
  C226     1.0000 0.47282  0.48798  0.22951  Biso   1.000  C
  C227     1.0000 0.48798  0.22951  0.47282  Biso   1.000  C
  N39      1.0000 0.27629  0.46720  0.45520  Biso   1.000  N
  H258     1.0000 0.30221  0.40360  0.49272  Biso   1.000  H
  C228     1.0000 0.52718  0.51202  0.22951  Biso   1.000  C
  H259     1.0000 0.44541  0.51731  0.23051  Biso   1.000  H
  C229     1.0000 0.46519  0.45600  0.17999  Biso   1.000  C
  H260     1.0000 0.51731  0.23051  0.44541  Biso   1.000  H
  C230     1.0000 0.45600  0.17999  0.46519  Biso   1.000  C
  C231     1.0000 0.51202  0.22951  0.52718  Biso   1.000  C
  C232     1.0000 0.22951  0.47282  0.48798  Biso   1.000  C
  N40      1.0000 0.53280  0.54480  0.27629  Biso   1.000  N
  H261     1.0000 0.55459  0.48269  0.23051  Biso   1.000  H
  C233     1.0000 0.53481  0.54400  0.17999  Biso   1.000  C
  H262     1.0000 0.42868  0.44052  0.18032  Biso   1.000  H
  H263     1.0000 0.49111  0.42591  0.18020  Biso   1.000  H
  C234     1.0000 0.47262  0.48778  0.12860  Biso   1.000  C
  H264     1.0000 0.44052  0.18032  0.42868  Biso   1.000  H
  H265     1.0000 0.42591  0.18020  0.49111  Biso   1.000  H
  C235     1.0000 0.48778  0.12860  0.47262  Biso   1.000  C
  N41      1.0000 0.54480  0.27629  0.53280  Biso   1.000  N
  H266     1.0000 0.48269  0.23051  0.55459  Biso   1.000  H
  C236     1.0000 0.54400  0.17999  0.53481  Biso   1.000  C
  C237     1.0000 0.22951  0.52718  0.51202  Biso   1.000  C
  H267     1.0000 0.23051  0.44541  0.51731  Biso   1.000  H
  C238     1.0000 0.17999  0.46519  0.45600  Biso   1.000  C
  C239     1.0000 0.57381  0.53701  0.30971  Biso   1.000  C
  H268     1.0000 0.57132  0.55948  0.18032  Biso   1.000  H
  H269     1.0000 0.50889  0.57409  0.18020  Biso   1.000  H
  C240     1.0000 0.52738  0.51222  0.12860  Biso   1.000  C
  H270     1.0000 0.46840  0.46391  0.09710  Biso   1.000  H
  H271     1.0000 0.44509  0.51631  0.12619  Biso   1.000  H
  H272     1.0000 0.46391  0.09710  0.46840  Biso   1.000  H
  H273     1.0000 0.51631  0.12619  0.44509  Biso   1.000  H
  C241     1.0000 0.51222  0.12860  0.52738  Biso   1.000  C
  C242     1.0000 0.53701  0.30971  0.57381  Biso   1.000  C
  H274     1.0000 0.55948  0.18032  0.57132  Biso   1.000  H
  H275     1.0000 0.57409  0.18020  0.50889  Biso   1.000  H
  N42      1.0000 0.27629  0.53280  0.54480  Biso   1.000  N
  H276     1.0000 0.23051  0.55459  0.48269  Biso   1.000  H
  C243     1.0000 0.17999  0.53481  0.54400  Biso   1.000  C
  H277     1.0000 0.18032  0.42868  0.44052  Biso   1.000  H
  H278     1.0000 0.18020  0.49111  0.42591  Biso   1.000  H
  C244     1.0000 0.12860  0.47262  0.48778  Biso   1.000  C
  C245     1.0000 0.58789  0.56911  0.35650  Biso   1.000  C
  H279     1.0000 0.59640  0.50728  0.30221  Biso   1.000  H
  H280     1.0000 0.53160  0.53609  0.09710  Biso   1.000  H
  H281     1.0000 0.55491  0.48369  0.12619  Biso   1.000  H
  H282     1.0000 0.53609  0.09710  0.53160  Biso   1.000  H
  H283     1.0000 0.48369  0.12619  0.55491  Biso   1.000  H
  C246     1.0000 0.56911  0.35650  0.58789  Biso   1.000  C
  H284     1.0000 0.50728  0.30221  0.59640  Biso   1.000  H
  C247     1.0000 0.30971  0.57381  0.53701  Biso   1.000  C
  H285     1.0000 0.18032  0.57132  0.55948  Biso   1.000  H
  H286     1.0000 0.18020  0.50889  0.57409  Biso   1.000  H
  C248     1.0000 0.12860  0.52738  0.51222  Biso   1.000  C
  H287     1.0000 0.09710  0.46840  0.46391  Biso   1.000  H
  H288     1.0000 0.12619  0.44509  0.51631  Biso   1.000  H
  C249     1.0000 0.55880  0.61381  0.36681  Biso   1.000  C
  C250     1.0000 0.63319  0.55880  0.38619  Biso   1.000  C
  C251     1.0000 0.61381  0.36681  0.55880  Biso   1.000  C
  C252     1.0000 0.55880  0.38619  0.63319  Biso   1.000  C
  C253     1.0000 0.35650  0.58789  0.56911  Biso   1.000  C
  H289     1.0000 0.30221  0.59640  0.50728  Biso   1.000  H
  H290     1.0000 0.09710  0.53160  0.53609  Biso   1.000  H
  H291     1.0000 0.12619  0.55491  0.48369  Biso   1.000  H
  C254     1.0000 0.56911  0.64350  0.41211  Biso   1.000  C
  H292     1.0000 0.53120  0.62448  0.34282  Biso   1.000  H
  H293     1.0000 0.65718  0.53120  0.37552  Biso   1.000  H
  C255     1.0000 0.64350  0.58789  0.43089  Biso   1.000  C
  C256     1.0000 0.64350  0.41211  0.56911  Biso   1.000  C
  H294     1.0000 0.62448  0.34282  0.53120  Biso   1.000  H
  C257     1.0000 0.58789  0.43089  0.64350  Biso   1.000  C
  H295     1.0000 0.53120  0.37552  0.65718  Biso   1.000  H
  C258     1.0000 0.36681  0.55880  0.61381  Biso   1.000  C
  C259     1.0000 0.38619  0.63319  0.55880  Biso   1.000  C
  C260     1.0000 0.53701  0.69029  0.42619  Biso   1.000  C
  C261     1.0000 0.61381  0.63319  0.44120  Biso   1.000  C
  C262     1.0000 0.69029  0.57381  0.46299  Biso   1.000  C
  C263     1.0000 0.69029  0.42619  0.53701  Biso   1.000  C
  C264     1.0000 0.63319  0.44120  0.61381  Biso   1.000  C
  C265     1.0000 0.57381  0.46299  0.69029  Biso   1.000  C
  C266     1.0000 0.41211  0.56911  0.64350  Biso   1.000  C
  H296     1.0000 0.34282  0.53120  0.62448  Biso   1.000  H
  C267     1.0000 0.43089  0.64350  0.58789  Biso   1.000  C
  H297     1.0000 0.37552  0.65718  0.53120  Biso   1.000  H
  N43      1.0000 0.54480  0.72371  0.46720  Biso   1.000  N
  H298     1.0000 0.50728  0.69779  0.40360  Biso   1.000  H
  H299     1.0000 0.62448  0.65718  0.46880  Biso   1.000  H
  N44      1.0000 0.72371  0.53280  0.45520  Biso   1.000  N
  H300     1.0000 0.69779  0.59640  0.49272  Biso   1.000  H
  N45      1.0000 0.72371  0.46720  0.54480  Biso   1.000  N
  H301     1.0000 0.69779  0.40360  0.50728  Biso   1.000  H
  H302     1.0000 0.65718  0.46880  0.62448  Biso   1.000  H
  N46      1.0000 0.53280  0.45520  0.72371  Biso   1.000  N
  H303     1.0000 0.59640  0.49272  0.69779  Biso   1.000  H
  C268     1.0000 0.44120  0.61381  0.63319  Biso   1.000  C
  C269     1.0000 0.42619  0.53701  0.69029  Biso   1.000  C
  C270     1.0000 0.46299  0.69029  0.57381  Biso   1.000  C
  C271     1.0000 0.51202  0.77049  0.47282  Biso   1.000  C
  C272     1.0000 0.77049  0.52718  0.48798  Biso   1.000  C
  C273     1.0000 0.77049  0.47282  0.51202  Biso   1.000  C
  C274     1.0000 0.52718  0.48798  0.77049  Biso   1.000  C
  H304     1.0000 0.46880  0.62448  0.65718  Biso   1.000  H
  N47      1.0000 0.46720  0.54480  0.72371  Biso   1.000  N
  H305     1.0000 0.40360  0.50728  0.69779  Biso   1.000  H
  N48      1.0000 0.45520  0.72371  0.53280  Biso   1.000  N
  H306     1.0000 0.49272  0.69779  0.59640  Biso   1.000  H
  H307     1.0000 0.48269  0.76949  0.44541  Biso   1.000  H
  C275     1.0000 0.54400  0.82001  0.46519  Biso   1.000  C
  C276     1.0000 0.48798  0.77049  0.52718  Biso   1.000  C
  H308     1.0000 0.76949  0.55459  0.51731  Biso   1.000  H
  C277     1.0000 0.82001  0.53481  0.45600  Biso   1.000  C
  H309     1.0000 0.76949  0.44541  0.48269  Biso   1.000  H
  C278     1.0000 0.82001  0.46519  0.54400  Biso   1.000  C
  C279     1.0000 0.47282  0.51202  0.77049  Biso   1.000  C
  H310     1.0000 0.55459  0.51731  0.76949  Biso   1.000  H
  C280     1.0000 0.53481  0.45600  0.82001  Biso   1.000  C
  H311     1.0000 0.55948  0.81968  0.42868  Biso   1.000  H
  H312     1.0000 0.57409  0.81980  0.49111  Biso   1.000  H
  C281     1.0000 0.51222  0.87140  0.47262  Biso   1.000  C
  H313     1.0000 0.51731  0.76949  0.55459  Biso   1.000  H
  C282     1.0000 0.45600  0.82001  0.53481  Biso   1.000  C
  H314     1.0000 0.81968  0.57132  0.44052  Biso   1.000  H
  H315     1.0000 0.81980  0.50889  0.42591  Biso   1.000  H
  C283     1.0000 0.87140  0.52738  0.48778  Biso   1.000  C
  H316     1.0000 0.81968  0.42868  0.55948  Biso   1.000  H
  H317     1.0000 0.81980  0.49111  0.57409  Biso   1.000  H
  C284     1.0000 0.87140  0.47262  0.51222  Biso   1.000  C
  H318     1.0000 0.44541  0.48269  0.76949  Biso   1.000  H
  C285     1.0000 0.46519  0.54400  0.82001  Biso   1.000  C
  H319     1.0000 0.57132  0.44052  0.81968  Biso   1.000  H
  H320     1.0000 0.50889  0.42591  0.81980  Biso   1.000  H
  C286     1.0000 0.52738  0.48778  0.87140  Biso   1.000  C
  H321     1.0000 0.53609  0.90290  0.46840  Biso   1.000  H
  H322     1.0000 0.48369  0.87381  0.44509  Biso   1.000  H
  C287     1.0000 0.48778  0.87140  0.52738  Biso   1.000  C
  H323     1.0000 0.44052  0.81968  0.57132  Biso   1.000  H
  H324     1.0000 0.42591  0.81980  0.50889  Biso   1.000  H
  H325     1.0000 0.90290  0.53160  0.46391  Biso   1.000  H
  H326     1.0000 0.87381  0.55491  0.51631  Biso   1.000  H
  H327     1.0000 0.90290  0.46840  0.53609  Biso   1.000  H
  H328     1.0000 0.87381  0.44509  0.48369  Biso   1.000  H
  H329     1.0000 0.42868  0.55948  0.81968  Biso   1.000  H
  H330     1.0000 0.49111  0.57409  0.81980  Biso   1.000  H
  C288     1.0000 0.47262  0.51222  0.87140  Biso   1.000  C
  H331     1.0000 0.53160  0.46391  0.90290  Biso   1.000  H
  H332     1.0000 0.55491  0.51631  0.87381  Biso   1.000  H
  H333     1.0000 0.46391  0.90290  0.53160  Biso   1.000  H
  H334     1.0000 0.51631  0.87381  0.55491  Biso   1.000  H
  H335     1.0000 0.46840  0.53609  0.90290  Biso   1.000  H
  H336     1.0000 0.44509  0.48369  0.87381  Biso   1.000  H
  C289     1.0000 0.44120  0.11379  0.13321  Biso   1.000  C
  C290     1.0000 0.43089  0.14348  0.08791  Biso   1.000  C
  H337     1.0000 0.46880  0.12450  0.15720  Biso   1.000  H
  C291     1.0000 0.41211  0.06909  0.14348  Biso   1.000  C
  C292     1.0000 0.46299  0.19031  0.07379  Biso   1.000  C
  C293     1.0000 0.38619  0.13321  0.05878  Biso   1.000  C
  C294     1.0000 0.36681  0.05878  0.11379  Biso   1.000  C
  C295     1.0000 0.42619  0.03699  0.19031  Biso   1.000  C
  N49      1.0000 0.45520  0.22369  0.03278  Biso   1.000  N
  H338     1.0000 0.49272  0.19781  0.09642  Biso   1.000  H
  C296     1.0000 0.35650  0.08791  0.06909  Biso   1.000  C
  H339     1.0000 0.37552  0.15720  0.03122  Biso   1.000  H
  H340     1.0000 0.34282  0.03122  0.12450  Biso   1.000  H
  N50      1.0000 0.46720  0.04482  0.22369  Biso   1.000  N
  H341     1.0000 0.40360  0.00730  0.19781  Biso   1.000  H
  C297     1.0000 0.48798  0.27051  0.02720  Biso   1.000  C
  C298     1.0000 0.30971  0.07379  0.03699  Biso   1.000  C
  C299     1.0000 0.47282  0.01200  0.27051  Biso   1.000  C
  H342     1.0000 0.51731  0.26951  0.05461  Biso   1.000  H
  C300     1.0000 0.45600  0.31999  0.03479  Biso   1.000  C
  C301     1.0000 0.51202  0.27051  0.97280  Biso   1.000  C
  N51      1.0000 0.27629  0.03278  0.04482  Biso   1.000  N
  H343     1.0000 0.30221  0.09642  0.00730  Biso   1.000  H
  C302     1.0000 0.46519  0.04402  0.31999  Biso   1.000  C
  H344     1.0000 0.44541  0.98271  0.26951  Biso   1.000  H
  C303     1.0000 0.52718  0.98800  0.27051  Biso   1.000  C
  H345     1.0000 0.44052  0.31970  0.07130  Biso   1.000  H
  H346     1.0000 0.42591  0.31978  0.00891  Biso   1.000  H
  C304     1.0000 0.48778  0.37138  0.02740  Biso   1.000  C
  N52      1.0000 0.54480  0.22369  0.96722  Biso   1.000  N
  H347     1.0000 0.48269  0.26951  0.94539  Biso   1.000  H
  C305     1.0000 0.54400  0.31999  0.96521  Biso   1.000  C
  C306     1.0000 0.22951  0.02720  0.01200  Biso   1.000  C
  H348     1.0000 0.42868  0.05950  0.31970  Biso   1.000  H
  H349     1.0000 0.49111  0.07411  0.31978  Biso   1.000  H
  C307     1.0000 0.47262  0.01220  0.37138  Biso   1.000  C
  H350     1.0000 0.55459  0.01729  0.26951  Biso   1.000  H
  N53      1.0000 0.53280  0.95518  0.22369  Biso   1.000  N
  C308     1.0000 0.53481  0.95598  0.31999  Biso   1.000  C
  H351     1.0000 0.46391  0.40288  0.03162  Biso   1.000  H
  H352     1.0000 0.51631  0.37379  0.05489  Biso   1.000  H
  C309     1.0000 0.51222  0.37138  0.97260  Biso   1.000  C
  C310     1.0000 0.53701  0.19031  0.92621  Biso   1.000  C
  H353     1.0000 0.55948  0.31970  0.92870  Biso   1.000  H
  H354     1.0000 0.57409  0.31978  0.99109  Biso   1.000  H
  C311     1.0000 0.17999  0.03479  0.04402  Biso   1.000  C
  C312     1.0000 0.22951  0.97280  0.98800  Biso   1.000  C
  H355     1.0000 0.23051  0.05461  0.98271  Biso   1.000  H
  H356     1.0000 0.46840  0.03611  0.40288  Biso   1.000  H
  H357     1.0000 0.44509  0.98371  0.37379  Biso   1.000  H
  C313     1.0000 0.52738  0.98780  0.37138  Biso   1.000  C
  C314     1.0000 0.57381  0.96301  0.19031  Biso   1.000  C
  H358     1.0000 0.57132  0.94050  0.31970  Biso   1.000  H
  H359     1.0000 0.50889  0.92589  0.31978  Biso   1.000  H
  H360     1.0000 0.53609  0.40288  0.96838  Biso   1.000  H
  H361     1.0000 0.48369  0.37379  0.94511  Biso   1.000  H
  C315     1.0000 0.56911  0.14348  0.91209  Biso   1.000  C
  H362     1.0000 0.50728  0.19781  0.90358  Biso   1.000  H
  H363     1.0000 0.18032  0.07130  0.05950  Biso   1.000  H
  H364     1.0000 0.18020  0.00891  0.07411  Biso   1.000  H
  C316     1.0000 0.12860  0.02740  0.01220  Biso   1.000  C
  N54      1.0000 0.27629  0.96722  0.95518  Biso   1.000  N
  C317     1.0000 0.17999  0.96521  0.95598  Biso   1.000  C
  H365     1.0000 0.23051  0.94539  0.01729  Biso   1.000  H
  H366     1.0000 0.55491  0.01629  0.37379  Biso   1.000  H
  H367     1.0000 0.53160  0.96389  0.40288  Biso   1.000  H
  C318     1.0000 0.58789  0.93091  0.14348  Biso   1.000  C
  H368     1.0000 0.59640  0.99270  0.19781  Biso   1.000  H
  C319     1.0000 0.55880  0.11379  0.86679  Biso   1.000  C
  C320     1.0000 0.61381  0.13321  0.94122  Biso   1.000  C
  H369     1.0000 0.09710  0.03162  0.03611  Biso   1.000  H
  C321     1.0000 0.12860  0.97260  0.98780  Biso   1.000  C
  H370     1.0000 0.12619  0.05489  0.98371  Biso   1.000  H
  C322     1.0000 0.30971  0.92621  0.96301  Biso   1.000  C
  H371     1.0000 0.18032  0.92870  0.94050  Biso   1.000  H
  H372     1.0000 0.18020  0.99109  0.92589  Biso   1.000  H
  C323     1.0000 0.63319  0.94122  0.11379  Biso   1.000  C
  C324     1.0000 0.55880  0.88621  0.13321  Biso   1.000  C
  H373     1.0000 0.53120  0.12450  0.84280  Biso   1.000  H
  C325     1.0000 0.58789  0.06909  0.85652  Biso   1.000  C
  C326     1.0000 0.64350  0.08791  0.93091  Biso   1.000  C
  H374     1.0000 0.62448  0.15720  0.96878  Biso   1.000  H
  H375     1.0000 0.09710  0.96838  0.96389  Biso   1.000  H
  H376     1.0000 0.12619  0.94511  0.01629  Biso   1.000  H
  C327     1.0000 0.35650  0.91209  0.93091  Biso   1.000  C
  H377     1.0000 0.30221  0.90358  0.99270  Biso   1.000  H
  C328     1.0000 0.64350  0.91209  0.06909  Biso   1.000  C
  H378     1.0000 0.65718  0.96878  0.12450  Biso   1.000  H
  C329     1.0000 0.56911  0.85652  0.08791  Biso   1.000  C
  H379     1.0000 0.53120  0.87550  0.15720  Biso   1.000  H
  C330     1.0000 0.63319  0.05878  0.88621  Biso   1.000  C
  C331     1.0000 0.57381  0.03699  0.80969  Biso   1.000  C
  C332     1.0000 0.69029  0.07379  0.96301  Biso   1.000  C
  C333     1.0000 0.36681  0.94122  0.88621  Biso   1.000  C
  C334     1.0000 0.38619  0.86679  0.94122  Biso   1.000  C
  C335     1.0000 0.61381  0.86679  0.05878  Biso   1.000  C
  C336     1.0000 0.69029  0.92621  0.03699  Biso   1.000  C
  C337     1.0000 0.53701  0.80969  0.07379  Biso   1.000  C
  H380     1.0000 0.65718  0.03122  0.87550  Biso   1.000  H
  N55      1.0000 0.53280  0.04482  0.77631  Biso   1.000  N
  H381     1.0000 0.59640  0.00730  0.80219  Biso   1.000  H
  N56      1.0000 0.72371  0.03278  0.95518  Biso   1.000  N
  H382     1.0000 0.69779  0.09642  0.99270  Biso   1.000  H
  C338     1.0000 0.41211  0.93091  0.85652  Biso   1.000  C
  H383     1.0000 0.34282  0.96878  0.87550  Biso   1.000  H
  H384     1.0000 0.37552  0.84280  0.96878  Biso   1.000  H
  C339     1.0000 0.43089  0.85652  0.91209  Biso   1.000  C
  H385     1.0000 0.62448  0.84280  0.03122  Biso   1.000  H
  N57      1.0000 0.72371  0.96722  0.04482  Biso   1.000  N
  H386     1.0000 0.69779  0.90358  0.00730  Biso   1.000  H
  N58      1.0000 0.54480  0.77631  0.03278  Biso   1.000  N
  H387     1.0000 0.50728  0.80219  0.09642  Biso   1.000  H
  C340     1.0000 0.52718  0.01200  0.72949  Biso   1.000  C
  C341     1.0000 0.77049  0.02720  0.98800  Biso   1.000  C
  C342     1.0000 0.42619  0.96301  0.80969  Biso   1.000  C
  C343     1.0000 0.44120  0.88621  0.86679  Biso   1.000  C
  C344     1.0000 0.46299  0.80969  0.92621  Biso   1.000  C
  C345     1.0000 0.77049  0.97280  0.01200  Biso   1.000  C
  C346     1.0000 0.51202  0.72949  0.02720  Biso   1.000  C
  H388     1.0000 0.55459  0.98271  0.73049  Biso   1.000  H
  C347     1.0000 0.47282  0.98800  0.72949  Biso   1.000  C
  C348     1.0000 0.53481  0.04402  0.68001  Biso   1.000  C
  H389     1.0000 0.76949  0.05461  0.01729  Biso   1.000  H
  C349     1.0000 0.82001  0.03479  0.95598  Biso   1.000  C
  N59      1.0000 0.46720  0.95518  0.77631  Biso   1.000  N
  H390     1.0000 0.40360  0.99270  0.80219  Biso   1.000  H
  H391     1.0000 0.46880  0.87550  0.84280  Biso   1.000  H
  N60      1.0000 0.45520  0.77631  0.96722  Biso   1.000  N
  H392     1.0000 0.49272  0.80219  0.90358  Biso   1.000  H
  H393     1.0000 0.76949  0.94539  0.98271  Biso   1.000  H
  C350     1.0000 0.82001  0.96521  0.04402  Biso   1.000  C
  C351     1.0000 0.48798  0.72949  0.97280  Biso   1.000  C
  H394     1.0000 0.48269  0.73049  0.05461  Biso   1.000  H
  C352     1.0000 0.54400  0.68001  0.03479  Biso   1.000  C
  C353     1.0000 0.46519  0.95598  0.68001  Biso   1.000  C
  H395     1.0000 0.44541  0.01729  0.73049  Biso   1.000  H
  H396     1.0000 0.57132  0.05950  0.68030  Biso   1.000  H
  H397     1.0000 0.50889  0.07411  0.68022  Biso   1.000  H
  C354     1.0000 0.52738  0.01220  0.62862  Biso   1.000  C
  H398     1.0000 0.81968  0.07130  0.94050  Biso   1.000  H
  H399     1.0000 0.81980  0.00891  0.92589  Biso   1.000  H
  C355     1.0000 0.87140  0.02740  0.98780  Biso   1.000  C
  H400     1.0000 0.81968  0.92870  0.05950  Biso   1.000  H
  H401     1.0000 0.81980  0.99109  0.07411  Biso   1.000  H
  C356     1.0000 0.87140  0.97260  0.01220  Biso   1.000  C
  H402     1.0000 0.51731  0.73049  0.94539  Biso   1.000  H
  C357     1.0000 0.45600  0.68001  0.96521  Biso   1.000  C
  H403     1.0000 0.55948  0.68030  0.07130  Biso   1.000  H
  H404     1.0000 0.57409  0.68022  0.00891  Biso   1.000  H
  C358     1.0000 0.51222  0.62862  0.02740  Biso   1.000  C
  H405     1.0000 0.42868  0.94050  0.68030  Biso   1.000  H
  H406     1.0000 0.49111  0.92589  0.68022  Biso   1.000  H
  C359     1.0000 0.47262  0.98780  0.62862  Biso   1.000  C
  H407     1.0000 0.55491  0.98371  0.62621  Biso   1.000  H
  H408     1.0000 0.53160  0.03611  0.59712  Biso   1.000  H
  H409     1.0000 0.87381  0.05489  0.01629  Biso   1.000  H
  H410     1.0000 0.90290  0.03162  0.96389  Biso   1.000  H
  H411     1.0000 0.87381  0.94511  0.98371  Biso   1.000  H
  H412     1.0000 0.90290  0.96838  0.03611  Biso   1.000  H
  H413     1.0000 0.44052  0.68030  0.92870  Biso   1.000  H
  H414     1.0000 0.42591  0.68022  0.99109  Biso   1.000  H
  C360     1.0000 0.48778  0.62862  0.97260  Biso   1.000  C
  H415     1.0000 0.53609  0.59712  0.03162  Biso   1.000  H
  H416     1.0000 0.48369  0.62621  0.05489  Biso   1.000  H
  H417     1.0000 0.46840  0.96389  0.59712  Biso   1.000  H
  H418     1.0000 0.44509  0.01629  0.62621  Biso   1.000  H
  H419     1.0000 0.46391  0.59712  0.96838  Biso   1.000  H
  H420     1.0000 0.51631  0.62621  0.94511  Biso   1.000  H
  C361     1.0000 0.13321  0.44120  0.11379  Biso   1.000  C
  C362     1.0000 0.14348  0.41211  0.06909  Biso   1.000  C
  C363     1.0000 0.08791  0.43089  0.14348  Biso   1.000  C
  H421     1.0000 0.15720  0.46880  0.12450  Biso   1.000  H
  C364     1.0000 0.11379  0.36681  0.05878  Biso   1.000  C
  C365     1.0000 0.19031  0.42619  0.03699  Biso   1.000  C
  C366     1.0000 0.07379  0.46299  0.19031  Biso   1.000  C
  C367     1.0000 0.05878  0.38619  0.13321  Biso   1.000  C
  H422     1.0000 0.12450  0.34282  0.03122  Biso   1.000  H
  C368     1.0000 0.06909  0.35650  0.08791  Biso   1.000  C
  N61      1.0000 0.22369  0.46720  0.04482  Biso   1.000  N
  H423     1.0000 0.19781  0.40360  0.00730  Biso   1.000  H
  N62      1.0000 0.03278  0.45520  0.22369  Biso   1.000  N
  H424     1.0000 0.09642  0.49272  0.19781  Biso   1.000  H
  H425     1.0000 0.03122  0.37552  0.15720  Biso   1.000  H
  C369     1.0000 0.03699  0.30971  0.07379  Biso   1.000  C
  C370     1.0000 0.27051  0.47282  0.01200  Biso   1.000  C
  C371     1.0000 0.02720  0.48798  0.27051  Biso   1.000  C
  N63      1.0000 0.04482  0.27629  0.03278  Biso   1.000  N
  H426     1.0000 0.00730  0.30221  0.09642  Biso   1.000  H
  C372     1.0000 0.31999  0.46519  0.04402  Biso   1.000  C
  C373     1.0000 0.27051  0.52718  0.98800  Biso   1.000  C
  H427     1.0000 0.26951  0.44541  0.98271  Biso   1.000  H
  H428     1.0000 0.05461  0.51731  0.26951  Biso   1.000  H
  C374     1.0000 0.03479  0.45600  0.31999  Biso   1.000  C
  C375     1.0000 0.97280  0.51202  0.27051  Biso   1.000  C
  C376     1.0000 0.01200  0.22951  0.02720  Biso   1.000  C
  H429     1.0000 0.31970  0.42868  0.05950  Biso   1.000  H
  H430     1.0000 0.31978  0.49111  0.07411  Biso   1.000  H
  C377     1.0000 0.37138  0.47262  0.01220  Biso   1.000  C
  H431     1.0000 0.26951  0.55459  0.01729  Biso   1.000  H
  N64      1.0000 0.22369  0.53280  0.95518  Biso   1.000  N
  C378     1.0000 0.31999  0.53481  0.95598  Biso   1.000  C
  H432     1.0000 0.07130  0.44052  0.31970  Biso   1.000  H
  H433     1.0000 0.00891  0.42591  0.31978  Biso   1.000  H
  C379     1.0000 0.02740  0.48778  0.37138  Biso   1.000  C
  N65      1.0000 0.96722  0.54480  0.22369  Biso   1.000  N
  H434     1.0000 0.94539  0.48269  0.26951  Biso   1.000  H
  C380     1.0000 0.96521  0.54400  0.31999  Biso   1.000  C
  C381     1.0000 0.04402  0.17999  0.03479  Biso   1.000  C
  C382     1.0000 0.98800  0.22951  0.97280  Biso   1.000  C
  H435     1.0000 0.98271  0.23051  0.05461  Biso   1.000  H
  H436     1.0000 0.40288  0.46840  0.03611  Biso   1.000  H
  C383     1.0000 0.37138  0.52738  0.98780  Biso   1.000  C
  H437     1.0000 0.37379  0.44509  0.98371  Biso   1.000  H
  C384     1.0000 0.19031  0.57381  0.96301  Biso   1.000  C
  H438     1.0000 0.31970  0.57132  0.94050  Biso   1.000  H
  H439     1.0000 0.31978  0.50889  0.92589  Biso   1.000  H
  H440     1.0000 0.03162  0.46391  0.40288  Biso   1.000  H
  H441     1.0000 0.05489  0.51631  0.37379  Biso   1.000  H
  C385     1.0000 0.97260  0.51222  0.37138  Biso   1.000  C
  C386     1.0000 0.92621  0.53701  0.19031  Biso   1.000  C
  H442     1.0000 0.92870  0.55948  0.31970  Biso   1.000  H
  H443     1.0000 0.99109  0.57409  0.31978  Biso   1.000  H
  H444     1.0000 0.05950  0.18032  0.07130  Biso   1.000  H
  H445     1.0000 0.07411  0.18020  0.00891  Biso   1.000  H
  C387     1.0000 0.01220  0.12860  0.02740  Biso   1.000  C
  N66      1.0000 0.95518  0.27629  0.96722  Biso   1.000  N
  C388     1.0000 0.95598  0.17999  0.96521  Biso   1.000  C
  H446     1.0000 0.01729  0.23051  0.94539  Biso   1.000  H
  H447     1.0000 0.37379  0.55491  0.01629  Biso   1.000  H
  H448     1.0000 0.40288  0.53160  0.96389  Biso   1.000  H
  C389     1.0000 0.14348  0.58789  0.93091  Biso   1.000  C
  H449     1.0000 0.19781  0.59640  0.99270  Biso   1.000  H
  H450     1.0000 0.96838  0.53609  0.40288  Biso   1.000  H
  H451     1.0000 0.94511  0.48369  0.37379  Biso   1.000  H
  C390     1.0000 0.91209  0.56911  0.14348  Biso   1.000  C
  H452     1.0000 0.90358  0.50728  0.19781  Biso   1.000  H
  H453     1.0000 0.03611  0.09710  0.03162  Biso   1.000  H
  C391     1.0000 0.98780  0.12860  0.97260  Biso   1.000  C
  H454     1.0000 0.98371  0.12619  0.05489  Biso   1.000  H
  C392     1.0000 0.96301  0.30971  0.92621  Biso   1.000  C
  H455     1.0000 0.94050  0.18032  0.92870  Biso   1.000  H
  H456     1.0000 0.92589  0.18020  0.99109  Biso   1.000  H
  C393     1.0000 0.13321  0.55880  0.88621  Biso   1.000  C
  C394     1.0000 0.11379  0.63319  0.94122  Biso   1.000  C
  C395     1.0000 0.94122  0.61381  0.13321  Biso   1.000  C
  C396     1.0000 0.86679  0.55880  0.11379  Biso   1.000  C
  H457     1.0000 0.96389  0.09710  0.96838  Biso   1.000  H
  H458     1.0000 0.01629  0.12619  0.94511  Biso   1.000  H
  C397     1.0000 0.93091  0.35650  0.91209  Biso   1.000  C
  H459     1.0000 0.99270  0.30221  0.90358  Biso   1.000  H
  C398     1.0000 0.08791  0.56911  0.85652  Biso   1.000  C
  H460     1.0000 0.15720  0.53120  0.87550  Biso   1.000  H
  C399     1.0000 0.06909  0.64350  0.91209  Biso   1.000  C
  H461     1.0000 0.12450  0.65718  0.96878  Biso   1.000  H
  C400     1.0000 0.93091  0.64350  0.08791  Biso   1.000  C
  H462     1.0000 0.96878  0.62448  0.15720  Biso   1.000  H
  H463     1.0000 0.84280  0.53120  0.12450  Biso   1.000  H
  C401     1.0000 0.85652  0.58789  0.06909  Biso   1.000  C
  C402     1.0000 0.88621  0.36681  0.94122  Biso   1.000  C
  C403     1.0000 0.94122  0.38619  0.86679  Biso   1.000  C
  C404     1.0000 0.05878  0.61381  0.86679  Biso   1.000  C
  C405     1.0000 0.07379  0.53701  0.80969  Biso   1.000  C
  C406     1.0000 0.03699  0.69029  0.92621  Biso   1.000  C
  C407     1.0000 0.96301  0.69029  0.07379  Biso   1.000  C
  C408     1.0000 0.88621  0.63319  0.05878  Biso   1.000  C
  C409     1.0000 0.80969  0.57381  0.03699  Biso   1.000  C
  C410     1.0000 0.85652  0.41211  0.93091  Biso   1.000  C
  H464     1.0000 0.87550  0.34282  0.96878  Biso   1.000  H
  C411     1.0000 0.91209  0.43089  0.85652  Biso   1.000  C
  H465     1.0000 0.96878  0.37552  0.84280  Biso   1.000  H
  H466     1.0000 0.03122  0.62448  0.84280  Biso   1.000  H
  N67      1.0000 0.03278  0.54480  0.77631  Biso   1.000  N
  H467     1.0000 0.09642  0.50728  0.80219  Biso   1.000  H
  N68      1.0000 0.04482  0.72371  0.96722  Biso   1.000  N
  H468     1.0000 0.00730  0.69779  0.90358  Biso   1.000  H
  N69      1.0000 0.95518  0.72371  0.03278  Biso   1.000  N
  H469     1.0000 0.99270  0.69779  0.09642  Biso   1.000  H
  H470     1.0000 0.87550  0.65718  0.03122  Biso   1.000  H
  N70      1.0000 0.77631  0.53280  0.04482  Biso   1.000  N
  H471     1.0000 0.80219  0.59640  0.00730  Biso   1.000  H
  C412     1.0000 0.86679  0.44120  0.88621  Biso   1.000  C
  C413     1.0000 0.80969  0.42619  0.96301  Biso   1.000  C
  C414     1.0000 0.92621  0.46299  0.80969  Biso   1.000  C
  C415     1.0000 0.02720  0.51202  0.72949  Biso   1.000  C
  C416     1.0000 0.01200  0.77049  0.97280  Biso   1.000  C
  C417     1.0000 0.98800  0.77049  0.02720  Biso   1.000  C
  C418     1.0000 0.72949  0.52718  0.01200  Biso   1.000  C
  H472     1.0000 0.84280  0.46880  0.87550  Biso   1.000  H
  N71      1.0000 0.77631  0.46720  0.95518  Biso   1.000  N
  H473     1.0000 0.80219  0.40360  0.99270  Biso   1.000  H
  N72      1.0000 0.96722  0.45520  0.77631  Biso   1.000  N
  H474     1.0000 0.90358  0.49272  0.80219  Biso   1.000  H
  C419     1.0000 0.97280  0.48798  0.72949  Biso   1.000  C
  H475     1.0000 0.05461  0.48269  0.73049  Biso   1.000  H
  C420     1.0000 0.03479  0.54400  0.68001  Biso   1.000  C
  H476     1.0000 0.98271  0.76949  0.94539  Biso   1.000  H
  C421     1.0000 0.04402  0.82001  0.96521  Biso   1.000  C
  H477     1.0000 0.01729  0.76949  0.05461  Biso   1.000  H
  C422     1.0000 0.95598  0.82001  0.03479  Biso   1.000  C
  H478     1.0000 0.73049  0.55459  0.98271  Biso   1.000  H
  C423     1.0000 0.72949  0.47282  0.98800  Biso   1.000  C
  C424     1.0000 0.68001  0.53481  0.04402  Biso   1.000  C
  H479     1.0000 0.94539  0.51731  0.73049  Biso   1.000  H
  C425     1.0000 0.96521  0.45600  0.68001  Biso   1.000  C
  H480     1.0000 0.07130  0.55948  0.68030  Biso   1.000  H
  H481     1.0000 0.00891  0.57409  0.68022  Biso   1.000  H
  C426     1.0000 0.02740  0.51222  0.62862  Biso   1.000  C
  H482     1.0000 0.05950  0.81968  0.92870  Biso   1.000  H
  H483     1.0000 0.07411  0.81980  0.99109  Biso   1.000  H
  C427     1.0000 0.01220  0.87140  0.97260  Biso   1.000  C
  H484     1.0000 0.94050  0.81968  0.07130  Biso   1.000  H
  H485     1.0000 0.92589  0.81980  0.00891  Biso   1.000  H
  C428     1.0000 0.98780  0.87140  0.02740  Biso   1.000  C
  C429     1.0000 0.68001  0.46519  0.95598  Biso   1.000  C
  H486     1.0000 0.73049  0.44541  0.01729  Biso   1.000  H
  H487     1.0000 0.68030  0.57132  0.05950  Biso   1.000  H
  H488     1.0000 0.68022  0.50889  0.07411  Biso   1.000  H
  C430     1.0000 0.62862  0.52738  0.01220  Biso   1.000  C
  H489     1.0000 0.92870  0.44052  0.68030  Biso   1.000  H
  H490     1.0000 0.99109  0.42591  0.68022  Biso   1.000  H
  C431     1.0000 0.97260  0.48778  0.62862  Biso   1.000  C
  H491     1.0000 0.03162  0.53609  0.59712  Biso   1.000  H
  H492     1.0000 0.05489  0.48369  0.62621  Biso   1.000  H
  H493     1.0000 0.98371  0.87381  0.94511  Biso   1.000  H
  H494     1.0000 0.03611  0.90290  0.96838  Biso   1.000  H
  H495     1.0000 0.01629  0.87381  0.05489  Biso   1.000  H
  H496     1.0000 0.96389  0.90290  0.03162  Biso   1.000  H
  H497     1.0000 0.68030  0.42868  0.94050  Biso   1.000  H
  H498     1.0000 0.68022  0.49111  0.92589  Biso   1.000  H
  C432     1.0000 0.62862  0.47262  0.98780  Biso   1.000  C
  H499     1.0000 0.62621  0.55491  0.98371  Biso   1.000  H
  H500     1.0000 0.59712  0.53160  0.03611  Biso   1.000  H
  H501     1.0000 0.96838  0.46391  0.59712  Biso   1.000  H
  H502     1.0000 0.94511  0.51631  0.62621  Biso   1.000  H
  H503     1.0000 0.59712  0.46840  0.96389  Biso   1.000  H
  H504     1.0000 0.62621  0.44509  0.01629  Biso   1.000  H
  C433     1.0000 0.11379  0.13321  0.44120  Biso   1.000  C
  C434     1.0000 0.14348  0.08791  0.43089  Biso   1.000  C
  C435     1.0000 0.06909  0.14348  0.41211  Biso   1.000  C
  H505     1.0000 0.12450  0.15720  0.46880  Biso   1.000  H
  C436     1.0000 0.13321  0.05878  0.38619  Biso   1.000  C
  C437     1.0000 0.19031  0.07379  0.46299  Biso   1.000  C
  C438     1.0000 0.05878  0.11379  0.36681  Biso   1.000  C
  C439     1.0000 0.03699  0.19031  0.42619  Biso   1.000  C
  C440     1.0000 0.08791  0.06909  0.35650  Biso   1.000  C
  H506     1.0000 0.15720  0.03122  0.37552  Biso   1.000  H
  N73      1.0000 0.22369  0.03278  0.45520  Biso   1.000  N
  H507     1.0000 0.19781  0.09642  0.49272  Biso   1.000  H
  H508     1.0000 0.03122  0.12450  0.34282  Biso   1.000  H
  N74      1.0000 0.04482  0.22369  0.46720  Biso   1.000  N
  H509     1.0000 0.00730  0.19781  0.40360  Biso   1.000  H
  C441     1.0000 0.07379  0.03699  0.30971  Biso   1.000  C
  C442     1.0000 0.27051  0.02720  0.48798  Biso   1.000  C
  C443     1.0000 0.01200  0.27051  0.47282  Biso   1.000  C
  N75      1.0000 0.03278  0.04482  0.27629  Biso   1.000  N
  H510     1.0000 0.09642  0.00730  0.30221  Biso   1.000  H
  H511     1.0000 0.26951  0.05461  0.51731  Biso   1.000  H
  C444     1.0000 0.31999  0.03479  0.45600  Biso   1.000  C
  C445     1.0000 0.27051  0.97280  0.51202  Biso   1.000  C
  C446     1.0000 0.04402  0.31999  0.46519  Biso   1.000  C
  H512     1.0000 0.98271  0.26951  0.44541  Biso   1.000  H
  C447     1.0000 0.98800  0.27051  0.52718  Biso   1.000  C
  C448     1.0000 0.02720  0.01200  0.22951  Biso   1.000  C
  H513     1.0000 0.31970  0.07130  0.44052  Biso   1.000  H
  H514     1.0000 0.31978  0.00891  0.42591  Biso   1.000  H
  C449     1.0000 0.37138  0.02740  0.48778  Biso   1.000  C
  N76      1.0000 0.22369  0.96722  0.54480  Biso   1.000  N
  H515     1.0000 0.26951  0.94539  0.48269  Biso   1.000  H
  C450     1.0000 0.31999  0.96521  0.54400  Biso   1.000  C
  H516     1.0000 0.05950  0.31970  0.42868  Biso   1.000  H
  H517     1.0000 0.07411  0.31978  0.49111  Biso   1.000  H
  C451     1.0000 0.01220  0.37138  0.47262  Biso   1.000  C
  H518     1.0000 0.01729  0.26951  0.55459  Biso   1.000  H
  N77      1.0000 0.95518  0.22369  0.53280  Biso   1.000  N
  C452     1.0000 0.95598  0.31999  0.53481  Biso   1.000  C
  C453     1.0000 0.03479  0.04402  0.17999  Biso   1.000  C
  C454     1.0000 0.97280  0.98800  0.22951  Biso   1.000  C
  H519     1.0000 0.05461  0.98271  0.23051  Biso   1.000  H
  H520     1.0000 0.40288  0.03162  0.46391  Biso   1.000  H
  H521     1.0000 0.37379  0.05489  0.51631  Biso   1.000  H
  C455     1.0000 0.37138  0.97260  0.51222  Biso   1.000  C
  C456     1.0000 0.19031  0.92621  0.53701  Biso   1.000  C
  H522     1.0000 0.31970  0.92870  0.55948  Biso   1.000  H
  H523     1.0000 0.31978  0.99109  0.57409  Biso   1.000  H
  H524     1.0000 0.03611  0.40288  0.46840  Biso   1.000  H
  H525     1.0000 0.98371  0.37379  0.44509  Biso   1.000  H
  C457     1.0000 0.98780  0.37138  0.52738  Biso   1.000  C
  C458     1.0000 0.96301  0.19031  0.57381  Biso   1.000  C
  H526     1.0000 0.94050  0.31970  0.57132  Biso   1.000  H
  H527     1.0000 0.92589  0.31978  0.50889  Biso   1.000  H
  H528     1.0000 0.07130  0.05950  0.18032  Biso   1.000  H
  H529     1.0000 0.00891  0.07411  0.18020  Biso   1.000  H
  C459     1.0000 0.02740  0.01220  0.12860  Biso   1.000  C
  N78      1.0000 0.96722  0.95518  0.27629  Biso   1.000  N
  C460     1.0000 0.96521  0.95598  0.17999  Biso   1.000  C
  H530     1.0000 0.94539  0.01729  0.23051  Biso   1.000  H
  H531     1.0000 0.40288  0.96838  0.53609  Biso   1.000  H
  H532     1.0000 0.37379  0.94511  0.48369  Biso   1.000  H
  C461     1.0000 0.14348  0.91209  0.56911  Biso   1.000  C
  H533     1.0000 0.19781  0.90358  0.50728  Biso   1.000  H
  H534     1.0000 0.01629  0.37379  0.55491  Biso   1.000  H
  H535     1.0000 0.96389  0.40288  0.53160  Biso   1.000  H
  C462     1.0000 0.93091  0.14348  0.58789  Biso   1.000  C
  H536     1.0000 0.99270  0.19781  0.59640  Biso   1.000  H
  H537     1.0000 0.03162  0.03611  0.09710  Biso   1.000  H
  C463     1.0000 0.97260  0.98780  0.12860  Biso   1.000  C
  H538     1.0000 0.05489  0.98371  0.12619  Biso   1.000  H
  C464     1.0000 0.92621  0.96301  0.30971  Biso   1.000  C
  H539     1.0000 0.92870  0.94050  0.18032  Biso   1.000  H
  H540     1.0000 0.99109  0.92589  0.18020  Biso   1.000  H
  C465     1.0000 0.11379  0.86679  0.55880  Biso   1.000  C
  C466     1.0000 0.13321  0.94122  0.61381  Biso   1.000  C
  C467     1.0000 0.94122  0.11379  0.63319  Biso   1.000  C
  C468     1.0000 0.88621  0.13321  0.55880  Biso   1.000  C
  H541     1.0000 0.96838  0.96389  0.09710  Biso   1.000  H
  H542     1.0000 0.94511  0.01629  0.12619  Biso   1.000  H
  C469     1.0000 0.91209  0.93091  0.35650  Biso   1.000  C
  H543     1.0000 0.90358  0.99270  0.30221  Biso   1.000  H
  H544     1.0000 0.12450  0.84280  0.53120  Biso   1.000  H
  C470     1.0000 0.06909  0.85652  0.58789  Biso   1.000  C
  C471     1.0000 0.08791  0.93091  0.64350  Biso   1.000  C
  H545     1.0000 0.15720  0.96878  0.62448  Biso   1.000  H
  H546     1.0000 0.96878  0.12450  0.65718  Biso   1.000  H
  C472     1.0000 0.91209  0.06909  0.64350  Biso   1.000  C
  C473     1.0000 0.85652  0.08791  0.56911  Biso   1.000  C
  H547     1.0000 0.87550  0.15720  0.53120  Biso   1.000  H
  C474     1.0000 0.86679  0.94122  0.38619  Biso   1.000  C
  C475     1.0000 0.94122  0.88621  0.36681  Biso   1.000  C
  C476     1.0000 0.05878  0.88621  0.63319  Biso   1.000  C
  C477     1.0000 0.03699  0.80969  0.57381  Biso   1.000  C
  C478     1.0000 0.07379  0.96301  0.69029  Biso   1.000  C
  C479     1.0000 0.86679  0.05878  0.61381  Biso   1.000  C
  C480     1.0000 0.92621  0.03699  0.69029  Biso   1.000  C
  C481     1.0000 0.80969  0.07379  0.53701  Biso   1.000  C
  H548     1.0000 0.84280  0.96878  0.37552  Biso   1.000  H
  C482     1.0000 0.85652  0.91209  0.43089  Biso   1.000  C
  C483     1.0000 0.93091  0.85652  0.41211  Biso   1.000  C
  H549     1.0000 0.96878  0.87550  0.34282  Biso   1.000  H
  H550     1.0000 0.03122  0.87550  0.65718  Biso   1.000  H
  N79      1.0000 0.04482  0.77631  0.53280  Biso   1.000  N
  H551     1.0000 0.00730  0.80219  0.59640  Biso   1.000  H
  N80      1.0000 0.03278  0.95518  0.72371  Biso   1.000  N
  H552     1.0000 0.09642  0.99270  0.69779  Biso   1.000  H
  H553     1.0000 0.84280  0.03122  0.62448  Biso   1.000  H
  N81      1.0000 0.96722  0.04482  0.72371  Biso   1.000  N
  H554     1.0000 0.90358  0.00730  0.69779  Biso   1.000  H
  N82      1.0000 0.77631  0.03278  0.54480  Biso   1.000  N
  H555     1.0000 0.80219  0.09642  0.50728  Biso   1.000  H
  C484     1.0000 0.88621  0.86679  0.44120  Biso   1.000  C
  C485     1.0000 0.80969  0.92621  0.46299  Biso   1.000  C
  C486     1.0000 0.96301  0.80969  0.42619  Biso   1.000  C
  C487     1.0000 0.01200  0.72949  0.52718  Biso   1.000  C
  C488     1.0000 0.02720  0.98800  0.77049  Biso   1.000  C
  C489     1.0000 0.97280  0.01200  0.77049  Biso   1.000  C
  C490     1.0000 0.72949  0.02720  0.51202  Biso   1.000  C
  H556     1.0000 0.87550  0.84280  0.46880  Biso   1.000  H
  N83      1.0000 0.77631  0.96722  0.45520  Biso   1.000  N
  H557     1.0000 0.80219  0.90358  0.49272  Biso   1.000  H
  N84      1.0000 0.95518  0.77631  0.46720  Biso   1.000  N
  H558     1.0000 0.99270  0.80219  0.40360  Biso   1.000  H
  C491     1.0000 0.98800  0.72949  0.47282  Biso   1.000  C
  H559     1.0000 0.98271  0.73049  0.55459  Biso   1.000  H
  C492     1.0000 0.04402  0.68001  0.53481  Biso   1.000  C
  H560     1.0000 0.05461  0.01729  0.76949  Biso   1.000  H
  C493     1.0000 0.03479  0.95598  0.82001  Biso   1.000  C
  H561     1.0000 0.94539  0.98271  0.76949  Biso   1.000  H
  C494     1.0000 0.96521  0.04402  0.82001  Biso   1.000  C
  C495     1.0000 0.72949  0.97280  0.48798  Biso   1.000  C
  H562     1.0000 0.73049  0.05461  0.48269  Biso   1.000  H
  C496     1.0000 0.68001  0.03479  0.54400  Biso   1.000  C
  C497     1.0000 0.95598  0.68001  0.46519  Biso   1.000  C
  H563     1.0000 0.01729  0.73049  0.44541  Biso   1.000  H
  H564     1.0000 0.05950  0.68030  0.57132  Biso   1.000  H
  H565     1.0000 0.07411  0.68022  0.50889  Biso   1.000  H
  C498     1.0000 0.01220  0.62862  0.52738  Biso   1.000  C
  H566     1.0000 0.07130  0.94050  0.81968  Biso   1.000  H
  H567     1.0000 0.00891  0.92589  0.81980  Biso   1.000  H
  C499     1.0000 0.02740  0.98780  0.87140  Biso   1.000  C
  H568     1.0000 0.92870  0.05950  0.81968  Biso   1.000  H
  H569     1.0000 0.99109  0.07411  0.81980  Biso   1.000  H
  C500     1.0000 0.97260  0.01220  0.87140  Biso   1.000  C
  H570     1.0000 0.73049  0.94539  0.51731  Biso   1.000  H
  C501     1.0000 0.68001  0.96521  0.45600  Biso   1.000  C
  C502     1.0000 0.62862  0.02740  0.51222  Biso   1.000  C
  H571     1.0000 0.68030  0.07130  0.55948  Biso   1.000  H
  H572     1.0000 0.68022  0.00891  0.57409  Biso   1.000  H
  H573     1.0000 0.94050  0.68030  0.42868  Biso   1.000  H
  H574     1.0000 0.92589  0.68022  0.49111  Biso   1.000  H
  C503     1.0000 0.98780  0.62862  0.47262  Biso   1.000  C
  H575     1.0000 0.98371  0.62621  0.55491  Biso   1.000  H
  H576     1.0000 0.03611  0.59712  0.53160  Biso   1.000  H
  H577     1.0000 0.05489  0.01629  0.87381  Biso   1.000  H
  H578     1.0000 0.03162  0.96389  0.90290  Biso   1.000  H
  H579     1.0000 0.94511  0.98371  0.87381  Biso   1.000  H
  H580     1.0000 0.96838  0.03611  0.90290  Biso   1.000  H
  H581     1.0000 0.68030  0.92870  0.44052  Biso   1.000  H
  H582     1.0000 0.68022  0.99109  0.42591  Biso   1.000  H
  C504     1.0000 0.62862  0.97260  0.48778  Biso   1.000  C
  H583     1.0000 0.59712  0.03162  0.53609  Biso   1.000  H
  H584     1.0000 0.62621  0.05489  0.48369  Biso   1.000  H
  H585     1.0000 0.96389  0.59712  0.46840  Biso   1.000  H
  H586     1.0000 0.01629  0.62621  0.44509  Biso   1.000  H
  H587     1.0000 0.59712  0.96838  0.46391  Biso   1.000  H
  H588     1.0000 0.62621  0.94511  0.51631  Biso   1.000  H
  C505     1.0000 0.76219  0.72259  0.37861  Biso   1.000  C
  C506     1.0000 0.73779  0.77739  0.37861  Biso   1.000  C
  C507     1.0000 0.79401  0.71520  0.43000  Biso   1.000  C
  H589     1.0000 0.78610  0.71841  0.34711  Biso   1.000  H
  H590     1.0000 0.73370  0.69510  0.37620  Biso   1.000  H
  C508     1.0000 0.70601  0.78482  0.43000  Biso   1.000  C
  H591     1.0000 0.71392  0.78161  0.34711  Biso   1.000  H
  H592     1.0000 0.76628  0.80492  0.37620  Biso   1.000  H
  C509     1.0000 0.76199  0.72279  0.47952  Biso   1.000  C
  H593     1.0000 0.80949  0.67869  0.43029  Biso   1.000  H
  H594     1.0000 0.82410  0.74108  0.43021  Biso   1.000  H
  C510     1.0000 0.73799  0.77719  0.47952  Biso   1.000  C
  H595     1.0000 0.69049  0.82129  0.43029  Biso   1.000  H
  H596     1.0000 0.67588  0.75890  0.43021  Biso   1.000  H
  N85      1.0000 0.79481  0.71721  0.52630  Biso   1.000  N
  H597     1.0000 0.73270  0.69538  0.48052  Biso   1.000  H
  N86      1.0000 0.70521  0.78281  0.52630  Biso   1.000  N
  H598     1.0000 0.76728  0.80460  0.48052  Biso   1.000  H
  C511     1.0000 0.78698  0.67620  0.55968  Biso   1.000  C
  C512     1.0000 0.71300  0.82382  0.55968  Biso   1.000  C
  C513     1.0000 0.81908  0.66212  0.60651  Biso   1.000  C
  H599     1.0000 0.75729  0.65361  0.55218  Biso   1.000  H
  C514     1.0000 0.68090  0.83790  0.60651  Biso   1.000  C
  H600     1.0000 0.74269  0.84641  0.55218  Biso   1.000  H
  C515     1.0000 0.80881  0.61682  0.63620  Biso   1.000  C
  C516     1.0000 0.86378  0.69121  0.61682  Biso   1.000  C
  C517     1.0000 0.63620  0.80881  0.61682  Biso   1.000  C
  C518     1.0000 0.69121  0.88320  0.63620  Biso   1.000  C
  H601     1.0000 0.78121  0.59279  0.62549  Biso   1.000  H
  C519     1.0000 0.83790  0.60651  0.68090  Biso   1.000  C
  C520     1.0000 0.89351  0.68090  0.66212  Biso   1.000  C
  H602     1.0000 0.87449  0.71881  0.59279  Biso   1.000  H
  C521     1.0000 0.60651  0.81908  0.66212  Biso   1.000  C
  H603     1.0000 0.62549  0.78121  0.59279  Biso   1.000  H
  H604     1.0000 0.71881  0.90719  0.62549  Biso   1.000  H
  C522     1.0000 0.66212  0.89351  0.68090  Biso   1.000  C
  C523     1.0000 0.88320  0.63620  0.69121  Biso   1.000  C
  C524     1.0000 0.82382  0.55968  0.71300  Biso   1.000  C
  C525     1.0000 0.94030  0.71300  0.67620  Biso   1.000  C
  C526     1.0000 0.55968  0.78698  0.67620  Biso   1.000  C
  C527     1.0000 0.61682  0.86378  0.69121  Biso   1.000  C
  C528     1.0000 0.67620  0.94030  0.71300  Biso   1.000  C
  H605     1.0000 0.90719  0.62549  0.71881  Biso   1.000  H
  N87      1.0000 0.78281  0.52630  0.70521  Biso   1.000  N
  H606     1.0000 0.84641  0.55218  0.74269  Biso   1.000  H
  N88      1.0000 0.97372  0.70521  0.71721  Biso   1.000  N
  H607     1.0000 0.94780  0.74269  0.65361  Biso   1.000  H
  N89      1.0000 0.52630  0.79481  0.71721  Biso   1.000  N
  H608     1.0000 0.55218  0.75729  0.65361  Biso   1.000  H
  H609     1.0000 0.59279  0.87449  0.71881  Biso   1.000  H
  N90      1.0000 0.71721  0.97372  0.70521  Biso   1.000  N
  H610     1.0000 0.65361  0.94780  0.74269  Biso   1.000  H
  C529     1.0000 0.77719  0.47952  0.73799  Biso   1.000  C
  C530     1.0000 0.02050  0.73799  0.72279  Biso   1.000  C
  C531     1.0000 0.47952  0.76199  0.72279  Biso   1.000  C
  C532     1.0000 0.72279  0.02050  0.73799  Biso   1.000  C
  C533     1.0000 0.72279  0.47952  0.76199  Biso   1.000  C
  H611     1.0000 0.80460  0.48052  0.76728  Biso   1.000  H
  C534     1.0000 0.78482  0.43000  0.70601  Biso   1.000  C
  H612     1.0000 0.01950  0.76728  0.69538  Biso   1.000  H
  C535     1.0000 0.07002  0.70601  0.71520  Biso   1.000  C
  C536     1.0000 0.02050  0.76199  0.77719  Biso   1.000  C
  H613     1.0000 0.48052  0.73270  0.69538  Biso   1.000  H
  C537     1.0000 0.43000  0.79401  0.71520  Biso   1.000  C
  C538     1.0000 0.47952  0.73799  0.77719  Biso   1.000  C
  H614     1.0000 0.69538  0.01950  0.76728  Biso   1.000  H
  C539     1.0000 0.71520  0.07002  0.70601  Biso   1.000  C
  C540     1.0000 0.77719  0.02050  0.76199  Biso   1.000  C
  N91      1.0000 0.71721  0.52630  0.79481  Biso   1.000  N
  H615     1.0000 0.69538  0.48052  0.73270  Biso   1.000  H
  C541     1.0000 0.71520  0.43000  0.79401  Biso   1.000  C
  H616     1.0000 0.82129  0.43029  0.69049  Biso   1.000  H
  H617     1.0000 0.75890  0.43021  0.67588  Biso   1.000  H
  C542     1.0000 0.77739  0.37861  0.73779  Biso   1.000  C
  H618     1.0000 0.06969  0.69049  0.67869  Biso   1.000  H
  H619     1.0000 0.06982  0.67588  0.74108  Biso   1.000  H
  C543     1.0000 0.12141  0.73779  0.72259  Biso   1.000  C
  N92      1.0000 0.97372  0.79481  0.78281  Biso   1.000  N
  H620     1.0000 0.01950  0.73270  0.80460  Biso   1.000  H
  C544     1.0000 0.07002  0.79401  0.78482  Biso   1.000  C
  H621     1.0000 0.43029  0.80949  0.67869  Biso   1.000  H
  H622     1.0000 0.43021  0.82410  0.74108  Biso   1.000  H
  C545     1.0000 0.37861  0.76219  0.72259  Biso   1.000  C
  N93      1.0000 0.52630  0.70521  0.78281  Biso   1.000  N
  H623     1.0000 0.48052  0.76728  0.80460  Biso   1.000  H
  C546     1.0000 0.43000  0.70601  0.78482  Biso   1.000  C
  H624     1.0000 0.67869  0.06969  0.69049  Biso   1.000  H
  H625     1.0000 0.74108  0.06982  0.67588  Biso   1.000  H
  C547     1.0000 0.72259  0.12141  0.73779  Biso   1.000  C
  N94      1.0000 0.78281  0.97372  0.79481  Biso   1.000  N
  H626     1.0000 0.80460  0.01950  0.73270  Biso   1.000  H
  C548     1.0000 0.78482  0.07002  0.79401  Biso   1.000  C
  C549     1.0000 0.67620  0.55968  0.78698  Biso   1.000  C
  H627     1.0000 0.67869  0.43029  0.80949  Biso   1.000  H
  H628     1.0000 0.74108  0.43021  0.82410  Biso   1.000  H
  C550     1.0000 0.72259  0.37861  0.76219  Biso   1.000  C
  H629     1.0000 0.78161  0.34711  0.71392  Biso   1.000  H
  H630     1.0000 0.80492  0.37620  0.76628  Biso   1.000  H
  H631     1.0000 0.15291  0.71392  0.71841  Biso   1.000  H
  H632     1.0000 0.12378  0.76628  0.69510  Biso   1.000  H
  C551     1.0000 0.12141  0.76219  0.77739  Biso   1.000  C
  C552     1.0000 0.94030  0.78698  0.82382  Biso   1.000  C
  H633     1.0000 0.06969  0.80949  0.82129  Biso   1.000  H
  H634     1.0000 0.06982  0.82410  0.75890  Biso   1.000  H
  H635     1.0000 0.34711  0.78610  0.71841  Biso   1.000  H
  H636     1.0000 0.37620  0.73370  0.69510  Biso   1.000  H
  C553     1.0000 0.37861  0.73779  0.77739  Biso   1.000  C
  C554     1.0000 0.55968  0.71300  0.82382  Biso   1.000  C
  H637     1.0000 0.43029  0.69049  0.82129  Biso   1.000  H
  H638     1.0000 0.43021  0.67588  0.75890  Biso   1.000  H
  H639     1.0000 0.71841  0.15291  0.71392  Biso   1.000  H
  H640     1.0000 0.69510  0.12378  0.76628  Biso   1.000  H
  C555     1.0000 0.77739  0.12141  0.76219  Biso   1.000  C
  C556     1.0000 0.82382  0.94030  0.78698  Biso   1.000  C
  H641     1.0000 0.82129  0.06969  0.80949  Biso   1.000  H
  H642     1.0000 0.75890  0.06982  0.82410  Biso   1.000  H
  C557     1.0000 0.66212  0.60651  0.81908  Biso   1.000  C
  H643     1.0000 0.65361  0.55218  0.75729  Biso   1.000  H
  H644     1.0000 0.71841  0.34711  0.78610  Biso   1.000  H
  H645     1.0000 0.69510  0.37620  0.73370  Biso   1.000  H
  H646     1.0000 0.15291  0.78610  0.78161  Biso   1.000  H
  H647     1.0000 0.12378  0.73370  0.80492  Biso   1.000  H
  C558     1.0000 0.89351  0.81908  0.83790  Biso   1.000  C
  H648     1.0000 0.94780  0.75729  0.84641  Biso   1.000  H
  H649     1.0000 0.34711  0.71392  0.78161  Biso   1.000  H
  H650     1.0000 0.37620  0.76628  0.80492  Biso   1.000  H
  C559     1.0000 0.60651  0.68090  0.83790  Biso   1.000  C
  H651     1.0000 0.55218  0.74269  0.84641  Biso   1.000  H
  H652     1.0000 0.78161  0.15291  0.78610  Biso   1.000  H
  H653     1.0000 0.80492  0.12378  0.73370  Biso   1.000  H
  C560     1.0000 0.83790  0.89351  0.81908  Biso   1.000  C
  H654     1.0000 0.84641  0.94780  0.75729  Biso   1.000  H
  C561     1.0000 0.69121  0.61682  0.86378  Biso   1.000  C
  C562     1.0000 0.61682  0.63620  0.80881  Biso   1.000  C
  C563     1.0000 0.88320  0.86378  0.80881  Biso   1.000  C
  C564     1.0000 0.86378  0.80881  0.88320  Biso   1.000  C
  C565     1.0000 0.63620  0.69121  0.88320  Biso   1.000  C
  C566     1.0000 0.80881  0.88320  0.86378  Biso   1.000  C
  C567     1.0000 0.68090  0.66212  0.89351  Biso   1.000  C
  H655     1.0000 0.71881  0.59279  0.87449  Biso   1.000  H
  H656     1.0000 0.59279  0.62549  0.78121  Biso   1.000  H
  H657     1.0000 0.90719  0.87449  0.78121  Biso   1.000  H
  C568     1.0000 0.81908  0.83790  0.89351  Biso   1.000  C
  H658     1.0000 0.87449  0.78121  0.90719  Biso   1.000  H
  H659     1.0000 0.62549  0.71881  0.90719  Biso   1.000  H
  H660     1.0000 0.78121  0.90719  0.87449  Biso   1.000  H
  C569     1.0000 0.71300  0.67620  0.94030  Biso   1.000  C
  C570     1.0000 0.78698  0.82382  0.94030  Biso   1.000  C
  N95      1.0000 0.70521  0.71721  0.97372  Biso   1.000  N
  H661     1.0000 0.74269  0.65361  0.94780  Biso   1.000  H
  N96      1.0000 0.79481  0.78281  0.97372  Biso   1.000  N
  H662     1.0000 0.75729  0.84641  0.94780  Biso   1.000  H
  C571     1.0000 0.73799  0.72279  0.02050  Biso   1.000  C
  C572     1.0000 0.76199  0.77719  0.02050  Biso   1.000  C
  H663     1.0000 0.76728  0.69538  0.01950  Biso   1.000  H
  C573     1.0000 0.70601  0.71520  0.07002  Biso   1.000  C
  H664     1.0000 0.73270  0.80460  0.01950  Biso   1.000  H
  C574     1.0000 0.79401  0.78482  0.07002  Biso   1.000  C
  H665     1.0000 0.69049  0.67869  0.06969  Biso   1.000  H
  H666     1.0000 0.67588  0.74108  0.06982  Biso   1.000  H
  C575     1.0000 0.73779  0.72259  0.12141  Biso   1.000  C
  H667     1.0000 0.80949  0.82129  0.06969  Biso   1.000  H
  H668     1.0000 0.82410  0.75890  0.06982  Biso   1.000  H
  C576     1.0000 0.76219  0.77739  0.12141  Biso   1.000  C
  H669     1.0000 0.71392  0.71841  0.15291  Biso   1.000  H
  H670     1.0000 0.76628  0.69510  0.12378  Biso   1.000  H
  H671     1.0000 0.78610  0.78161  0.15291  Biso   1.000  H
  H672     1.0000 0.73370  0.80492  0.12378  Biso   1.000  H
