data_image0
_cell_length_a       24.951
_cell_length_b       24.951
_cell_length_c       24.951
_cell_angle_alpha    90
_cell_angle_beta     90
_cell_angle_gamma    90

_symmetry_space_group_name_H-M    "P 1"
_symmetry_int_tables_number       1

loop_
  _symmetry_equiv_pos_as_xyz
  'x, y, z'

loop_
  _atom_site_label
  _atom_site_occupancy
  _atom_site_fract_x
  _atom_site_fract_y
  _atom_site_fract_z
  _atom_site_thermal_displace_type
  _atom_site_B_iso_or_equiv
  _atom_site_type_symbol
  C1       1.0000 0.44139  0.38403  0.36668  Biso   1.000  C
  H1       1.0000 0.47128  0.37441  0.34520  Biso   1.000  H
  C2       1.0000 0.42856  0.35321  0.41117  Biso   1.000  C
  C3       1.0000 0.41117  0.42856  0.35321  Biso   1.000  C
  C4       1.0000 0.38403  0.36668  0.44139  Biso   1.000  C
  C5       1.0000 0.46291  0.30708  0.42523  Biso   1.000  C
  C6       1.0000 0.36668  0.44139  0.38403  Biso   1.000  C
  C7       1.0000 0.42523  0.46291  0.30708  Biso   1.000  C
  H2       1.0000 0.37441  0.34520  0.47128  Biso   1.000  H
  C8       1.0000 0.35321  0.41117  0.42856  Biso   1.000  C
  N1       1.0000 0.45409  0.27646  0.46467  Biso   1.000  N
  H3       1.0000 0.49329  0.29999  0.40339  Biso   1.000  H
  H4       1.0000 0.34520  0.47128  0.37441  Biso   1.000  H
  N2       1.0000 0.46467  0.45409  0.27646  Biso   1.000  N
  H5       1.0000 0.40339  0.49329  0.29999  Biso   1.000  H
  C9       1.0000 0.30708  0.42523  0.46291  Biso   1.000  C
  C10      1.0000 0.48860  0.23009  0.47229  Biso   1.000  C
  C11      1.0000 0.47229  0.48860  0.23009  Biso   1.000  C
  N3       1.0000 0.27646  0.46467  0.45409  Biso   1.000  N
  H6       1.0000 0.29999  0.40339  0.49329  Biso   1.000  H
  C12      1.0000 0.51140  0.23009  0.52771  Biso   1.000  C
  H7       1.0000 0.51862  0.23149  0.44571  Biso   1.000  H
  C13      1.0000 0.45710  0.18007  0.46359  Biso   1.000  C
  C14      1.0000 0.52771  0.51140  0.23009  Biso   1.000  C
  H8       1.0000 0.44571  0.51862  0.23149  Biso   1.000  H
  C15      1.0000 0.46359  0.45710  0.18007  Biso   1.000  C
  C16      1.0000 0.23009  0.47229  0.48860  Biso   1.000  C
  N4       1.0000 0.54591  0.27646  0.53533  Biso   1.000  N
  H9       1.0000 0.48138  0.23149  0.55429  Biso   1.000  H
  C17      1.0000 0.54290  0.18007  0.53641  Biso   1.000  C
  H10      1.0000 0.44279  0.17999  0.42660  Biso   1.000  H
  H11      1.0000 0.42620  0.17979  0.48860  Biso   1.000  H
  C18      1.0000 0.49008  0.12965  0.47221  Biso   1.000  C
  N5       1.0000 0.53533  0.54591  0.27646  Biso   1.000  N
  H12      1.0000 0.55429  0.48138  0.23149  Biso   1.000  H
  C19      1.0000 0.53641  0.54290  0.18007  Biso   1.000  C
  H13      1.0000 0.42660  0.44279  0.17999  Biso   1.000  H
  H14      1.0000 0.48860  0.42620  0.17979  Biso   1.000  H
  C20      1.0000 0.47221  0.49008  0.12965  Biso   1.000  C
  C21      1.0000 0.23009  0.52771  0.51140  Biso   1.000  C
  H15      1.0000 0.23149  0.44571  0.51862  Biso   1.000  H
  C22      1.0000 0.18007  0.46359  0.45710  Biso   1.000  C
  C23      1.0000 0.53709  0.30708  0.57477  Biso   1.000  C
  H16      1.0000 0.55721  0.17999  0.57340  Biso   1.000  H
  H17      1.0000 0.57380  0.17979  0.51140  Biso   1.000  H
  C24      1.0000 0.50992  0.12965  0.52779  Biso   1.000  C
  H18      1.0000 0.46772  0.09751  0.46579  Biso   1.000  H
  H19      1.0000 0.52058  0.12889  0.44692  Biso   1.000  H
  C25      1.0000 0.57477  0.53709  0.30708  Biso   1.000  C
  H20      1.0000 0.57340  0.55721  0.17999  Biso   1.000  H
  H21      1.0000 0.51140  0.57380  0.17979  Biso   1.000  H
  C26      1.0000 0.52779  0.50992  0.12965  Biso   1.000  C
  H22      1.0000 0.46579  0.46772  0.09751  Biso   1.000  H
  H23      1.0000 0.44692  0.52058  0.12889  Biso   1.000  H
  N6       1.0000 0.27646  0.53533  0.54591  Biso   1.000  N
  H24      1.0000 0.23149  0.55429  0.48138  Biso   1.000  H
  C27      1.0000 0.18007  0.53641  0.54290  Biso   1.000  C
  H25      1.0000 0.17999  0.42660  0.44279  Biso   1.000  H
  H26      1.0000 0.17979  0.48860  0.42620  Biso   1.000  H
  C28      1.0000 0.12965  0.47221  0.49008  Biso   1.000  C
  C29      1.0000 0.57144  0.35321  0.58883  Biso   1.000  C
  H27      1.0000 0.50671  0.29999  0.59661  Biso   1.000  H
  H28      1.0000 0.53228  0.09751  0.53421  Biso   1.000  H
  H29      1.0000 0.47942  0.12889  0.55308  Biso   1.000  H
  C30      1.0000 0.58883  0.57144  0.35321  Biso   1.000  C
  H30      1.0000 0.59661  0.50671  0.29999  Biso   1.000  H
  H31      1.0000 0.53421  0.53228  0.09751  Biso   1.000  H
  H32      1.0000 0.55308  0.47942  0.12889  Biso   1.000  H
  C31      1.0000 0.30708  0.57477  0.53709  Biso   1.000  C
  H33      1.0000 0.17999  0.57340  0.55721  Biso   1.000  H
  H34      1.0000 0.17979  0.51140  0.57380  Biso   1.000  H
  C32      1.0000 0.12965  0.52779  0.50992  Biso   1.000  C
  H35      1.0000 0.09751  0.46579  0.46772  Biso   1.000  H
  H36      1.0000 0.12889  0.44692  0.52058  Biso   1.000  H
  C33      1.0000 0.55861  0.38403  0.63332  Biso   1.000  C
  C34      1.0000 0.61597  0.36668  0.55861  Biso   1.000  C
  C35      1.0000 0.63332  0.55861  0.38403  Biso   1.000  C
  C36      1.0000 0.55861  0.61597  0.36668  Biso   1.000  C
  C37      1.0000 0.35321  0.58883  0.57144  Biso   1.000  C
  H37      1.0000 0.29999  0.59661  0.50671  Biso   1.000  H
  H38      1.0000 0.09751  0.53421  0.53228  Biso   1.000  H
  H39      1.0000 0.12889  0.55308  0.47942  Biso   1.000  H
  H40      1.0000 0.52872  0.37441  0.65480  Biso   1.000  H
  C38      1.0000 0.58883  0.42856  0.64679  Biso   1.000  C
  H41      1.0000 0.62559  0.34520  0.52872  Biso   1.000  H
  C39      1.0000 0.64679  0.41117  0.57144  Biso   1.000  C
  H42      1.0000 0.65480  0.52872  0.37441  Biso   1.000  H
  C40      1.0000 0.64679  0.58883  0.42856  Biso   1.000  C
  H43      1.0000 0.52872  0.62559  0.34520  Biso   1.000  H
  C41      1.0000 0.57144  0.64679  0.41117  Biso   1.000  C
  C42      1.0000 0.36668  0.55861  0.61597  Biso   1.000  C
  C43      1.0000 0.38403  0.63332  0.55861  Biso   1.000  C
  C44      1.0000 0.63332  0.44139  0.61597  Biso   1.000  C
  C45      1.0000 0.57477  0.46291  0.69292  Biso   1.000  C
  C46      1.0000 0.69292  0.42523  0.53709  Biso   1.000  C
  C47      1.0000 0.61597  0.63332  0.44139  Biso   1.000  C
  C48      1.0000 0.69292  0.57477  0.46291  Biso   1.000  C
  C49      1.0000 0.53709  0.69292  0.42523  Biso   1.000  C
  H44      1.0000 0.34520  0.52872  0.62559  Biso   1.000  H
  C50      1.0000 0.41117  0.57144  0.64679  Biso   1.000  C
  H45      1.0000 0.37441  0.65480  0.52872  Biso   1.000  H
  C51      1.0000 0.42856  0.64679  0.58883  Biso   1.000  C
  H46      1.0000 0.65480  0.47128  0.62559  Biso   1.000  H
  N7       1.0000 0.53533  0.45409  0.72354  Biso   1.000  N
  H47      1.0000 0.59661  0.49329  0.70001  Biso   1.000  H
  N8       1.0000 0.72354  0.46467  0.54591  Biso   1.000  N
  H48      1.0000 0.70001  0.40339  0.50671  Biso   1.000  H
  H49      1.0000 0.62559  0.65480  0.47128  Biso   1.000  H
  N9       1.0000 0.72354  0.53533  0.45409  Biso   1.000  N
  H50      1.0000 0.70001  0.59661  0.49329  Biso   1.000  H
  N10      1.0000 0.54591  0.72354  0.46467  Biso   1.000  N
  H51      1.0000 0.50671  0.70001  0.40339  Biso   1.000  H
  C52      1.0000 0.44139  0.61597  0.63332  Biso   1.000  C
  C53      1.0000 0.42523  0.53709  0.69292  Biso   1.000  C
  C54      1.0000 0.46291  0.69292  0.57477  Biso   1.000  C
  C55      1.0000 0.52771  0.48860  0.76991  Biso   1.000  C
  C56      1.0000 0.76991  0.47229  0.51140  Biso   1.000  C
  C57      1.0000 0.76991  0.52771  0.48860  Biso   1.000  C
  C58      1.0000 0.51140  0.76991  0.47229  Biso   1.000  C
  H52      1.0000 0.47128  0.62559  0.65480  Biso   1.000  H
  N11      1.0000 0.46467  0.54591  0.72354  Biso   1.000  N
  H53      1.0000 0.40339  0.50671  0.70001  Biso   1.000  H
  N12      1.0000 0.45409  0.72354  0.53533  Biso   1.000  N
  H54      1.0000 0.49329  0.70001  0.59661  Biso   1.000  H
  C59      1.0000 0.47229  0.51140  0.76991  Biso   1.000  C
  H55      1.0000 0.55429  0.51862  0.76851  Biso   1.000  H
  C60      1.0000 0.53641  0.45710  0.81993  Biso   1.000  C
  H56      1.0000 0.76851  0.44571  0.48138  Biso   1.000  H
  C61      1.0000 0.81993  0.46359  0.54290  Biso   1.000  C
  H57      1.0000 0.76851  0.55429  0.51862  Biso   1.000  H
  C62      1.0000 0.81993  0.53641  0.45710  Biso   1.000  C
  C63      1.0000 0.48860  0.76991  0.52771  Biso   1.000  C
  H58      1.0000 0.48138  0.76851  0.44571  Biso   1.000  H
  C64      1.0000 0.54290  0.81993  0.46359  Biso   1.000  C
  H59      1.0000 0.44571  0.48138  0.76851  Biso   1.000  H
  C65      1.0000 0.46359  0.54290  0.81993  Biso   1.000  C
  H60      1.0000 0.57340  0.44279  0.82001  Biso   1.000  H
  H61      1.0000 0.51140  0.42620  0.82021  Biso   1.000  H
  C66      1.0000 0.52779  0.49008  0.87035  Biso   1.000  C
  H62      1.0000 0.82001  0.42660  0.55721  Biso   1.000  H
  H63      1.0000 0.82021  0.48860  0.57380  Biso   1.000  H
  C67      1.0000 0.87035  0.47221  0.50992  Biso   1.000  C
  H64      1.0000 0.82001  0.57340  0.44279  Biso   1.000  H
  H65      1.0000 0.82021  0.51140  0.42620  Biso   1.000  H
  C68      1.0000 0.87035  0.52779  0.49008  Biso   1.000  C
  H66      1.0000 0.51862  0.76851  0.55429  Biso   1.000  H
  C69      1.0000 0.45710  0.81993  0.53641  Biso   1.000  C
  H67      1.0000 0.55721  0.82001  0.42660  Biso   1.000  H
  H68      1.0000 0.57380  0.82021  0.48860  Biso   1.000  H
  C70      1.0000 0.50992  0.87035  0.47221  Biso   1.000  C
  H69      1.0000 0.42660  0.55721  0.82001  Biso   1.000  H
  H70      1.0000 0.48860  0.57380  0.82021  Biso   1.000  H
  C71      1.0000 0.47221  0.50992  0.87035  Biso   1.000  C
  H71      1.0000 0.53421  0.46772  0.90249  Biso   1.000  H
  H72      1.0000 0.55308  0.52058  0.87111  Biso   1.000  H
  H73      1.0000 0.90249  0.46579  0.53228  Biso   1.000  H
  H74      1.0000 0.87111  0.44692  0.47942  Biso   1.000  H
  H75      1.0000 0.90249  0.53421  0.46772  Biso   1.000  H
  H76      1.0000 0.87111  0.55308  0.52058  Biso   1.000  H
  H77      1.0000 0.44279  0.82001  0.57340  Biso   1.000  H
  H78      1.0000 0.42620  0.82021  0.51140  Biso   1.000  H
  C72      1.0000 0.49008  0.87035  0.52779  Biso   1.000  C
  H79      1.0000 0.53228  0.90249  0.46579  Biso   1.000  H
  H80      1.0000 0.47942  0.87111  0.44692  Biso   1.000  H
  H81      1.0000 0.46579  0.53228  0.90249  Biso   1.000  H
  H82      1.0000 0.44692  0.47942  0.87111  Biso   1.000  H
  H83      1.0000 0.46772  0.90249  0.53421  Biso   1.000  H
  H84      1.0000 0.52058  0.87111  0.55308  Biso   1.000  H
  C73      1.0000 0.37966  0.24011  0.27778  Biso   1.000  C
  C74      1.0000 0.43008  0.20709  0.28640  Biso   1.000  C
  C75      1.0000 0.37966  0.25991  0.22220  Biso   1.000  C
  H85      1.0000 0.34748  0.21771  0.28420  Biso   1.000  H
  H86      1.0000 0.37890  0.27061  0.30311  Biso   1.000  H
  C76      1.0000 0.48006  0.23863  0.27770  Biso   1.000  C
  H87      1.0000 0.43000  0.19282  0.32339  Biso   1.000  H
  H88      1.0000 0.42980  0.17619  0.26139  Biso   1.000  H
  C77      1.0000 0.43008  0.29289  0.21362  Biso   1.000  C
  H89      1.0000 0.34748  0.28231  0.21578  Biso   1.000  H
  H90      1.0000 0.37890  0.22941  0.19691  Biso   1.000  H
  N13      1.0000 0.52643  0.20408  0.28536  Biso   1.000  N
  C78      1.0000 0.48006  0.26139  0.22228  Biso   1.000  C
  H91      1.0000 0.48150  0.26861  0.30432  Biso   1.000  H
  H92      1.0000 0.43000  0.30720  0.17659  Biso   1.000  H
  H93      1.0000 0.42980  0.32379  0.23859  Biso   1.000  H
  C79      1.0000 0.55709  0.21290  0.32480  Biso   1.000  C
  N14      1.0000 0.52643  0.29590  0.21466  Biso   1.000  N
  H94      1.0000 0.48150  0.23141  0.19570  Biso   1.000  H
  C80      1.0000 0.60322  0.17855  0.33882  Biso   1.000  C
  H95      1.0000 0.55000  0.24332  0.34660  Biso   1.000  H
  C81      1.0000 0.55709  0.28708  0.17522  Biso   1.000  C
  C82      1.0000 0.63400  0.19138  0.38331  Biso   1.000  C
  C83      1.0000 0.61669  0.13402  0.30860  Biso   1.000  C
  C84      1.0000 0.60322  0.32143  0.16116  Biso   1.000  C
  H96      1.0000 0.55000  0.25670  0.15338  Biso   1.000  H
  H97      1.0000 0.62438  0.22131  0.40479  Biso   1.000  H
  C85      1.0000 0.67857  0.16116  0.39678  Biso   1.000  C
  H98      1.0000 0.59521  0.12440  0.27871  Biso   1.000  H
  C86      1.0000 0.66118  0.10320  0.32143  Biso   1.000  C
  C87      1.0000 0.61669  0.36600  0.19138  Biso   1.000  C
  C88      1.0000 0.63400  0.30860  0.11667  Biso   1.000  C
  C89      1.0000 0.69140  0.11667  0.36600  Biso   1.000  C
  C90      1.0000 0.71292  0.17522  0.44291  Biso   1.000  C
  C91      1.0000 0.67520  0.05707  0.28708  Biso   1.000  C
  H99      1.0000 0.59521  0.37562  0.22131  Biso   1.000  H
  C92      1.0000 0.66118  0.39678  0.17855  Biso   1.000  C
  H100     1.0000 0.62438  0.27871  0.09519  Biso   1.000  H
  C93      1.0000 0.67857  0.33882  0.10320  Biso   1.000  C
  H101     1.0000 0.72129  0.09519  0.37562  Biso   1.000  H
  N15      1.0000 0.70410  0.21466  0.47357  Biso   1.000  N
  H102     1.0000 0.74330  0.15338  0.45000  Biso   1.000  H
  N16      1.0000 0.71464  0.02645  0.29590  Biso   1.000  N
  H103     1.0000 0.65340  0.05002  0.25670  Biso   1.000  H
  C94      1.0000 0.69140  0.38331  0.13402  Biso   1.000  C
  C95      1.0000 0.67520  0.44291  0.21290  Biso   1.000  C
  C96      1.0000 0.71292  0.32480  0.05707  Biso   1.000  C
  C97      1.0000 0.73861  0.22228  0.51994  Biso   1.000  C
  C98      1.0000 0.72230  0.98008  0.26139  Biso   1.000  C
  H104     1.0000 0.72129  0.40479  0.12440  Biso   1.000  H
  N17      1.0000 0.71464  0.47357  0.20408  Biso   1.000  N
  H105     1.0000 0.65340  0.45000  0.24332  Biso   1.000  H
  N18      1.0000 0.70410  0.28536  0.02645  Biso   1.000  N
  H106     1.0000 0.74330  0.34660  0.05002  Biso   1.000  H
  C99      1.0000 0.76137  0.27770  0.51994  Biso   1.000  C
  H107     1.0000 0.76859  0.19570  0.51850  Biso   1.000  H
  C100     1.0000 0.70711  0.21362  0.56992  Biso   1.000  C
  C101     1.0000 0.77772  0.98008  0.23863  Biso   1.000  C
  H108     1.0000 0.69568  0.98148  0.23141  Biso   1.000  H
  C102     1.0000 0.71360  0.93006  0.29289  Biso   1.000  C
  C103     1.0000 0.72230  0.51994  0.23863  Biso   1.000  C
  C104     1.0000 0.73861  0.27770  0.98008  Biso   1.000  C
  N19      1.0000 0.79592  0.28536  0.47357  Biso   1.000  N
  H109     1.0000 0.73139  0.30432  0.51850  Biso   1.000  H
  C105     1.0000 0.79291  0.28640  0.56992  Biso   1.000  C
  H110     1.0000 0.69280  0.17659  0.57000  Biso   1.000  H
  H111     1.0000 0.67621  0.23859  0.57020  Biso   1.000  H
  C106     1.0000 0.74009  0.22220  0.62034  Biso   1.000  C
  N20      1.0000 0.78534  0.02645  0.20408  Biso   1.000  N
  H112     1.0000 0.80430  0.98148  0.26861  Biso   1.000  H
  C107     1.0000 0.78638  0.93006  0.20709  Biso   1.000  C
  H113     1.0000 0.67661  0.92998  0.30720  Biso   1.000  H
  H114     1.0000 0.73861  0.92978  0.32379  Biso   1.000  H
  C108     1.0000 0.72222  0.87968  0.25991  Biso   1.000  C
  C109     1.0000 0.77772  0.51994  0.26139  Biso   1.000  C
  H115     1.0000 0.69568  0.51850  0.26861  Biso   1.000  H
  C110     1.0000 0.71360  0.56992  0.20709  Biso   1.000  C
  C111     1.0000 0.76137  0.22228  0.98008  Biso   1.000  C
  H116     1.0000 0.76859  0.30432  0.98148  Biso   1.000  H
  C112     1.0000 0.70711  0.28640  0.93006  Biso   1.000  C
  C113     1.0000 0.78710  0.32480  0.44291  Biso   1.000  C
  H117     1.0000 0.80718  0.32339  0.57000  Biso   1.000  H
  H118     1.0000 0.82381  0.26139  0.57020  Biso   1.000  H
  C114     1.0000 0.75989  0.27778  0.62034  Biso   1.000  C
  H119     1.0000 0.71769  0.21578  0.65252  Biso   1.000  H
  H120     1.0000 0.77059  0.19691  0.62110  Biso   1.000  H
  C115     1.0000 0.82478  0.05707  0.21290  Biso   1.000  C
  H121     1.0000 0.82341  0.92998  0.19282  Biso   1.000  H
  H122     1.0000 0.76141  0.92978  0.17619  Biso   1.000  H
  C116     1.0000 0.77780  0.87968  0.24011  Biso   1.000  C
  H123     1.0000 0.71580  0.84750  0.28231  Biso   1.000  H
  H124     1.0000 0.69689  0.87888  0.22941  Biso   1.000  H
  N21      1.0000 0.78534  0.47357  0.29590  Biso   1.000  N
  H125     1.0000 0.80430  0.51850  0.23141  Biso   1.000  H
  C117     1.0000 0.78638  0.56992  0.29289  Biso   1.000  C
  H126     1.0000 0.67661  0.57000  0.19282  Biso   1.000  H
  H127     1.0000 0.73861  0.57020  0.17619  Biso   1.000  H
  C118     1.0000 0.72222  0.62034  0.24011  Biso   1.000  C
  N22      1.0000 0.79592  0.21466  0.02645  Biso   1.000  N
  H128     1.0000 0.73139  0.19570  0.98148  Biso   1.000  H
  C119     1.0000 0.79291  0.21362  0.93006  Biso   1.000  C
  H129     1.0000 0.69280  0.32339  0.92998  Biso   1.000  H
  H130     1.0000 0.67621  0.26139  0.92978  Biso   1.000  H
  C120     1.0000 0.74009  0.27778  0.87968  Biso   1.000  C
  C121     1.0000 0.82145  0.33882  0.39678  Biso   1.000  C
  H131     1.0000 0.75668  0.34660  0.45000  Biso   1.000  H
  H132     1.0000 0.78229  0.28420  0.65252  Biso   1.000  H
  H133     1.0000 0.72939  0.30311  0.62110  Biso   1.000  H
  C122     1.0000 0.83884  0.10320  0.17855  Biso   1.000  C
  H134     1.0000 0.84662  0.05002  0.24332  Biso   1.000  H
  H135     1.0000 0.78422  0.84750  0.21771  Biso   1.000  H
  H136     1.0000 0.80309  0.87888  0.27061  Biso   1.000  H
  C123     1.0000 0.82478  0.44291  0.28708  Biso   1.000  C
  H137     1.0000 0.82341  0.57000  0.30720  Biso   1.000  H
  H138     1.0000 0.76141  0.57020  0.32379  Biso   1.000  H
  C124     1.0000 0.77780  0.62034  0.25991  Biso   1.000  C
  H139     1.0000 0.71580  0.65252  0.21771  Biso   1.000  H
  H140     1.0000 0.69689  0.62110  0.27061  Biso   1.000  H
  C125     1.0000 0.78710  0.17522  0.05707  Biso   1.000  C
  H141     1.0000 0.80718  0.17659  0.92998  Biso   1.000  H
  H142     1.0000 0.82381  0.23859  0.92978  Biso   1.000  H
  C126     1.0000 0.75989  0.22220  0.87968  Biso   1.000  C
  H143     1.0000 0.71769  0.28420  0.84750  Biso   1.000  H
  H144     1.0000 0.77059  0.30311  0.87888  Biso   1.000  H
  C127     1.0000 0.80862  0.38331  0.36600  Biso   1.000  C
  C128     1.0000 0.86598  0.30860  0.38331  Biso   1.000  C
  C129     1.0000 0.88333  0.13402  0.19138  Biso   1.000  C
  C130     1.0000 0.80862  0.11667  0.13402  Biso   1.000  C
  C131     1.0000 0.83884  0.39678  0.32143  Biso   1.000  C
  H145     1.0000 0.84662  0.45000  0.25670  Biso   1.000  H
  H146     1.0000 0.78422  0.65252  0.28231  Biso   1.000  H
  H147     1.0000 0.80309  0.62110  0.22941  Biso   1.000  H
  C132     1.0000 0.82145  0.16116  0.10320  Biso   1.000  C
  H148     1.0000 0.75668  0.15338  0.05002  Biso   1.000  H
  H149     1.0000 0.78229  0.21578  0.84750  Biso   1.000  H
  H150     1.0000 0.72939  0.19691  0.87888  Biso   1.000  H
  H151     1.0000 0.77869  0.40479  0.37562  Biso   1.000  H
  H152     1.0000 0.87560  0.27871  0.40479  Biso   1.000  H
  C133     1.0000 0.89680  0.32143  0.33882  Biso   1.000  C
  H153     1.0000 0.90481  0.12440  0.22131  Biso   1.000  H
  C134     1.0000 0.89680  0.17855  0.16116  Biso   1.000  C
  H154     1.0000 0.77869  0.09519  0.12440  Biso   1.000  H
  C135     1.0000 0.88333  0.36600  0.30860  Biso   1.000  C
  C136     1.0000 0.86598  0.19138  0.11667  Biso   1.000  C
  C137     1.0000 0.94293  0.28708  0.32480  Biso   1.000  C
  C138     1.0000 0.94293  0.21290  0.17522  Biso   1.000  C
  H155     1.0000 0.90481  0.37562  0.27871  Biso   1.000  H
  H156     1.0000 0.87560  0.22131  0.09519  Biso   1.000  H
  N23      1.0000 0.97355  0.29590  0.28536  Biso   1.000  N
  H157     1.0000 0.94998  0.25670  0.34660  Biso   1.000  H
  N24      1.0000 0.97355  0.20408  0.21466  Biso   1.000  N
  H158     1.0000 0.94998  0.24332  0.15338  Biso   1.000  H
  C139     1.0000 0.01992  0.26139  0.27770  Biso   1.000  C
  C140     1.0000 0.01992  0.23863  0.22228  Biso   1.000  C
  H159     1.0000 0.01852  0.23141  0.30432  Biso   1.000  H
  C141     1.0000 0.06994  0.29289  0.28640  Biso   1.000  C
  H160     1.0000 0.01852  0.26861  0.19570  Biso   1.000  H
  C142     1.0000 0.06994  0.20709  0.21362  Biso   1.000  C
  H161     1.0000 0.07002  0.30720  0.32339  Biso   1.000  H
  H162     1.0000 0.07022  0.32379  0.26139  Biso   1.000  H
  C143     1.0000 0.12032  0.25991  0.27778  Biso   1.000  C
  H163     1.0000 0.07002  0.19282  0.17659  Biso   1.000  H
  H164     1.0000 0.07022  0.17619  0.23859  Biso   1.000  H
  C144     1.0000 0.12032  0.24011  0.22220  Biso   1.000  C
  H165     1.0000 0.15250  0.28231  0.28420  Biso   1.000  H
  H166     1.0000 0.12112  0.22941  0.30311  Biso   1.000  H
  H167     1.0000 0.15250  0.21771  0.21578  Biso   1.000  H
  H168     1.0000 0.12112  0.27061  0.19691  Biso   1.000  H
  C145     1.0000 0.27778  0.37966  0.24011  Biso   1.000  C
  C146     1.0000 0.28640  0.43008  0.20709  Biso   1.000  C
  C147     1.0000 0.22220  0.37966  0.25991  Biso   1.000  C
  H169     1.0000 0.28420  0.34748  0.21771  Biso   1.000  H
  H170     1.0000 0.30311  0.37890  0.27061  Biso   1.000  H
  C148     1.0000 0.27770  0.48006  0.23863  Biso   1.000  C
  H171     1.0000 0.32339  0.43000  0.19282  Biso   1.000  H
  H172     1.0000 0.26139  0.42980  0.17619  Biso   1.000  H
  C149     1.0000 0.21362  0.43008  0.29289  Biso   1.000  C
  H173     1.0000 0.21578  0.34748  0.28231  Biso   1.000  H
  H174     1.0000 0.19691  0.37890  0.22941  Biso   1.000  H
  N25      1.0000 0.28536  0.52643  0.20408  Biso   1.000  N
  C150     1.0000 0.22228  0.48006  0.26139  Biso   1.000  C
  H175     1.0000 0.30432  0.48150  0.26861  Biso   1.000  H
  H176     1.0000 0.17659  0.43000  0.30720  Biso   1.000  H
  H177     1.0000 0.23859  0.42980  0.32379  Biso   1.000  H
  C151     1.0000 0.32480  0.55709  0.21290  Biso   1.000  C
  N26      1.0000 0.21466  0.52643  0.29590  Biso   1.000  N
  H178     1.0000 0.19570  0.48150  0.23141  Biso   1.000  H
  C152     1.0000 0.33882  0.60322  0.17855  Biso   1.000  C
  H179     1.0000 0.34660  0.55000  0.24332  Biso   1.000  H
  C153     1.0000 0.17522  0.55709  0.28708  Biso   1.000  C
  C154     1.0000 0.38331  0.63400  0.19138  Biso   1.000  C
  C155     1.0000 0.30860  0.61669  0.13402  Biso   1.000  C
  C156     1.0000 0.16116  0.60322  0.32143  Biso   1.000  C
  H180     1.0000 0.15338  0.55000  0.25670  Biso   1.000  H
  H181     1.0000 0.40479  0.62438  0.22131  Biso   1.000  H
  C157     1.0000 0.39678  0.67857  0.16116  Biso   1.000  C
  H182     1.0000 0.27871  0.59521  0.12440  Biso   1.000  H
  C158     1.0000 0.32143  0.66118  0.10320  Biso   1.000  C
  C159     1.0000 0.19138  0.61669  0.36600  Biso   1.000  C
  C160     1.0000 0.11667  0.63400  0.30860  Biso   1.000  C
  C161     1.0000 0.36600  0.69140  0.11667  Biso   1.000  C
  C162     1.0000 0.44291  0.71292  0.17522  Biso   1.000  C
  C163     1.0000 0.28708  0.67520  0.05707  Biso   1.000  C
  H183     1.0000 0.22131  0.59521  0.37562  Biso   1.000  H
  C164     1.0000 0.17855  0.66118  0.39678  Biso   1.000  C
  H184     1.0000 0.09519  0.62438  0.27871  Biso   1.000  H
  C165     1.0000 0.10320  0.67857  0.33882  Biso   1.000  C
  H185     1.0000 0.37562  0.72129  0.09519  Biso   1.000  H
  N27      1.0000 0.47357  0.70410  0.21466  Biso   1.000  N
  H186     1.0000 0.45000  0.74330  0.15338  Biso   1.000  H
  N28      1.0000 0.29590  0.71464  0.02645  Biso   1.000  N
  H187     1.0000 0.25670  0.65340  0.05002  Biso   1.000  H
  C166     1.0000 0.13402  0.69140  0.38331  Biso   1.000  C
  C167     1.0000 0.21290  0.67520  0.44291  Biso   1.000  C
  C168     1.0000 0.05707  0.71292  0.32480  Biso   1.000  C
  C169     1.0000 0.51994  0.73861  0.22228  Biso   1.000  C
  C170     1.0000 0.26139  0.72230  0.98008  Biso   1.000  C
  H188     1.0000 0.12440  0.72129  0.40479  Biso   1.000  H
  N29      1.0000 0.20408  0.71464  0.47357  Biso   1.000  N
  H189     1.0000 0.24332  0.65340  0.45000  Biso   1.000  H
  N30      1.0000 0.02645  0.70410  0.28536  Biso   1.000  N
  H190     1.0000 0.05002  0.74330  0.34660  Biso   1.000  H
  C171     1.0000 0.51994  0.76137  0.27770  Biso   1.000  C
  H191     1.0000 0.51850  0.76859  0.19570  Biso   1.000  H
  C172     1.0000 0.56992  0.70711  0.21362  Biso   1.000  C
  C173     1.0000 0.23863  0.77772  0.98008  Biso   1.000  C
  H192     1.0000 0.23141  0.69568  0.98148  Biso   1.000  H
  C174     1.0000 0.29289  0.71360  0.93006  Biso   1.000  C
  C175     1.0000 0.23863  0.72230  0.51994  Biso   1.000  C
  C176     1.0000 0.98008  0.73861  0.27770  Biso   1.000  C
  N31      1.0000 0.47357  0.79592  0.28536  Biso   1.000  N
  H193     1.0000 0.51850  0.73139  0.30432  Biso   1.000  H
  C177     1.0000 0.56992  0.79291  0.28640  Biso   1.000  C
  H194     1.0000 0.57000  0.69280  0.17659  Biso   1.000  H
  H195     1.0000 0.57020  0.67621  0.23859  Biso   1.000  H
  C178     1.0000 0.62034  0.74009  0.22220  Biso   1.000  C
  N32      1.0000 0.20408  0.78534  0.02645  Biso   1.000  N
  H196     1.0000 0.26861  0.80430  0.98148  Biso   1.000  H
  C179     1.0000 0.20709  0.78638  0.93006  Biso   1.000  C
  H197     1.0000 0.30720  0.67661  0.92998  Biso   1.000  H
  H198     1.0000 0.32379  0.73861  0.92978  Biso   1.000  H
  C180     1.0000 0.25991  0.72222  0.87968  Biso   1.000  C
  C181     1.0000 0.26139  0.77772  0.51994  Biso   1.000  C
  H199     1.0000 0.26861  0.69568  0.51850  Biso   1.000  H
  C182     1.0000 0.20709  0.71360  0.56992  Biso   1.000  C
  C183     1.0000 0.98008  0.76137  0.22228  Biso   1.000  C
  H200     1.0000 0.98148  0.76859  0.30432  Biso   1.000  H
  C184     1.0000 0.93006  0.70711  0.28640  Biso   1.000  C
  C185     1.0000 0.44291  0.78710  0.32480  Biso   1.000  C
  H201     1.0000 0.57000  0.80718  0.32339  Biso   1.000  H
  H202     1.0000 0.57020  0.82381  0.26139  Biso   1.000  H
  C186     1.0000 0.62034  0.75989  0.27778  Biso   1.000  C
  H203     1.0000 0.65252  0.71769  0.21578  Biso   1.000  H
  H204     1.0000 0.62110  0.77059  0.19691  Biso   1.000  H
  C187     1.0000 0.21290  0.82478  0.05707  Biso   1.000  C
  H205     1.0000 0.19282  0.82341  0.92998  Biso   1.000  H
  H206     1.0000 0.17619  0.76141  0.92978  Biso   1.000  H
  C188     1.0000 0.24011  0.77780  0.87968  Biso   1.000  C
  H207     1.0000 0.28231  0.71580  0.84750  Biso   1.000  H
  H208     1.0000 0.22941  0.69689  0.87888  Biso   1.000  H
  N33      1.0000 0.29590  0.78534  0.47357  Biso   1.000  N
  H209     1.0000 0.23141  0.80430  0.51850  Biso   1.000  H
  C189     1.0000 0.29289  0.78638  0.56992  Biso   1.000  C
  H210     1.0000 0.19282  0.67661  0.57000  Biso   1.000  H
  H211     1.0000 0.17619  0.73861  0.57020  Biso   1.000  H
  C190     1.0000 0.24011  0.72222  0.62034  Biso   1.000  C
  N34      1.0000 0.02645  0.79592  0.21466  Biso   1.000  N
  H212     1.0000 0.98148  0.73139  0.19570  Biso   1.000  H
  C191     1.0000 0.93006  0.79291  0.21362  Biso   1.000  C
  H213     1.0000 0.92998  0.69280  0.32339  Biso   1.000  H
  H214     1.0000 0.92978  0.67621  0.26139  Biso   1.000  H
  C192     1.0000 0.87968  0.74009  0.27778  Biso   1.000  C
  C193     1.0000 0.39678  0.82145  0.33882  Biso   1.000  C
  H215     1.0000 0.45000  0.75668  0.34660  Biso   1.000  H
  H216     1.0000 0.65252  0.78229  0.28420  Biso   1.000  H
  H217     1.0000 0.62110  0.72939  0.30311  Biso   1.000  H
  C194     1.0000 0.17855  0.83884  0.10320  Biso   1.000  C
  H218     1.0000 0.24332  0.84662  0.05002  Biso   1.000  H
  H219     1.0000 0.21771  0.78422  0.84750  Biso   1.000  H
  H220     1.0000 0.27061  0.80309  0.87888  Biso   1.000  H
  C195     1.0000 0.28708  0.82478  0.44291  Biso   1.000  C
  H221     1.0000 0.30720  0.82341  0.57000  Biso   1.000  H
  H222     1.0000 0.32379  0.76141  0.57020  Biso   1.000  H
  C196     1.0000 0.25991  0.77780  0.62034  Biso   1.000  C
  H223     1.0000 0.21771  0.71580  0.65252  Biso   1.000  H
  H224     1.0000 0.27061  0.69689  0.62110  Biso   1.000  H
  C197     1.0000 0.05707  0.78710  0.17522  Biso   1.000  C
  H225     1.0000 0.92998  0.80718  0.17659  Biso   1.000  H
  H226     1.0000 0.92978  0.82381  0.23859  Biso   1.000  H
  C198     1.0000 0.87968  0.75989  0.22220  Biso   1.000  C
  H227     1.0000 0.84750  0.71769  0.28420  Biso   1.000  H
  H228     1.0000 0.87888  0.77059  0.30311  Biso   1.000  H
  C199     1.0000 0.38331  0.86598  0.30860  Biso   1.000  C
  C200     1.0000 0.36600  0.80862  0.38331  Biso   1.000  C
  C201     1.0000 0.19138  0.88333  0.13402  Biso   1.000  C
  C202     1.0000 0.13402  0.80862  0.11667  Biso   1.000  C
  C203     1.0000 0.32143  0.83884  0.39678  Biso   1.000  C
  H229     1.0000 0.25670  0.84662  0.45000  Biso   1.000  H
  H230     1.0000 0.28231  0.78422  0.65252  Biso   1.000  H
  H231     1.0000 0.22941  0.80309  0.62110  Biso   1.000  H
  C204     1.0000 0.10320  0.82145  0.16116  Biso   1.000  C
  H232     1.0000 0.05002  0.75668  0.15338  Biso   1.000  H
  H233     1.0000 0.84750  0.78229  0.21578  Biso   1.000  H
  H234     1.0000 0.87888  0.72939  0.19691  Biso   1.000  H
  H235     1.0000 0.40479  0.87560  0.27871  Biso   1.000  H
  C205     1.0000 0.33882  0.89680  0.32143  Biso   1.000  C
  H236     1.0000 0.37562  0.77869  0.40479  Biso   1.000  H
  H237     1.0000 0.22131  0.90481  0.12440  Biso   1.000  H
  C206     1.0000 0.16116  0.89680  0.17855  Biso   1.000  C
  H238     1.0000 0.12440  0.77869  0.09519  Biso   1.000  H
  C207     1.0000 0.30860  0.88333  0.36600  Biso   1.000  C
  C208     1.0000 0.11667  0.86598  0.19138  Biso   1.000  C
  C209     1.0000 0.32480  0.94293  0.28708  Biso   1.000  C
  C210     1.0000 0.17522  0.94293  0.21290  Biso   1.000  C
  H239     1.0000 0.27871  0.90481  0.37562  Biso   1.000  H
  H240     1.0000 0.09519  0.87560  0.22131  Biso   1.000  H
  N35      1.0000 0.28536  0.97355  0.29590  Biso   1.000  N
  H241     1.0000 0.34660  0.94998  0.25670  Biso   1.000  H
  N36      1.0000 0.21466  0.97355  0.20408  Biso   1.000  N
  H242     1.0000 0.15338  0.94998  0.24332  Biso   1.000  H
  C211     1.0000 0.27770  0.01992  0.26139  Biso   1.000  C
  C212     1.0000 0.22228  0.01992  0.23863  Biso   1.000  C
  H243     1.0000 0.30432  0.01852  0.23141  Biso   1.000  H
  C213     1.0000 0.28640  0.06994  0.29289  Biso   1.000  C
  H244     1.0000 0.19570  0.01852  0.26861  Biso   1.000  H
  C214     1.0000 0.21362  0.06994  0.20709  Biso   1.000  C
  H245     1.0000 0.32339  0.07002  0.30720  Biso   1.000  H
  H246     1.0000 0.26139  0.07022  0.32379  Biso   1.000  H
  C215     1.0000 0.27778  0.12032  0.25991  Biso   1.000  C
  H247     1.0000 0.17659  0.07002  0.19282  Biso   1.000  H
  H248     1.0000 0.23859  0.07022  0.17619  Biso   1.000  H
  C216     1.0000 0.22220  0.12032  0.24011  Biso   1.000  C
  H249     1.0000 0.28420  0.15250  0.28231  Biso   1.000  H
  H250     1.0000 0.30311  0.12112  0.22941  Biso   1.000  H
  H251     1.0000 0.21578  0.15250  0.21771  Biso   1.000  H
  H252     1.0000 0.19691  0.12112  0.27061  Biso   1.000  H
  C217     1.0000 0.24011  0.27778  0.37966  Biso   1.000  C
  C218     1.0000 0.25991  0.22220  0.37966  Biso   1.000  C
  C219     1.0000 0.20709  0.28640  0.43008  Biso   1.000  C
  H253     1.0000 0.21771  0.28420  0.34748  Biso   1.000  H
  H254     1.0000 0.27061  0.30311  0.37890  Biso   1.000  H
  C220     1.0000 0.29289  0.21362  0.43008  Biso   1.000  C
  H255     1.0000 0.28231  0.21578  0.34748  Biso   1.000  H
  H256     1.0000 0.22941  0.19691  0.37890  Biso   1.000  H
  C221     1.0000 0.23863  0.27770  0.48006  Biso   1.000  C
  H257     1.0000 0.19282  0.32339  0.43000  Biso   1.000  H
  H258     1.0000 0.17619  0.26139  0.42980  Biso   1.000  H
  C222     1.0000 0.26139  0.22228  0.48006  Biso   1.000  C
  H259     1.0000 0.30720  0.17659  0.43000  Biso   1.000  H
  H260     1.0000 0.32379  0.23859  0.42980  Biso   1.000  H
  N37      1.0000 0.20408  0.28536  0.52643  Biso   1.000  N
  H261     1.0000 0.26861  0.30432  0.48150  Biso   1.000  H
  N38      1.0000 0.29590  0.21466  0.52643  Biso   1.000  N
  H262     1.0000 0.23141  0.19570  0.48150  Biso   1.000  H
  C223     1.0000 0.21290  0.32480  0.55709  Biso   1.000  C
  C224     1.0000 0.28708  0.17522  0.55709  Biso   1.000  C
  C225     1.0000 0.17855  0.33882  0.60322  Biso   1.000  C
  H263     1.0000 0.24332  0.34660  0.55000  Biso   1.000  H
  C226     1.0000 0.32143  0.16116  0.60322  Biso   1.000  C
  H264     1.0000 0.25670  0.15338  0.55000  Biso   1.000  H
  C227     1.0000 0.19138  0.38331  0.63400  Biso   1.000  C
  C228     1.0000 0.13402  0.30860  0.61669  Biso   1.000  C
  C229     1.0000 0.36600  0.19138  0.61669  Biso   1.000  C
  C230     1.0000 0.30860  0.11667  0.63400  Biso   1.000  C
  H265     1.0000 0.22131  0.40479  0.62438  Biso   1.000  H
  C231     1.0000 0.16116  0.39678  0.67857  Biso   1.000  C
  H266     1.0000 0.12440  0.27871  0.59521  Biso   1.000  H
  C232     1.0000 0.10320  0.32143  0.66118  Biso   1.000  C
  H267     1.0000 0.37562  0.22131  0.59521  Biso   1.000  H
  C233     1.0000 0.39678  0.17855  0.66118  Biso   1.000  C
  H268     1.0000 0.27871  0.09519  0.62438  Biso   1.000  H
  C234     1.0000 0.33882  0.10320  0.67857  Biso   1.000  C
  C235     1.0000 0.11667  0.36600  0.69140  Biso   1.000  C
  C236     1.0000 0.17522  0.44291  0.71292  Biso   1.000  C
  C237     1.0000 0.05707  0.28708  0.67520  Biso   1.000  C
  C238     1.0000 0.38331  0.13402  0.69140  Biso   1.000  C
  C239     1.0000 0.44291  0.21290  0.67520  Biso   1.000  C
  C240     1.0000 0.32480  0.05707  0.71292  Biso   1.000  C
  H269     1.0000 0.09519  0.37562  0.72129  Biso   1.000  H
  N39      1.0000 0.21466  0.47357  0.70410  Biso   1.000  N
  H270     1.0000 0.15338  0.45000  0.74330  Biso   1.000  H
  N40      1.0000 0.02645  0.29590  0.71464  Biso   1.000  N
  H271     1.0000 0.05002  0.25670  0.65340  Biso   1.000  H
  H272     1.0000 0.40479  0.12440  0.72129  Biso   1.000  H
  N41      1.0000 0.47357  0.20408  0.71464  Biso   1.000  N
  H273     1.0000 0.45000  0.24332  0.65340  Biso   1.000  H
  N42      1.0000 0.28536  0.02645  0.70410  Biso   1.000  N
  H274     1.0000 0.34660  0.05002  0.74330  Biso   1.000  H
  C241     1.0000 0.22228  0.51994  0.73861  Biso   1.000  C
  C242     1.0000 0.98008  0.26139  0.72230  Biso   1.000  C
  C243     1.0000 0.51994  0.23863  0.72230  Biso   1.000  C
  C244     1.0000 0.27770  0.98008  0.73861  Biso   1.000  C
  C245     1.0000 0.27770  0.51994  0.76137  Biso   1.000  C
  H275     1.0000 0.19570  0.51850  0.76859  Biso   1.000  H
  C246     1.0000 0.21362  0.56992  0.70711  Biso   1.000  C
  C247     1.0000 0.98008  0.23863  0.77772  Biso   1.000  C
  H276     1.0000 0.98148  0.23141  0.69568  Biso   1.000  H
  C248     1.0000 0.93006  0.29289  0.71360  Biso   1.000  C
  C249     1.0000 0.51994  0.26139  0.77772  Biso   1.000  C
  H277     1.0000 0.51850  0.26861  0.69568  Biso   1.000  H
  C250     1.0000 0.56992  0.20709  0.71360  Biso   1.000  C
  C251     1.0000 0.22228  0.98008  0.76137  Biso   1.000  C
  H278     1.0000 0.30432  0.98148  0.76859  Biso   1.000  H
  C252     1.0000 0.28640  0.93006  0.70711  Biso   1.000  C
  N43      1.0000 0.28536  0.47357  0.79592  Biso   1.000  N
  H279     1.0000 0.30432  0.51850  0.73139  Biso   1.000  H
  C253     1.0000 0.28640  0.56992  0.79291  Biso   1.000  C
  H280     1.0000 0.17659  0.57000  0.69280  Biso   1.000  H
  H281     1.0000 0.23859  0.57020  0.67621  Biso   1.000  H
  C254     1.0000 0.22220  0.62034  0.74009  Biso   1.000  C
  N44      1.0000 0.02645  0.20408  0.78534  Biso   1.000  N
  H282     1.0000 0.98148  0.26861  0.80430  Biso   1.000  H
  C255     1.0000 0.93006  0.20709  0.78638  Biso   1.000  C
  H283     1.0000 0.92998  0.30720  0.67661  Biso   1.000  H
  H284     1.0000 0.92978  0.32379  0.73861  Biso   1.000  H
  C256     1.0000 0.87968  0.25991  0.72222  Biso   1.000  C
  N45      1.0000 0.47357  0.29590  0.78534  Biso   1.000  N
  H285     1.0000 0.51850  0.23141  0.80430  Biso   1.000  H
  C257     1.0000 0.56992  0.29289  0.78638  Biso   1.000  C
  H286     1.0000 0.57000  0.19282  0.67661  Biso   1.000  H
  H287     1.0000 0.57020  0.17619  0.73861  Biso   1.000  H
  C258     1.0000 0.62034  0.24011  0.72222  Biso   1.000  C
  N46      1.0000 0.21466  0.02645  0.79592  Biso   1.000  N
  H288     1.0000 0.19570  0.98148  0.73139  Biso   1.000  H
  C259     1.0000 0.21362  0.93006  0.79291  Biso   1.000  C
  H289     1.0000 0.32339  0.92998  0.69280  Biso   1.000  H
  H290     1.0000 0.26139  0.92978  0.67621  Biso   1.000  H
  C260     1.0000 0.27778  0.87968  0.74009  Biso   1.000  C
  C261     1.0000 0.32480  0.44291  0.78710  Biso   1.000  C
  H291     1.0000 0.32339  0.57000  0.80718  Biso   1.000  H
  H292     1.0000 0.26139  0.57020  0.82381  Biso   1.000  H
  C262     1.0000 0.27778  0.62034  0.75989  Biso   1.000  C
  H293     1.0000 0.21578  0.65252  0.71769  Biso   1.000  H
  H294     1.0000 0.19691  0.62110  0.77059  Biso   1.000  H
  C263     1.0000 0.05707  0.21290  0.82478  Biso   1.000  C
  H295     1.0000 0.92998  0.19282  0.82341  Biso   1.000  H
  H296     1.0000 0.92978  0.17619  0.76141  Biso   1.000  H
  C264     1.0000 0.87968  0.24011  0.77780  Biso   1.000  C
  H297     1.0000 0.84750  0.28231  0.71580  Biso   1.000  H
  H298     1.0000 0.87888  0.22941  0.69689  Biso   1.000  H
  C265     1.0000 0.44291  0.28708  0.82478  Biso   1.000  C
  H299     1.0000 0.57000  0.30720  0.82341  Biso   1.000  H
  H300     1.0000 0.57020  0.32379  0.76141  Biso   1.000  H
  C266     1.0000 0.62034  0.25991  0.77780  Biso   1.000  C
  H301     1.0000 0.65252  0.21771  0.71580  Biso   1.000  H
  H302     1.0000 0.62110  0.27061  0.69689  Biso   1.000  H
  C267     1.0000 0.17522  0.05707  0.78710  Biso   1.000  C
  H303     1.0000 0.17659  0.92998  0.80718  Biso   1.000  H
  H304     1.0000 0.23859  0.92978  0.82381  Biso   1.000  H
  C268     1.0000 0.22220  0.87968  0.75989  Biso   1.000  C
  H305     1.0000 0.28420  0.84750  0.71769  Biso   1.000  H
  H306     1.0000 0.30311  0.87888  0.77059  Biso   1.000  H
  C269     1.0000 0.33882  0.39678  0.82145  Biso   1.000  C
  H307     1.0000 0.34660  0.45000  0.75668  Biso   1.000  H
  H308     1.0000 0.28420  0.65252  0.78229  Biso   1.000  H
  H309     1.0000 0.30311  0.62110  0.72939  Biso   1.000  H
  C270     1.0000 0.10320  0.17855  0.83884  Biso   1.000  C
  H310     1.0000 0.05002  0.24332  0.84662  Biso   1.000  H
  H311     1.0000 0.84750  0.21771  0.78422  Biso   1.000  H
  H312     1.0000 0.87888  0.27061  0.80309  Biso   1.000  H
  C271     1.0000 0.39678  0.32143  0.83884  Biso   1.000  C
  H313     1.0000 0.45000  0.25670  0.84662  Biso   1.000  H
  H314     1.0000 0.65252  0.28231  0.78422  Biso   1.000  H
  H315     1.0000 0.62110  0.22941  0.80309  Biso   1.000  H
  C272     1.0000 0.16116  0.10320  0.82145  Biso   1.000  C
  H316     1.0000 0.15338  0.05002  0.75668  Biso   1.000  H
  H317     1.0000 0.21578  0.84750  0.78229  Biso   1.000  H
  H318     1.0000 0.19691  0.87888  0.72939  Biso   1.000  H
  C273     1.0000 0.38331  0.36600  0.80862  Biso   1.000  C
  C274     1.0000 0.30860  0.38331  0.86598  Biso   1.000  C
  C275     1.0000 0.11667  0.13402  0.80862  Biso   1.000  C
  C276     1.0000 0.13402  0.19138  0.88333  Biso   1.000  C
  C277     1.0000 0.36600  0.30860  0.88333  Biso   1.000  C
  C278     1.0000 0.19138  0.11667  0.86598  Biso   1.000  C
  H319     1.0000 0.40479  0.37562  0.77869  Biso   1.000  H
  C279     1.0000 0.32143  0.33882  0.89680  Biso   1.000  C
  H320     1.0000 0.27871  0.40479  0.87560  Biso   1.000  H
  H321     1.0000 0.09519  0.12440  0.77869  Biso   1.000  H
  C280     1.0000 0.17855  0.16116  0.89680  Biso   1.000  C
  H322     1.0000 0.12440  0.22131  0.90481  Biso   1.000  H
  H323     1.0000 0.37562  0.27871  0.90481  Biso   1.000  H
  H324     1.0000 0.22131  0.09519  0.87560  Biso   1.000  H
  C281     1.0000 0.28708  0.32480  0.94293  Biso   1.000  C
  C282     1.0000 0.21290  0.17522  0.94293  Biso   1.000  C
  N47      1.0000 0.29590  0.28536  0.97355  Biso   1.000  N
  H325     1.0000 0.25670  0.34660  0.94998  Biso   1.000  H
  N48      1.0000 0.20408  0.21466  0.97355  Biso   1.000  N
  H326     1.0000 0.24332  0.15338  0.94998  Biso   1.000  H
  C283     1.0000 0.26139  0.27770  0.01992  Biso   1.000  C
  C284     1.0000 0.23863  0.22228  0.01992  Biso   1.000  C
  H327     1.0000 0.23141  0.30432  0.01852  Biso   1.000  H
  C285     1.0000 0.29289  0.28640  0.06994  Biso   1.000  C
  H328     1.0000 0.26861  0.19570  0.01852  Biso   1.000  H
  C286     1.0000 0.20709  0.21362  0.06994  Biso   1.000  C
  H329     1.0000 0.30720  0.32339  0.07002  Biso   1.000  H
  H330     1.0000 0.32379  0.26139  0.07022  Biso   1.000  H
  C287     1.0000 0.25991  0.27778  0.12032  Biso   1.000  C
  H331     1.0000 0.19282  0.17659  0.07002  Biso   1.000  H
  H332     1.0000 0.17619  0.23859  0.07022  Biso   1.000  H
  C288     1.0000 0.24011  0.22220  0.12032  Biso   1.000  C
  H333     1.0000 0.28231  0.28420  0.15250  Biso   1.000  H
  H334     1.0000 0.22941  0.30311  0.12112  Biso   1.000  H
  H335     1.0000 0.21771  0.21578  0.15250  Biso   1.000  H
  H336     1.0000 0.27061  0.19691  0.12112  Biso   1.000  H
  C289     1.0000 0.46359  0.04288  0.31991  Biso   1.000  C
  C290     1.0000 0.47229  0.01138  0.26993  Biso   1.000  C
  H337     1.0000 0.42660  0.05719  0.31999  Biso   1.000  H
  H338     1.0000 0.48860  0.07378  0.32019  Biso   1.000  H
  C291     1.0000 0.47221  0.00990  0.37033  Biso   1.000  C
  N49      1.0000 0.46467  0.04589  0.22356  Biso   1.000  N
  C292     1.0000 0.52771  0.98862  0.26993  Biso   1.000  C
  H339     1.0000 0.44571  0.98140  0.26849  Biso   1.000  H
  H340     1.0000 0.46579  0.03230  0.40251  Biso   1.000  H
  C293     1.0000 0.52779  0.99010  0.37033  Biso   1.000  C
  H341     1.0000 0.44692  0.97940  0.37109  Biso   1.000  H
  C294     1.0000 0.42523  0.03711  0.19290  Biso   1.000  C
  H342     1.0000 0.55429  0.01860  0.26849  Biso   1.000  H
  N50      1.0000 0.53533  0.95411  0.22356  Biso   1.000  N
  C295     1.0000 0.53641  0.95712  0.31991  Biso   1.000  C
  H343     1.0000 0.55308  0.02060  0.37109  Biso   1.000  H
  H344     1.0000 0.53421  0.96770  0.40251  Biso   1.000  H
  C296     1.0000 0.41117  0.07146  0.14677  Biso   1.000  C
  H345     1.0000 0.40339  0.00669  0.19999  Biso   1.000  H
  C297     1.0000 0.57477  0.96289  0.19290  Biso   1.000  C
  H346     1.0000 0.57340  0.94281  0.31999  Biso   1.000  H
  H347     1.0000 0.51140  0.92622  0.32019  Biso   1.000  H
  C298     1.0000 0.44139  0.11599  0.13330  Biso   1.000  C
  C299     1.0000 0.36668  0.05859  0.11599  Biso   1.000  C
  C300     1.0000 0.58883  0.92854  0.14677  Biso   1.000  C
  H348     1.0000 0.59661  0.99331  0.19999  Biso   1.000  H
  H349     1.0000 0.47128  0.12561  0.15478  Biso   1.000  H
  C301     1.0000 0.42856  0.14677  0.08881  Biso   1.000  C
  H350     1.0000 0.34520  0.02870  0.12561  Biso   1.000  H
  C302     1.0000 0.35321  0.08881  0.07146  Biso   1.000  C
  C303     1.0000 0.63332  0.94141  0.11599  Biso   1.000  C
  C304     1.0000 0.55861  0.88401  0.13330  Biso   1.000  C
  C305     1.0000 0.38403  0.13330  0.05859  Biso   1.000  C
  C306     1.0000 0.46291  0.19290  0.07479  Biso   1.000  C
  C307     1.0000 0.30708  0.07479  0.03711  Biso   1.000  C
  H351     1.0000 0.65480  0.97130  0.12561  Biso   1.000  H
  C308     1.0000 0.64679  0.91119  0.07146  Biso   1.000  C
  H352     1.0000 0.52872  0.87439  0.15478  Biso   1.000  H
  C309     1.0000 0.57144  0.85323  0.08881  Biso   1.000  C
  H353     1.0000 0.37441  0.15478  0.02870  Biso   1.000  H
  N51      1.0000 0.45409  0.22356  0.03535  Biso   1.000  N
  H354     1.0000 0.49329  0.19999  0.09659  Biso   1.000  H
  N52      1.0000 0.27646  0.03535  0.04589  Biso   1.000  N
  H355     1.0000 0.29999  0.09659  0.00669  Biso   1.000  H
  C310     1.0000 0.61597  0.86670  0.05859  Biso   1.000  C
  C311     1.0000 0.69292  0.92521  0.03711  Biso   1.000  C
  C312     1.0000 0.53709  0.80710  0.07479  Biso   1.000  C
  C313     1.0000 0.48860  0.26993  0.02769  Biso   1.000  C
  C314     1.0000 0.23009  0.02769  0.01138  Biso   1.000  C
  H356     1.0000 0.62559  0.84522  0.02870  Biso   1.000  H
  N53      1.0000 0.72354  0.96465  0.04589  Biso   1.000  N
  H357     1.0000 0.70001  0.90341  0.00669  Biso   1.000  H
  N54      1.0000 0.54591  0.77644  0.03535  Biso   1.000  N
  H358     1.0000 0.50671  0.80001  0.09659  Biso   1.000  H
  H359     1.0000 0.51862  0.26849  0.05431  Biso   1.000  H
  C315     1.0000 0.45710  0.31991  0.03639  Biso   1.000  C
  C316     1.0000 0.51140  0.26993  0.97231  Biso   1.000  C
  C317     1.0000 0.18007  0.03639  0.04288  Biso   1.000  C
  C318     1.0000 0.23009  0.97231  0.98862  Biso   1.000  C
  H360     1.0000 0.23149  0.05431  0.98140  Biso   1.000  H
  C319     1.0000 0.76991  0.97231  0.01138  Biso   1.000  C
  C320     1.0000 0.51140  0.73007  0.02769  Biso   1.000  C
  H361     1.0000 0.44279  0.31999  0.07338  Biso   1.000  H
  H362     1.0000 0.42620  0.32019  0.01138  Biso   1.000  H
  C321     1.0000 0.49008  0.37033  0.02781  Biso   1.000  C
  N55      1.0000 0.54591  0.22356  0.96465  Biso   1.000  N
  H363     1.0000 0.48138  0.26849  0.94569  Biso   1.000  H
  C322     1.0000 0.54290  0.31991  0.96361  Biso   1.000  C
  H364     1.0000 0.17999  0.07338  0.05719  Biso   1.000  H
  H365     1.0000 0.17979  0.01138  0.07378  Biso   1.000  H
  C323     1.0000 0.12965  0.02781  0.00990  Biso   1.000  C
  N56      1.0000 0.27646  0.96465  0.95411  Biso   1.000  N
  C324     1.0000 0.18007  0.96361  0.95712  Biso   1.000  C
  H366     1.0000 0.23149  0.94569  0.01860  Biso   1.000  H
  C325     1.0000 0.76991  0.02769  0.98862  Biso   1.000  C
  H367     1.0000 0.76851  0.94569  0.98140  Biso   1.000  H
  C326     1.0000 0.81993  0.96361  0.04288  Biso   1.000  C
  C327     1.0000 0.48860  0.73007  0.97231  Biso   1.000  C
  H368     1.0000 0.48138  0.73151  0.05431  Biso   1.000  H
  C328     1.0000 0.54290  0.68009  0.03639  Biso   1.000  C
  H369     1.0000 0.46772  0.40251  0.03419  Biso   1.000  H
  H370     1.0000 0.52058  0.37109  0.05310  Biso   1.000  H
  C329     1.0000 0.50992  0.37033  0.97219  Biso   1.000  C
  C330     1.0000 0.53709  0.19290  0.92521  Biso   1.000  C
  H371     1.0000 0.55721  0.31999  0.92662  Biso   1.000  H
  H372     1.0000 0.57380  0.32019  0.98862  Biso   1.000  H
  H373     1.0000 0.09751  0.03419  0.03230  Biso   1.000  H
  C331     1.0000 0.12965  0.97219  0.99010  Biso   1.000  C
  H374     1.0000 0.12889  0.05310  0.97940  Biso   1.000  H
  C332     1.0000 0.30708  0.92521  0.96289  Biso   1.000  C
  H375     1.0000 0.17999  0.92662  0.94281  Biso   1.000  H
  H376     1.0000 0.17979  0.98862  0.92622  Biso   1.000  H
  N57      1.0000 0.72354  0.03535  0.95411  Biso   1.000  N
  H377     1.0000 0.76851  0.05431  0.01860  Biso   1.000  H
  C333     1.0000 0.81993  0.03639  0.95712  Biso   1.000  C
  H378     1.0000 0.82001  0.92662  0.05719  Biso   1.000  H
  H379     1.0000 0.82021  0.98862  0.07378  Biso   1.000  H
  C334     1.0000 0.87035  0.97219  0.00990  Biso   1.000  C
  N58      1.0000 0.45409  0.77644  0.96465  Biso   1.000  N
  H380     1.0000 0.51862  0.73151  0.94569  Biso   1.000  H
  C335     1.0000 0.45710  0.68009  0.96361  Biso   1.000  C
  H381     1.0000 0.55721  0.68001  0.07338  Biso   1.000  H
  H382     1.0000 0.57380  0.67981  0.01138  Biso   1.000  H
  C336     1.0000 0.50992  0.62967  0.02781  Biso   1.000  C
  H383     1.0000 0.53228  0.40251  0.96581  Biso   1.000  H
  H384     1.0000 0.47942  0.37109  0.94690  Biso   1.000  H
  C337     1.0000 0.57144  0.14677  0.91119  Biso   1.000  C
  H385     1.0000 0.50671  0.19999  0.90341  Biso   1.000  H
  H386     1.0000 0.09751  0.96581  0.96770  Biso   1.000  H
  H387     1.0000 0.12889  0.94690  0.02060  Biso   1.000  H
  C338     1.0000 0.35321  0.91119  0.92854  Biso   1.000  C
  H388     1.0000 0.29999  0.90341  0.99331  Biso   1.000  H
  C339     1.0000 0.69292  0.07479  0.96289  Biso   1.000  C
  H389     1.0000 0.82001  0.07338  0.94281  Biso   1.000  H
  H390     1.0000 0.82021  0.01138  0.92622  Biso   1.000  H
  C340     1.0000 0.87035  0.02781  0.99010  Biso   1.000  C
  H391     1.0000 0.87111  0.94690  0.97940  Biso   1.000  H
  H392     1.0000 0.90249  0.96581  0.03230  Biso   1.000  H
  C341     1.0000 0.46291  0.80710  0.92521  Biso   1.000  C
  H393     1.0000 0.44279  0.68001  0.92662  Biso   1.000  H
  H394     1.0000 0.42620  0.67981  0.98862  Biso   1.000  H
  C342     1.0000 0.49008  0.62967  0.97219  Biso   1.000  C
  H395     1.0000 0.53228  0.59749  0.03419  Biso   1.000  H
  H396     1.0000 0.47942  0.62891  0.05310  Biso   1.000  H
  C343     1.0000 0.61597  0.13330  0.94141  Biso   1.000  C
  C344     1.0000 0.55861  0.11599  0.86670  Biso   1.000  C
  C345     1.0000 0.36668  0.94141  0.88401  Biso   1.000  C
  C346     1.0000 0.38403  0.86670  0.94141  Biso   1.000  C
  C347     1.0000 0.64679  0.08881  0.92854  Biso   1.000  C
  H397     1.0000 0.70001  0.09659  0.99331  Biso   1.000  H
  H398     1.0000 0.87111  0.05310  0.02060  Biso   1.000  H
  H399     1.0000 0.90249  0.03419  0.96770  Biso   1.000  H
  C348     1.0000 0.42856  0.85323  0.91119  Biso   1.000  C
  H400     1.0000 0.49329  0.80001  0.90341  Biso   1.000  H
  H401     1.0000 0.46772  0.59749  0.96581  Biso   1.000  H
  H402     1.0000 0.52058  0.62891  0.94690  Biso   1.000  H
  H403     1.0000 0.62559  0.15478  0.97130  Biso   1.000  H
  H404     1.0000 0.52872  0.12561  0.84522  Biso   1.000  H
  C349     1.0000 0.58883  0.07146  0.85323  Biso   1.000  C
  H405     1.0000 0.34520  0.97130  0.87439  Biso   1.000  H
  C350     1.0000 0.41117  0.92854  0.85323  Biso   1.000  C
  H406     1.0000 0.37441  0.84522  0.97130  Biso   1.000  H
  C351     1.0000 0.63332  0.05859  0.88401  Biso   1.000  C
  C352     1.0000 0.44139  0.88401  0.86670  Biso   1.000  C
  C353     1.0000 0.57477  0.03711  0.80710  Biso   1.000  C
  C354     1.0000 0.42523  0.96289  0.80710  Biso   1.000  C
  H407     1.0000 0.65480  0.02870  0.87439  Biso   1.000  H
  H408     1.0000 0.47128  0.87439  0.84522  Biso   1.000  H
  N59      1.0000 0.53533  0.04589  0.77644  Biso   1.000  N
  H409     1.0000 0.59661  0.00669  0.80001  Biso   1.000  H
  N60      1.0000 0.46467  0.95411  0.77644  Biso   1.000  N
  H410     1.0000 0.40339  0.99331  0.80001  Biso   1.000  H
  C355     1.0000 0.52771  0.01138  0.73007  Biso   1.000  C
  C356     1.0000 0.47229  0.98862  0.73007  Biso   1.000  C
  H411     1.0000 0.55429  0.98140  0.73151  Biso   1.000  H
  C357     1.0000 0.53641  0.04288  0.68009  Biso   1.000  C
  C358     1.0000 0.46359  0.95712  0.68009  Biso   1.000  C
  H412     1.0000 0.44571  0.01860  0.73151  Biso   1.000  H
  H413     1.0000 0.57340  0.05719  0.68001  Biso   1.000  H
  H414     1.0000 0.51140  0.07378  0.67981  Biso   1.000  H
  C359     1.0000 0.52779  0.00990  0.62967  Biso   1.000  C
  H415     1.0000 0.42660  0.94281  0.68001  Biso   1.000  H
  H416     1.0000 0.48860  0.92622  0.67981  Biso   1.000  H
  C360     1.0000 0.47221  0.99010  0.62967  Biso   1.000  C
  H417     1.0000 0.55308  0.97940  0.62891  Biso   1.000  H
  H418     1.0000 0.53421  0.03230  0.59749  Biso   1.000  H
  H419     1.0000 0.46579  0.96770  0.59749  Biso   1.000  H
  H420     1.0000 0.44692  0.02060  0.62891  Biso   1.000  H
  C361     1.0000 0.31991  0.46359  0.04288  Biso   1.000  C
  C362     1.0000 0.26993  0.47229  0.01138  Biso   1.000  C
  H421     1.0000 0.31999  0.42660  0.05719  Biso   1.000  H
  H422     1.0000 0.32019  0.48860  0.07378  Biso   1.000  H
  C363     1.0000 0.37033  0.47221  0.00990  Biso   1.000  C
  N61      1.0000 0.22356  0.46467  0.04589  Biso   1.000  N
  C364     1.0000 0.26993  0.52771  0.98862  Biso   1.000  C
  H423     1.0000 0.26849  0.44571  0.98140  Biso   1.000  H
  H424     1.0000 0.40251  0.46579  0.03230  Biso   1.000  H
  C365     1.0000 0.37033  0.52779  0.99010  Biso   1.000  C
  H425     1.0000 0.37109  0.44692  0.97940  Biso   1.000  H
  C366     1.0000 0.19290  0.42523  0.03711  Biso   1.000  C
  H426     1.0000 0.26849  0.55429  0.01860  Biso   1.000  H
  N62      1.0000 0.22356  0.53533  0.95411  Biso   1.000  N
  C367     1.0000 0.31991  0.53641  0.95712  Biso   1.000  C
  H427     1.0000 0.37109  0.55308  0.02060  Biso   1.000  H
  H428     1.0000 0.40251  0.53421  0.96770  Biso   1.000  H
  C368     1.0000 0.14677  0.41117  0.07146  Biso   1.000  C
  H429     1.0000 0.19999  0.40339  0.00669  Biso   1.000  H
  C369     1.0000 0.19290  0.57477  0.96289  Biso   1.000  C
  H430     1.0000 0.31999  0.57340  0.94281  Biso   1.000  H
  H431     1.0000 0.32019  0.51140  0.92622  Biso   1.000  H
  C370     1.0000 0.13330  0.44139  0.11599  Biso   1.000  C
  C371     1.0000 0.11599  0.36668  0.05859  Biso   1.000  C
  C372     1.0000 0.14677  0.58883  0.92854  Biso   1.000  C
  H432     1.0000 0.19999  0.59661  0.99331  Biso   1.000  H
  H433     1.0000 0.15478  0.47128  0.12561  Biso   1.000  H
  C373     1.0000 0.08881  0.42856  0.14677  Biso   1.000  C
  H434     1.0000 0.12561  0.34520  0.02870  Biso   1.000  H
  C374     1.0000 0.07146  0.35321  0.08881  Biso   1.000  C
  C375     1.0000 0.13330  0.55861  0.88401  Biso   1.000  C
  C376     1.0000 0.11599  0.63332  0.94141  Biso   1.000  C
  C377     1.0000 0.05859  0.38403  0.13330  Biso   1.000  C
  C378     1.0000 0.07479  0.46291  0.19290  Biso   1.000  C
  C379     1.0000 0.03711  0.30708  0.07479  Biso   1.000  C
  H435     1.0000 0.15478  0.52872  0.87439  Biso   1.000  H
  C380     1.0000 0.08881  0.57144  0.85323  Biso   1.000  C
  H436     1.0000 0.12561  0.65480  0.97130  Biso   1.000  H
  C381     1.0000 0.07146  0.64679  0.91119  Biso   1.000  C
  H437     1.0000 0.02870  0.37441  0.15478  Biso   1.000  H
  N63      1.0000 0.03535  0.45409  0.22356  Biso   1.000  N
  H438     1.0000 0.09659  0.49329  0.19999  Biso   1.000  H
  N64      1.0000 0.04589  0.27646  0.03535  Biso   1.000  N
  H439     1.0000 0.00669  0.29999  0.09659  Biso   1.000  H
  C382     1.0000 0.05859  0.61597  0.86670  Biso   1.000  C
  C383     1.0000 0.07479  0.53709  0.80710  Biso   1.000  C
  C384     1.0000 0.03711  0.69292  0.92521  Biso   1.000  C
  C385     1.0000 0.02769  0.48860  0.26993  Biso   1.000  C
  C386     1.0000 0.01138  0.23009  0.02769  Biso   1.000  C
  H440     1.0000 0.02870  0.62559  0.84522  Biso   1.000  H
  N65      1.0000 0.03535  0.54591  0.77644  Biso   1.000  N
  H441     1.0000 0.09659  0.50671  0.80001  Biso   1.000  H
  N66      1.0000 0.04589  0.72354  0.96465  Biso   1.000  N
  H442     1.0000 0.00669  0.70001  0.90341  Biso   1.000  H
  H443     1.0000 0.05431  0.51862  0.26849  Biso   1.000  H
  C387     1.0000 0.03639  0.45710  0.31991  Biso   1.000  C
  C388     1.0000 0.97231  0.51140  0.26993  Biso   1.000  C
  C389     1.0000 0.04288  0.18007  0.03639  Biso   1.000  C
  C390     1.0000 0.98862  0.23009  0.97231  Biso   1.000  C
  H444     1.0000 0.98140  0.23149  0.05431  Biso   1.000  H
  C391     1.0000 0.02769  0.51140  0.73007  Biso   1.000  C
  C392     1.0000 0.01138  0.76991  0.97231  Biso   1.000  C
  H445     1.0000 0.07338  0.44279  0.31999  Biso   1.000  H
  H446     1.0000 0.01138  0.42620  0.32019  Biso   1.000  H
  C393     1.0000 0.02781  0.49008  0.37033  Biso   1.000  C
  N67      1.0000 0.96465  0.54591  0.22356  Biso   1.000  N
  H447     1.0000 0.94569  0.48138  0.26849  Biso   1.000  H
  C394     1.0000 0.96361  0.54290  0.31991  Biso   1.000  C
  H448     1.0000 0.05719  0.17999  0.07338  Biso   1.000  H
  H449     1.0000 0.07378  0.17979  0.01138  Biso   1.000  H
  C395     1.0000 0.00990  0.12965  0.02781  Biso   1.000  C
  N68      1.0000 0.95411  0.27646  0.96465  Biso   1.000  N
  C396     1.0000 0.95712  0.18007  0.96361  Biso   1.000  C
  H450     1.0000 0.01860  0.23149  0.94569  Biso   1.000  H
  C397     1.0000 0.97231  0.48860  0.73007  Biso   1.000  C
  H451     1.0000 0.05431  0.48138  0.73151  Biso   1.000  H
  C398     1.0000 0.03639  0.54290  0.68009  Biso   1.000  C
  C399     1.0000 0.98862  0.76991  0.02769  Biso   1.000  C
  H452     1.0000 0.98140  0.76851  0.94569  Biso   1.000  H
  C400     1.0000 0.04288  0.81993  0.96361  Biso   1.000  C
  H453     1.0000 0.03419  0.46772  0.40251  Biso   1.000  H
  H454     1.0000 0.05310  0.52058  0.37109  Biso   1.000  H
  C401     1.0000 0.97219  0.50992  0.37033  Biso   1.000  C
  C402     1.0000 0.92521  0.53709  0.19290  Biso   1.000  C
  H455     1.0000 0.92662  0.55721  0.31999  Biso   1.000  H
  H456     1.0000 0.98862  0.57380  0.32019  Biso   1.000  H
  H457     1.0000 0.03230  0.09751  0.03419  Biso   1.000  H
  C403     1.0000 0.99010  0.12965  0.97219  Biso   1.000  C
  H458     1.0000 0.97940  0.12889  0.05310  Biso   1.000  H
  C404     1.0000 0.96289  0.30708  0.92521  Biso   1.000  C
  H459     1.0000 0.94281  0.17999  0.92662  Biso   1.000  H
  H460     1.0000 0.92622  0.17979  0.98862  Biso   1.000  H
  N69      1.0000 0.96465  0.45409  0.77644  Biso   1.000  N
  H461     1.0000 0.94569  0.51862  0.73151  Biso   1.000  H
  C405     1.0000 0.96361  0.45710  0.68009  Biso   1.000  C
  H462     1.0000 0.07338  0.55721  0.68001  Biso   1.000  H
  H463     1.0000 0.01138  0.57380  0.67981  Biso   1.000  H
  C406     1.0000 0.02781  0.50992  0.62967  Biso   1.000  C
  N70      1.0000 0.95411  0.72354  0.03535  Biso   1.000  N
  H464     1.0000 0.01860  0.76851  0.05431  Biso   1.000  H
  C407     1.0000 0.95712  0.81993  0.03639  Biso   1.000  C
  H465     1.0000 0.05719  0.82001  0.92662  Biso   1.000  H
  H466     1.0000 0.07378  0.82021  0.98862  Biso   1.000  H
  C408     1.0000 0.00990  0.87035  0.97219  Biso   1.000  C
  H467     1.0000 0.96581  0.53228  0.40251  Biso   1.000  H
  H468     1.0000 0.94690  0.47942  0.37109  Biso   1.000  H
  C409     1.0000 0.91119  0.57144  0.14677  Biso   1.000  C
  H469     1.0000 0.90341  0.50671  0.19999  Biso   1.000  H
  H470     1.0000 0.96770  0.09751  0.96581  Biso   1.000  H
  H471     1.0000 0.02060  0.12889  0.94690  Biso   1.000  H
  C410     1.0000 0.92854  0.35321  0.91119  Biso   1.000  C
  H472     1.0000 0.99331  0.29999  0.90341  Biso   1.000  H
  C411     1.0000 0.92521  0.46291  0.80710  Biso   1.000  C
  H473     1.0000 0.92662  0.44279  0.68001  Biso   1.000  H
  H474     1.0000 0.98862  0.42620  0.67981  Biso   1.000  H
  C412     1.0000 0.97219  0.49008  0.62967  Biso   1.000  C
  H475     1.0000 0.03419  0.53228  0.59749  Biso   1.000  H
  H476     1.0000 0.05310  0.47942  0.62891  Biso   1.000  H
  C413     1.0000 0.96289  0.69292  0.07479  Biso   1.000  C
  H477     1.0000 0.94281  0.82001  0.07338  Biso   1.000  H
  H478     1.0000 0.92622  0.82021  0.01138  Biso   1.000  H
  C414     1.0000 0.99010  0.87035  0.02781  Biso   1.000  C
  H479     1.0000 0.97940  0.87111  0.94690  Biso   1.000  H
  H480     1.0000 0.03230  0.90249  0.96581  Biso   1.000  H
  C415     1.0000 0.86670  0.55861  0.11599  Biso   1.000  C
  C416     1.0000 0.94141  0.61597  0.13330  Biso   1.000  C
  C417     1.0000 0.88401  0.36668  0.94141  Biso   1.000  C
  C418     1.0000 0.94141  0.38403  0.86670  Biso   1.000  C
  C419     1.0000 0.91119  0.42856  0.85323  Biso   1.000  C
  H481     1.0000 0.90341  0.49329  0.80001  Biso   1.000  H
  H482     1.0000 0.96581  0.46772  0.59749  Biso   1.000  H
  H483     1.0000 0.94690  0.52058  0.62891  Biso   1.000  H
  C420     1.0000 0.92854  0.64679  0.08881  Biso   1.000  C
  H484     1.0000 0.99331  0.70001  0.09659  Biso   1.000  H
  H485     1.0000 0.02060  0.87111  0.05310  Biso   1.000  H
  H486     1.0000 0.96770  0.90249  0.03419  Biso   1.000  H
  H487     1.0000 0.84522  0.52872  0.12561  Biso   1.000  H
  C421     1.0000 0.85323  0.58883  0.07146  Biso   1.000  C
  H488     1.0000 0.97130  0.62559  0.15478  Biso   1.000  H
  H489     1.0000 0.87439  0.34520  0.97130  Biso   1.000  H
  C422     1.0000 0.85323  0.41117  0.92854  Biso   1.000  C
  H490     1.0000 0.97130  0.37441  0.84522  Biso   1.000  H
  C423     1.0000 0.86670  0.44139  0.88401  Biso   1.000  C
  C424     1.0000 0.88401  0.63332  0.05859  Biso   1.000  C
  C425     1.0000 0.80710  0.57477  0.03711  Biso   1.000  C
  C426     1.0000 0.80710  0.42523  0.96289  Biso   1.000  C
  H491     1.0000 0.84522  0.47128  0.87439  Biso   1.000  H
  H492     1.0000 0.87439  0.65480  0.02870  Biso   1.000  H
  N71      1.0000 0.77644  0.53533  0.04589  Biso   1.000  N
  H493     1.0000 0.80001  0.59661  0.00669  Biso   1.000  H
  N72      1.0000 0.77644  0.46467  0.95411  Biso   1.000  N
  H494     1.0000 0.80001  0.40339  0.99331  Biso   1.000  H
  C427     1.0000 0.73007  0.52771  0.01138  Biso   1.000  C
  C428     1.0000 0.73007  0.47229  0.98862  Biso   1.000  C
  H495     1.0000 0.73151  0.55429  0.98140  Biso   1.000  H
  C429     1.0000 0.68009  0.53641  0.04288  Biso   1.000  C
  C430     1.0000 0.68009  0.46359  0.95712  Biso   1.000  C
  H496     1.0000 0.73151  0.44571  0.01860  Biso   1.000  H
  H497     1.0000 0.68001  0.57340  0.05719  Biso   1.000  H
  H498     1.0000 0.67981  0.51140  0.07378  Biso   1.000  H
  C431     1.0000 0.62967  0.52779  0.00990  Biso   1.000  C
  H499     1.0000 0.68001  0.42660  0.94281  Biso   1.000  H
  H500     1.0000 0.67981  0.48860  0.92622  Biso   1.000  H
  C432     1.0000 0.62967  0.47221  0.99010  Biso   1.000  C
  H501     1.0000 0.62891  0.55308  0.97940  Biso   1.000  H
  H502     1.0000 0.59749  0.53421  0.03230  Biso   1.000  H
  H503     1.0000 0.59749  0.46579  0.96770  Biso   1.000  H
  H504     1.0000 0.62891  0.44692  0.02060  Biso   1.000  H
  C433     1.0000 0.04288  0.31991  0.46359  Biso   1.000  C
  C434     1.0000 0.01138  0.26993  0.47229  Biso   1.000  C
  H505     1.0000 0.05719  0.31999  0.42660  Biso   1.000  H
  H506     1.0000 0.07378  0.32019  0.48860  Biso   1.000  H
  C435     1.0000 0.00990  0.37033  0.47221  Biso   1.000  C
  N73      1.0000 0.04589  0.22356  0.46467  Biso   1.000  N
  C436     1.0000 0.98862  0.26993  0.52771  Biso   1.000  C
  H507     1.0000 0.98140  0.26849  0.44571  Biso   1.000  H
  H508     1.0000 0.03230  0.40251  0.46579  Biso   1.000  H
  C437     1.0000 0.99010  0.37033  0.52779  Biso   1.000  C
  H509     1.0000 0.97940  0.37109  0.44692  Biso   1.000  H
  C438     1.0000 0.03711  0.19290  0.42523  Biso   1.000  C
  H510     1.0000 0.01860  0.26849  0.55429  Biso   1.000  H
  N74      1.0000 0.95411  0.22356  0.53533  Biso   1.000  N
  C439     1.0000 0.95712  0.31991  0.53641  Biso   1.000  C
  H511     1.0000 0.02060  0.37109  0.55308  Biso   1.000  H
  H512     1.0000 0.96770  0.40251  0.53421  Biso   1.000  H
  C440     1.0000 0.07146  0.14677  0.41117  Biso   1.000  C
  H513     1.0000 0.00669  0.19999  0.40339  Biso   1.000  H
  C441     1.0000 0.96289  0.19290  0.57477  Biso   1.000  C
  H514     1.0000 0.94281  0.31999  0.57340  Biso   1.000  H
  H515     1.0000 0.92622  0.32019  0.51140  Biso   1.000  H
  C442     1.0000 0.11599  0.13330  0.44139  Biso   1.000  C
  C443     1.0000 0.05859  0.11599  0.36668  Biso   1.000  C
  C444     1.0000 0.92854  0.14677  0.58883  Biso   1.000  C
  H516     1.0000 0.99331  0.19999  0.59661  Biso   1.000  H
  C445     1.0000 0.14677  0.08881  0.42856  Biso   1.000  C
  H517     1.0000 0.12561  0.15478  0.47128  Biso   1.000  H
  C446     1.0000 0.08881  0.07146  0.35321  Biso   1.000  C
  H518     1.0000 0.02870  0.12561  0.34520  Biso   1.000  H
  C447     1.0000 0.94141  0.11599  0.63332  Biso   1.000  C
  C448     1.0000 0.88401  0.13330  0.55861  Biso   1.000  C
  C449     1.0000 0.13330  0.05859  0.38403  Biso   1.000  C
  C450     1.0000 0.19290  0.07479  0.46291  Biso   1.000  C
  C451     1.0000 0.07479  0.03711  0.30708  Biso   1.000  C
  H519     1.0000 0.97130  0.12561  0.65480  Biso   1.000  H
  C452     1.0000 0.91119  0.07146  0.64679  Biso   1.000  C
  H520     1.0000 0.87439  0.15478  0.52872  Biso   1.000  H
  C453     1.0000 0.85323  0.08881  0.57144  Biso   1.000  C
  H521     1.0000 0.15478  0.02870  0.37441  Biso   1.000  H
  N75      1.0000 0.22356  0.03535  0.45409  Biso   1.000  N
  H522     1.0000 0.19999  0.09659  0.49329  Biso   1.000  H
  N76      1.0000 0.03535  0.04589  0.27646  Biso   1.000  N
  H523     1.0000 0.09659  0.00669  0.29999  Biso   1.000  H
  C454     1.0000 0.86670  0.05859  0.61597  Biso   1.000  C
  C455     1.0000 0.92521  0.03711  0.69292  Biso   1.000  C
  C456     1.0000 0.80710  0.07479  0.53709  Biso   1.000  C
  C457     1.0000 0.26993  0.02769  0.48860  Biso   1.000  C
  C458     1.0000 0.02769  0.01138  0.23009  Biso   1.000  C
  H524     1.0000 0.84522  0.02870  0.62559  Biso   1.000  H
  N77      1.0000 0.96465  0.04589  0.72354  Biso   1.000  N
  H525     1.0000 0.90341  0.00669  0.70001  Biso   1.000  H
  N78      1.0000 0.77644  0.03535  0.54591  Biso   1.000  N
  H526     1.0000 0.80001  0.09659  0.50671  Biso   1.000  H
  H527     1.0000 0.26849  0.05431  0.51862  Biso   1.000  H
  C459     1.0000 0.31991  0.03639  0.45710  Biso   1.000  C
  C460     1.0000 0.26993  0.97231  0.51140  Biso   1.000  C
  C461     1.0000 0.03639  0.04288  0.18007  Biso   1.000  C
  C462     1.0000 0.97231  0.98862  0.23009  Biso   1.000  C
  H528     1.0000 0.05431  0.98140  0.23149  Biso   1.000  H
  C463     1.0000 0.97231  0.01138  0.76991  Biso   1.000  C
  C464     1.0000 0.73007  0.02769  0.51140  Biso   1.000  C
  H529     1.0000 0.31999  0.07338  0.44279  Biso   1.000  H
  H530     1.0000 0.32019  0.01138  0.42620  Biso   1.000  H
  C465     1.0000 0.37033  0.02781  0.49008  Biso   1.000  C
  N79      1.0000 0.22356  0.96465  0.54591  Biso   1.000  N
  H531     1.0000 0.26849  0.94569  0.48138  Biso   1.000  H
  C466     1.0000 0.31991  0.96361  0.54290  Biso   1.000  C
  H532     1.0000 0.07338  0.05719  0.17999  Biso   1.000  H
  H533     1.0000 0.01138  0.07378  0.17979  Biso   1.000  H
  C467     1.0000 0.02781  0.00990  0.12965  Biso   1.000  C
  N80      1.0000 0.96465  0.95411  0.27646  Biso   1.000  N
  C468     1.0000 0.96361  0.95712  0.18007  Biso   1.000  C
  H534     1.0000 0.94569  0.01860  0.23149  Biso   1.000  H
  C469     1.0000 0.02769  0.98862  0.76991  Biso   1.000  C
  H535     1.0000 0.94569  0.98140  0.76851  Biso   1.000  H
  C470     1.0000 0.96361  0.04288  0.81993  Biso   1.000  C
  C471     1.0000 0.73007  0.97231  0.48860  Biso   1.000  C
  H536     1.0000 0.73151  0.05431  0.48138  Biso   1.000  H
  C472     1.0000 0.68009  0.03639  0.54290  Biso   1.000  C
  H537     1.0000 0.40251  0.03419  0.46772  Biso   1.000  H
  H538     1.0000 0.37109  0.05310  0.52058  Biso   1.000  H
  C473     1.0000 0.37033  0.97219  0.50992  Biso   1.000  C
  C474     1.0000 0.19290  0.92521  0.53709  Biso   1.000  C
  H539     1.0000 0.31999  0.92662  0.55721  Biso   1.000  H
  H540     1.0000 0.32019  0.98862  0.57380  Biso   1.000  H
  H541     1.0000 0.03419  0.03230  0.09751  Biso   1.000  H
  C475     1.0000 0.97219  0.99010  0.12965  Biso   1.000  C
  H542     1.0000 0.05310  0.97940  0.12889  Biso   1.000  H
  C476     1.0000 0.92521  0.96289  0.30708  Biso   1.000  C
  H543     1.0000 0.92662  0.94281  0.17999  Biso   1.000  H
  H544     1.0000 0.98862  0.92622  0.17979  Biso   1.000  H
  N81      1.0000 0.03535  0.95411  0.72354  Biso   1.000  N
  H545     1.0000 0.05431  0.01860  0.76851  Biso   1.000  H
  C477     1.0000 0.03639  0.95712  0.81993  Biso   1.000  C
  H546     1.0000 0.92662  0.05719  0.82001  Biso   1.000  H
  H547     1.0000 0.98862  0.07378  0.82021  Biso   1.000  H
  C478     1.0000 0.97219  0.00990  0.87035  Biso   1.000  C
  N82      1.0000 0.77644  0.96465  0.45409  Biso   1.000  N
  H548     1.0000 0.73151  0.94569  0.51862  Biso   1.000  H
  C479     1.0000 0.68009  0.96361  0.45710  Biso   1.000  C
  C480     1.0000 0.62967  0.02781  0.50992  Biso   1.000  C
  H549     1.0000 0.68001  0.07338  0.55721  Biso   1.000  H
  H550     1.0000 0.67981  0.01138  0.57380  Biso   1.000  H
  H551     1.0000 0.40251  0.96581  0.53228  Biso   1.000  H
  H552     1.0000 0.37109  0.94690  0.47942  Biso   1.000  H
  C481     1.0000 0.14677  0.91119  0.57144  Biso   1.000  C
  H553     1.0000 0.19999  0.90341  0.50671  Biso   1.000  H
  H554     1.0000 0.96581  0.96770  0.09751  Biso   1.000  H
  H555     1.0000 0.94690  0.02060  0.12889  Biso   1.000  H
  C482     1.0000 0.91119  0.92854  0.35321  Biso   1.000  C
  H556     1.0000 0.90341  0.99331  0.29999  Biso   1.000  H
  C483     1.0000 0.07479  0.96289  0.69292  Biso   1.000  C
  H557     1.0000 0.07338  0.94281  0.82001  Biso   1.000  H
  H558     1.0000 0.01138  0.92622  0.82021  Biso   1.000  H
  C484     1.0000 0.02781  0.99010  0.87035  Biso   1.000  C
  H559     1.0000 0.94690  0.97940  0.87111  Biso   1.000  H
  H560     1.0000 0.96581  0.03230  0.90249  Biso   1.000  H
  C485     1.0000 0.80710  0.92521  0.46291  Biso   1.000  C
  H561     1.0000 0.68001  0.92662  0.44279  Biso   1.000  H
  H562     1.0000 0.67981  0.98862  0.42620  Biso   1.000  H
  C486     1.0000 0.62967  0.97219  0.49008  Biso   1.000  C
  H563     1.0000 0.59749  0.03419  0.53228  Biso   1.000  H
  H564     1.0000 0.62891  0.05310  0.47942  Biso   1.000  H
  C487     1.0000 0.13330  0.94141  0.61597  Biso   1.000  C
  C488     1.0000 0.11599  0.86670  0.55861  Biso   1.000  C
  C489     1.0000 0.86670  0.94141  0.38403  Biso   1.000  C
  C490     1.0000 0.94141  0.88401  0.36668  Biso   1.000  C
  C491     1.0000 0.08881  0.92854  0.64679  Biso   1.000  C
  H565     1.0000 0.09659  0.99331  0.70001  Biso   1.000  H
  H566     1.0000 0.05310  0.02060  0.87111  Biso   1.000  H
  H567     1.0000 0.03419  0.96770  0.90249  Biso   1.000  H
  C492     1.0000 0.85323  0.91119  0.42856  Biso   1.000  C
  H568     1.0000 0.80001  0.90341  0.49329  Biso   1.000  H
  H569     1.0000 0.59749  0.96581  0.46772  Biso   1.000  H
  H570     1.0000 0.62891  0.94690  0.52058  Biso   1.000  H
  H571     1.0000 0.15478  0.97130  0.62559  Biso   1.000  H
  H572     1.0000 0.12561  0.84522  0.52872  Biso   1.000  H
  C493     1.0000 0.07146  0.85323  0.58883  Biso   1.000  C
  H573     1.0000 0.84522  0.97130  0.37441  Biso   1.000  H
  H574     1.0000 0.97130  0.87439  0.34520  Biso   1.000  H
  C494     1.0000 0.92854  0.85323  0.41117  Biso   1.000  C
  C495     1.0000 0.05859  0.88401  0.63332  Biso   1.000  C
  C496     1.0000 0.88401  0.86670  0.44139  Biso   1.000  C
  C497     1.0000 0.03711  0.80710  0.57477  Biso   1.000  C
  C498     1.0000 0.96289  0.80710  0.42523  Biso   1.000  C
  H575     1.0000 0.02870  0.87439  0.65480  Biso   1.000  H
  H576     1.0000 0.87439  0.84522  0.47128  Biso   1.000  H
  N83      1.0000 0.04589  0.77644  0.53533  Biso   1.000  N
  H577     1.0000 0.00669  0.80001  0.59661  Biso   1.000  H
  N84      1.0000 0.95411  0.77644  0.46467  Biso   1.000  N
  H578     1.0000 0.99331  0.80001  0.40339  Biso   1.000  H
  C499     1.0000 0.01138  0.73007  0.52771  Biso   1.000  C
  C500     1.0000 0.98862  0.73007  0.47229  Biso   1.000  C
  H579     1.0000 0.98140  0.73151  0.55429  Biso   1.000  H
  C501     1.0000 0.04288  0.68009  0.53641  Biso   1.000  C
  C502     1.0000 0.95712  0.68009  0.46359  Biso   1.000  C
  H580     1.0000 0.01860  0.73151  0.44571  Biso   1.000  H
  H581     1.0000 0.05719  0.68001  0.57340  Biso   1.000  H
  H582     1.0000 0.07378  0.67981  0.51140  Biso   1.000  H
  C503     1.0000 0.00990  0.62967  0.52779  Biso   1.000  C
  H583     1.0000 0.94281  0.68001  0.42660  Biso   1.000  H
  H584     1.0000 0.92622  0.67981  0.48860  Biso   1.000  H
  C504     1.0000 0.99010  0.62967  0.47221  Biso   1.000  C
  H585     1.0000 0.97940  0.62891  0.55308  Biso   1.000  H
  H586     1.0000 0.03230  0.59749  0.53421  Biso   1.000  H
  H587     1.0000 0.96770  0.59749  0.46579  Biso   1.000  H
  H588     1.0000 0.02060  0.62891  0.44692  Biso   1.000  H
  C505     1.0000 0.75989  0.72222  0.37966  Biso   1.000  C
  C506     1.0000 0.79291  0.71360  0.43008  Biso   1.000  C
  C507     1.0000 0.74009  0.77780  0.37966  Biso   1.000  C
  H589     1.0000 0.78229  0.71580  0.34748  Biso   1.000  H
  H590     1.0000 0.72939  0.69689  0.37890  Biso   1.000  H
  C508     1.0000 0.76137  0.72230  0.48006  Biso   1.000  C
  H591     1.0000 0.80718  0.67661  0.43000  Biso   1.000  H
  H592     1.0000 0.82381  0.73861  0.42980  Biso   1.000  H
  C509     1.0000 0.70711  0.78638  0.43008  Biso   1.000  C
  H593     1.0000 0.71769  0.78422  0.34748  Biso   1.000  H
  H594     1.0000 0.77059  0.80309  0.37890  Biso   1.000  H
  N85      1.0000 0.79592  0.71464  0.52643  Biso   1.000  N
  C510     1.0000 0.73861  0.77772  0.48006  Biso   1.000  C
  H595     1.0000 0.73139  0.69568  0.48150  Biso   1.000  H
  H596     1.0000 0.69280  0.82341  0.43000  Biso   1.000  H
  H597     1.0000 0.67621  0.76141  0.42980  Biso   1.000  H
  C511     1.0000 0.78710  0.67520  0.55709  Biso   1.000  C
  N86      1.0000 0.70410  0.78534  0.52643  Biso   1.000  N
  H598     1.0000 0.76859  0.80430  0.48150  Biso   1.000  H
  C512     1.0000 0.82145  0.66118  0.60322  Biso   1.000  C
  H599     1.0000 0.75668  0.65340  0.55000  Biso   1.000  H
  C513     1.0000 0.71292  0.82478  0.55709  Biso   1.000  C
  C514     1.0000 0.86598  0.69140  0.61669  Biso   1.000  C
  C515     1.0000 0.80862  0.61669  0.63400  Biso   1.000  C
  C516     1.0000 0.67857  0.83884  0.60322  Biso   1.000  C
  H600     1.0000 0.74330  0.84662  0.55000  Biso   1.000  H
  H601     1.0000 0.87560  0.72129  0.59521  Biso   1.000  H
  C517     1.0000 0.89680  0.67857  0.66118  Biso   1.000  C
  H602     1.0000 0.77869  0.59521  0.62438  Biso   1.000  H
  C518     1.0000 0.83884  0.60322  0.67857  Biso   1.000  C
  C519     1.0000 0.69140  0.88333  0.63400  Biso   1.000  C
  C520     1.0000 0.63400  0.80862  0.61669  Biso   1.000  C
  C521     1.0000 0.88333  0.63400  0.69140  Biso   1.000  C
  C522     1.0000 0.94293  0.71292  0.67520  Biso   1.000  C
  C523     1.0000 0.82478  0.55709  0.71292  Biso   1.000  C
  H603     1.0000 0.72129  0.90481  0.62438  Biso   1.000  H
  C524     1.0000 0.66118  0.89680  0.67857  Biso   1.000  C
  H604     1.0000 0.62438  0.77869  0.59521  Biso   1.000  H
  C525     1.0000 0.60322  0.82145  0.66118  Biso   1.000  C
  H605     1.0000 0.90481  0.62438  0.72129  Biso   1.000  H
  N87      1.0000 0.97355  0.70410  0.71464  Biso   1.000  N
  H606     1.0000 0.94998  0.74330  0.65340  Biso   1.000  H
  N88      1.0000 0.78534  0.52643  0.70410  Biso   1.000  N
  H607     1.0000 0.84662  0.55000  0.74330  Biso   1.000  H
  C526     1.0000 0.61669  0.86598  0.69140  Biso   1.000  C
  C527     1.0000 0.67520  0.94293  0.71292  Biso   1.000  C
  C528     1.0000 0.55709  0.78710  0.67520  Biso   1.000  C
  C529     1.0000 0.01992  0.73861  0.72230  Biso   1.000  C
  C530     1.0000 0.77772  0.48006  0.73861  Biso   1.000  C
  H608     1.0000 0.59521  0.87560  0.72129  Biso   1.000  H
  N89      1.0000 0.71464  0.97355  0.70410  Biso   1.000  N
  H609     1.0000 0.65340  0.94998  0.74330  Biso   1.000  H
  N90      1.0000 0.52643  0.79592  0.71464  Biso   1.000  N
  H610     1.0000 0.55000  0.75668  0.65340  Biso   1.000  H
  C531     1.0000 0.01992  0.76137  0.77772  Biso   1.000  C
  H611     1.0000 0.01852  0.76859  0.69568  Biso   1.000  H
  C532     1.0000 0.06994  0.70711  0.71360  Biso   1.000  C
  C533     1.0000 0.72230  0.48006  0.76137  Biso   1.000  C
  H612     1.0000 0.80430  0.48150  0.76859  Biso   1.000  H
  C534     1.0000 0.78638  0.43008  0.70711  Biso   1.000  C
  C535     1.0000 0.72230  0.01992  0.73861  Biso   1.000  C
  C536     1.0000 0.48006  0.76137  0.72230  Biso   1.000  C
  N91      1.0000 0.97355  0.79592  0.78534  Biso   1.000  N
  H613     1.0000 0.01852  0.73139  0.80430  Biso   1.000  H
  C537     1.0000 0.06994  0.79291  0.78638  Biso   1.000  C
  H614     1.0000 0.07002  0.69280  0.67661  Biso   1.000  H
  H615     1.0000 0.07022  0.67621  0.73861  Biso   1.000  H
  C538     1.0000 0.12032  0.74009  0.72222  Biso   1.000  C
  N92      1.0000 0.71464  0.52643  0.79592  Biso   1.000  N
  H616     1.0000 0.69568  0.48150  0.73139  Biso   1.000  H
  C539     1.0000 0.71360  0.43008  0.79291  Biso   1.000  C
  H617     1.0000 0.82341  0.43000  0.69280  Biso   1.000  H
  H618     1.0000 0.76141  0.42980  0.67621  Biso   1.000  H
  C540     1.0000 0.77780  0.37966  0.74009  Biso   1.000  C
  C541     1.0000 0.77772  0.01992  0.76137  Biso   1.000  C
  H619     1.0000 0.69568  0.01852  0.76859  Biso   1.000  H
  C542     1.0000 0.71360  0.06994  0.70711  Biso   1.000  C
  C543     1.0000 0.48006  0.73861  0.77772  Biso   1.000  C
  H620     1.0000 0.48150  0.73139  0.69568  Biso   1.000  H
  C544     1.0000 0.43008  0.79291  0.71360  Biso   1.000  C
  C545     1.0000 0.94293  0.78710  0.82478  Biso   1.000  C
  H621     1.0000 0.07002  0.80718  0.82341  Biso   1.000  H
  H622     1.0000 0.07022  0.82381  0.76141  Biso   1.000  H
  C546     1.0000 0.12032  0.75989  0.77780  Biso   1.000  C
  H623     1.0000 0.15250  0.71769  0.71580  Biso   1.000  H
  H624     1.0000 0.12112  0.77059  0.69689  Biso   1.000  H
  C547     1.0000 0.67520  0.55709  0.78710  Biso   1.000  C
  H625     1.0000 0.67661  0.43000  0.80718  Biso   1.000  H
  H626     1.0000 0.73861  0.42980  0.82381  Biso   1.000  H
  C548     1.0000 0.72222  0.37966  0.75989  Biso   1.000  C
  H627     1.0000 0.78422  0.34748  0.71769  Biso   1.000  H
  H628     1.0000 0.80309  0.37890  0.77059  Biso   1.000  H
  N93      1.0000 0.78534  0.97355  0.79592  Biso   1.000  N
  H629     1.0000 0.80430  0.01852  0.73139  Biso   1.000  H
  C549     1.0000 0.78638  0.06994  0.79291  Biso   1.000  C
  H630     1.0000 0.67661  0.07002  0.69280  Biso   1.000  H
  H631     1.0000 0.73861  0.07022  0.67621  Biso   1.000  H
  C550     1.0000 0.72222  0.12032  0.74009  Biso   1.000  C
  N94      1.0000 0.52643  0.70410  0.78534  Biso   1.000  N
  H632     1.0000 0.48150  0.76859  0.80430  Biso   1.000  H
  C551     1.0000 0.43008  0.70711  0.78638  Biso   1.000  C
  H633     1.0000 0.43000  0.80718  0.67661  Biso   1.000  H
  H634     1.0000 0.42980  0.82381  0.73861  Biso   1.000  H
  C552     1.0000 0.37966  0.75989  0.72222  Biso   1.000  C
  C553     1.0000 0.89680  0.82145  0.83884  Biso   1.000  C
  H635     1.0000 0.94998  0.75668  0.84662  Biso   1.000  H
  H636     1.0000 0.15250  0.78229  0.78422  Biso   1.000  H
  H637     1.0000 0.12112  0.72939  0.80309  Biso   1.000  H
  C554     1.0000 0.66118  0.60322  0.82145  Biso   1.000  C
  H638     1.0000 0.65340  0.55000  0.75668  Biso   1.000  H
  H639     1.0000 0.71580  0.34748  0.78229  Biso   1.000  H
  H640     1.0000 0.69689  0.37890  0.72939  Biso   1.000  H
  C555     1.0000 0.82478  0.94293  0.78710  Biso   1.000  C
  H641     1.0000 0.82341  0.07002  0.80718  Biso   1.000  H
  H642     1.0000 0.76141  0.07022  0.82381  Biso   1.000  H
  C556     1.0000 0.77780  0.12032  0.75989  Biso   1.000  C
  H643     1.0000 0.71580  0.15250  0.71769  Biso   1.000  H
  H644     1.0000 0.69689  0.12112  0.77059  Biso   1.000  H
  C557     1.0000 0.55709  0.71292  0.82478  Biso   1.000  C
  H645     1.0000 0.43000  0.69280  0.82341  Biso   1.000  H
  H646     1.0000 0.42980  0.67621  0.76141  Biso   1.000  H
  C558     1.0000 0.37966  0.74009  0.77780  Biso   1.000  C
  H647     1.0000 0.34748  0.78229  0.71580  Biso   1.000  H
  H648     1.0000 0.37890  0.72939  0.69689  Biso   1.000  H
  C559     1.0000 0.88333  0.86598  0.80862  Biso   1.000  C
  C560     1.0000 0.86598  0.80862  0.88333  Biso   1.000  C
  C561     1.0000 0.69140  0.61669  0.86598  Biso   1.000  C
  C562     1.0000 0.61669  0.63400  0.80862  Biso   1.000  C
  C563     1.0000 0.83884  0.89680  0.82145  Biso   1.000  C
  H649     1.0000 0.84662  0.94998  0.75668  Biso   1.000  H
  H650     1.0000 0.78422  0.15250  0.78229  Biso   1.000  H
  H651     1.0000 0.80309  0.12112  0.72939  Biso   1.000  H
  C564     1.0000 0.60322  0.67857  0.83884  Biso   1.000  C
  H652     1.0000 0.55000  0.74330  0.84662  Biso   1.000  H
  H653     1.0000 0.34748  0.71769  0.78422  Biso   1.000  H
  H654     1.0000 0.37890  0.77059  0.80309  Biso   1.000  H
  H655     1.0000 0.90481  0.87560  0.77869  Biso   1.000  H
  H656     1.0000 0.87560  0.77869  0.90481  Biso   1.000  H
  C565     1.0000 0.82145  0.83884  0.89680  Biso   1.000  C
  H657     1.0000 0.72129  0.59521  0.87560  Biso   1.000  H
  C566     1.0000 0.67857  0.66118  0.89680  Biso   1.000  C
  H658     1.0000 0.59521  0.62438  0.77869  Biso   1.000  H
  C567     1.0000 0.80862  0.88333  0.86598  Biso   1.000  C
  C568     1.0000 0.63400  0.69140  0.88333  Biso   1.000  C
  C569     1.0000 0.78710  0.82478  0.94293  Biso   1.000  C
  C570     1.0000 0.71292  0.67520  0.94293  Biso   1.000  C
  H659     1.0000 0.77869  0.90481  0.87560  Biso   1.000  H
  H660     1.0000 0.62438  0.72129  0.90481  Biso   1.000  H
  N95      1.0000 0.79592  0.78534  0.97355  Biso   1.000  N
  H661     1.0000 0.75668  0.84662  0.94998  Biso   1.000  H
  N96      1.0000 0.70410  0.71464  0.97355  Biso   1.000  N
  H662     1.0000 0.74330  0.65340  0.94998  Biso   1.000  H
  C571     1.0000 0.76137  0.77772  0.01992  Biso   1.000  C
  C572     1.0000 0.73861  0.72230  0.01992  Biso   1.000  C
  H663     1.0000 0.73139  0.80430  0.01852  Biso   1.000  H
  C573     1.0000 0.79291  0.78638  0.06994  Biso   1.000  C
  H664     1.0000 0.76859  0.69568  0.01852  Biso   1.000  H
  C574     1.0000 0.70711  0.71360  0.06994  Biso   1.000  C
  H665     1.0000 0.80718  0.82341  0.07002  Biso   1.000  H
  H666     1.0000 0.82381  0.76141  0.07022  Biso   1.000  H
  C575     1.0000 0.75989  0.77780  0.12032  Biso   1.000  C
  H667     1.0000 0.69280  0.67661  0.07002  Biso   1.000  H
  H668     1.0000 0.67621  0.73861  0.07022  Biso   1.000  H
  C576     1.0000 0.74009  0.72222  0.12032  Biso   1.000  C
  H669     1.0000 0.78229  0.78422  0.15250  Biso   1.000  H
  H670     1.0000 0.72939  0.80309  0.12112  Biso   1.000  H
  H671     1.0000 0.71769  0.71580  0.15250  Biso   1.000  H
  H672     1.0000 0.77059  0.69689  0.12112  Biso   1.000  H
