data_image0
_cell_length_a       24.951
_cell_length_b       24.951
_cell_length_c       24.951
_cell_angle_alpha    90
_cell_angle_beta     90
_cell_angle_gamma    90

_symmetry_space_group_name_H-M    "P 1"
_symmetry_int_tables_number       1

loop_
  _symmetry_equiv_pos_as_xyz
  'x, y, z'

loop_
  _atom_site_label
  _atom_site_occupancy
  _atom_site_fract_x
  _atom_site_fract_y
  _atom_site_fract_z
  _atom_site_thermal_displace_type
  _atom_site_B_iso_or_equiv
  _atom_site_type_symbol
  C1       1.0000 0.37966  0.24011  0.27778  Biso   1.000  C
  C2       1.0000 0.37966  0.25991  0.22220  Biso   1.000  C
  C3       1.0000 0.43008  0.20709  0.28640  Biso   1.000  C
  H1       1.0000 0.34748  0.21771  0.28420  Biso   1.000  H
  H2       1.0000 0.37890  0.27061  0.30311  Biso   1.000  H
  C4       1.0000 0.43008  0.29289  0.21362  Biso   1.000  C
  H3       1.0000 0.34748  0.28231  0.21578  Biso   1.000  H
  H4       1.0000 0.37890  0.22941  0.19691  Biso   1.000  H
  C5       1.0000 0.48006  0.23863  0.27770  Biso   1.000  C
  H5       1.0000 0.43000  0.19282  0.32339  Biso   1.000  H
  H6       1.0000 0.42980  0.17619  0.26139  Biso   1.000  H
  C6       1.0000 0.48006  0.26139  0.22228  Biso   1.000  C
  H7       1.0000 0.43000  0.30720  0.17659  Biso   1.000  H
  H8       1.0000 0.42980  0.32379  0.23859  Biso   1.000  H
  N1       1.0000 0.52643  0.20408  0.28536  Biso   1.000  N
  H9       1.0000 0.48150  0.26861  0.30432  Biso   1.000  H
  N2       1.0000 0.52643  0.29590  0.21466  Biso   1.000  N
  H10      1.0000 0.48150  0.23141  0.19570  Biso   1.000  H
  C7       1.0000 0.55709  0.21290  0.32480  Biso   1.000  C
  C8       1.0000 0.55709  0.28708  0.17522  Biso   1.000  C
  C9       1.0000 0.60322  0.17855  0.33882  Biso   1.000  C
  H11      1.0000 0.55000  0.24332  0.34660  Biso   1.000  H
  C10      1.0000 0.60322  0.32143  0.16116  Biso   1.000  C
  H12      1.0000 0.55000  0.25670  0.15338  Biso   1.000  H
  C11      1.0000 0.63400  0.19138  0.38331  Biso   1.000  C
  C12      1.0000 0.61669  0.13402  0.30860  Biso   1.000  C
  C13      1.0000 0.61669  0.36600  0.19138  Biso   1.000  C
  C14      1.0000 0.63400  0.30860  0.11667  Biso   1.000  C
  H13      1.0000 0.62438  0.22131  0.40479  Biso   1.000  H
  C15      1.0000 0.67857  0.16116  0.39678  Biso   1.000  C
  H14      1.0000 0.59521  0.12440  0.27871  Biso   1.000  H
  C16      1.0000 0.66118  0.10320  0.32143  Biso   1.000  C
  C17      1.0000 0.66118  0.39678  0.17855  Biso   1.000  C
  H15      1.0000 0.59521  0.37562  0.22131  Biso   1.000  H
  H16      1.0000 0.62438  0.27871  0.09519  Biso   1.000  H
  C18      1.0000 0.67857  0.33882  0.10320  Biso   1.000  C
  C19      1.0000 0.71292  0.17522  0.44291  Biso   1.000  C
  C20      1.0000 0.69140  0.11667  0.36600  Biso   1.000  C
  C21      1.0000 0.67520  0.05707  0.28708  Biso   1.000  C
  C22      1.0000 0.69140  0.38331  0.13402  Biso   1.000  C
  C23      1.0000 0.67520  0.44291  0.21290  Biso   1.000  C
  C24      1.0000 0.71292  0.32480  0.05707  Biso   1.000  C
  N3       1.0000 0.70410  0.21466  0.47357  Biso   1.000  N
  H17      1.0000 0.74330  0.15338  0.45000  Biso   1.000  H
  H18      1.0000 0.72129  0.09519  0.37562  Biso   1.000  H
  N4       1.0000 0.71464  0.02645  0.29590  Biso   1.000  N
  H19      1.0000 0.65340  0.05002  0.25670  Biso   1.000  H
  H20      1.0000 0.72129  0.40479  0.12440  Biso   1.000  H
  N5       1.0000 0.71464  0.47357  0.20408  Biso   1.000  N
  H21      1.0000 0.65340  0.45000  0.24332  Biso   1.000  H
  N6       1.0000 0.70410  0.28536  0.02645  Biso   1.000  N
  H22      1.0000 0.74330  0.34660  0.05002  Biso   1.000  H
  C25      1.0000 0.73861  0.22228  0.51994  Biso   1.000  C
  C26      1.0000 0.72230  0.98008  0.26139  Biso   1.000  C
  C27      1.0000 0.72230  0.51994  0.23863  Biso   1.000  C
  C28      1.0000 0.73861  0.27770  0.98008  Biso   1.000  C
  C29      1.0000 0.76137  0.27770  0.51994  Biso   1.000  C
  H23      1.0000 0.76859  0.19570  0.51850  Biso   1.000  H
  C30      1.0000 0.70711  0.21362  0.56992  Biso   1.000  C
  H24      1.0000 0.69568  0.98148  0.23141  Biso   1.000  H
  C31      1.0000 0.71360  0.93006  0.29289  Biso   1.000  C
  C32      1.0000 0.77772  0.98008  0.23863  Biso   1.000  C
  C33      1.0000 0.77772  0.51994  0.26139  Biso   1.000  C
  H25      1.0000 0.69568  0.51850  0.26861  Biso   1.000  H
  C34      1.0000 0.71360  0.56992  0.20709  Biso   1.000  C
  H26      1.0000 0.76859  0.30432  0.98148  Biso   1.000  H
  C35      1.0000 0.70711  0.28640  0.93006  Biso   1.000  C
  C36      1.0000 0.76137  0.22228  0.98008  Biso   1.000  C
  N7       1.0000 0.79592  0.28536  0.47357  Biso   1.000  N
  H27      1.0000 0.73139  0.30432  0.51850  Biso   1.000  H
  C37      1.0000 0.79291  0.28640  0.56992  Biso   1.000  C
  H28      1.0000 0.69280  0.17659  0.57000  Biso   1.000  H
  H29      1.0000 0.67621  0.23859  0.57020  Biso   1.000  H
  C38      1.0000 0.74009  0.22220  0.62034  Biso   1.000  C
  H30      1.0000 0.67661  0.92998  0.30720  Biso   1.000  H
  H31      1.0000 0.73861  0.92978  0.32379  Biso   1.000  H
  C39      1.0000 0.72222  0.87968  0.25991  Biso   1.000  C
  N8       1.0000 0.78534  0.02645  0.20408  Biso   1.000  N
  H32      1.0000 0.80430  0.98148  0.26861  Biso   1.000  H
  C40      1.0000 0.78638  0.93006  0.20709  Biso   1.000  C
  N9       1.0000 0.78534  0.47357  0.29590  Biso   1.000  N
  H33      1.0000 0.80430  0.51850  0.23141  Biso   1.000  H
  C41      1.0000 0.78638  0.56992  0.29289  Biso   1.000  C
  H34      1.0000 0.67661  0.57000  0.19282  Biso   1.000  H
  H35      1.0000 0.73861  0.57020  0.17619  Biso   1.000  H
  C42      1.0000 0.72222  0.62034  0.24011  Biso   1.000  C
  H36      1.0000 0.69280  0.32339  0.92998  Biso   1.000  H
  H37      1.0000 0.67621  0.26139  0.92978  Biso   1.000  H
  C43      1.0000 0.74009  0.27778  0.87968  Biso   1.000  C
  N10      1.0000 0.79592  0.21466  0.02645  Biso   1.000  N
  H38      1.0000 0.73139  0.19570  0.98148  Biso   1.000  H
  C44      1.0000 0.79291  0.21362  0.93006  Biso   1.000  C
  C45      1.0000 0.78710  0.32480  0.44291  Biso   1.000  C
  H39      1.0000 0.80718  0.32339  0.57000  Biso   1.000  H
  H40      1.0000 0.82381  0.26139  0.57020  Biso   1.000  H
  C46      1.0000 0.75989  0.27778  0.62034  Biso   1.000  C
  H41      1.0000 0.71769  0.21578  0.65252  Biso   1.000  H
  H42      1.0000 0.77059  0.19691  0.62110  Biso   1.000  H
  H43      1.0000 0.71580  0.84750  0.28231  Biso   1.000  H
  H44      1.0000 0.69689  0.87888  0.22941  Biso   1.000  H
  C47      1.0000 0.77780  0.87968  0.24011  Biso   1.000  C
  C48      1.0000 0.82478  0.05707  0.21290  Biso   1.000  C
  H45      1.0000 0.82341  0.92998  0.19282  Biso   1.000  H
  H46      1.0000 0.76141  0.92978  0.17619  Biso   1.000  H
  C49      1.0000 0.82478  0.44291  0.28708  Biso   1.000  C
  H47      1.0000 0.82341  0.57000  0.30720  Biso   1.000  H
  H48      1.0000 0.76141  0.57020  0.32379  Biso   1.000  H
  C50      1.0000 0.77780  0.62034  0.25991  Biso   1.000  C
  H49      1.0000 0.71580  0.65252  0.21771  Biso   1.000  H
  H50      1.0000 0.69689  0.62110  0.27061  Biso   1.000  H
  H51      1.0000 0.71769  0.28420  0.84750  Biso   1.000  H
  H52      1.0000 0.77059  0.30311  0.87888  Biso   1.000  H
  C51      1.0000 0.75989  0.22220  0.87968  Biso   1.000  C
  C52      1.0000 0.78710  0.17522  0.05707  Biso   1.000  C
  H53      1.0000 0.80718  0.17659  0.92998  Biso   1.000  H
  H54      1.0000 0.82381  0.23859  0.92978  Biso   1.000  H
  C53      1.0000 0.82145  0.33882  0.39678  Biso   1.000  C
  H55      1.0000 0.75668  0.34660  0.45000  Biso   1.000  H
  H56      1.0000 0.78229  0.28420  0.65252  Biso   1.000  H
  H57      1.0000 0.72939  0.30311  0.62110  Biso   1.000  H
  H58      1.0000 0.78422  0.84750  0.21771  Biso   1.000  H
  H59      1.0000 0.80309  0.87888  0.27061  Biso   1.000  H
  C54      1.0000 0.83884  0.10320  0.17855  Biso   1.000  C
  H60      1.0000 0.84662  0.05002  0.24332  Biso   1.000  H
  C55      1.0000 0.83884  0.39678  0.32143  Biso   1.000  C
  H61      1.0000 0.84662  0.45000  0.25670  Biso   1.000  H
  H62      1.0000 0.78422  0.65252  0.28231  Biso   1.000  H
  H63      1.0000 0.80309  0.62110  0.22941  Biso   1.000  H
  H64      1.0000 0.78229  0.21578  0.84750  Biso   1.000  H
  H65      1.0000 0.72939  0.19691  0.87888  Biso   1.000  H
  C56      1.0000 0.82145  0.16116  0.10320  Biso   1.000  C
  H66      1.0000 0.75668  0.15338  0.05002  Biso   1.000  H
  C57      1.0000 0.80862  0.38331  0.36600  Biso   1.000  C
  C58      1.0000 0.86598  0.30860  0.38331  Biso   1.000  C
  C59      1.0000 0.88333  0.13402  0.19138  Biso   1.000  C
  C60      1.0000 0.80862  0.11667  0.13402  Biso   1.000  C
  C61      1.0000 0.88333  0.36600  0.30860  Biso   1.000  C
  C62      1.0000 0.86598  0.19138  0.11667  Biso   1.000  C
  H67      1.0000 0.77869  0.40479  0.37562  Biso   1.000  H
  H68      1.0000 0.87560  0.27871  0.40479  Biso   1.000  H
  C63      1.0000 0.89680  0.32143  0.33882  Biso   1.000  C
  H69      1.0000 0.90481  0.12440  0.22131  Biso   1.000  H
  C64      1.0000 0.89680  0.17855  0.16116  Biso   1.000  C
  H70      1.0000 0.77869  0.09519  0.12440  Biso   1.000  H
  H71      1.0000 0.90481  0.37562  0.27871  Biso   1.000  H
  H72      1.0000 0.87560  0.22131  0.09519  Biso   1.000  H
  C65      1.0000 0.94293  0.28708  0.32480  Biso   1.000  C
  C66      1.0000 0.94293  0.21290  0.17522  Biso   1.000  C
  N11      1.0000 0.97355  0.29590  0.28536  Biso   1.000  N
  H73      1.0000 0.94998  0.25670  0.34660  Biso   1.000  H
  N12      1.0000 0.97355  0.20408  0.21466  Biso   1.000  N
  H74      1.0000 0.94998  0.24332  0.15338  Biso   1.000  H
  C67      1.0000 0.01992  0.26139  0.27770  Biso   1.000  C
  C68      1.0000 0.01992  0.23863  0.22228  Biso   1.000  C
  H75      1.0000 0.01852  0.23141  0.30432  Biso   1.000  H
  C69      1.0000 0.06994  0.29289  0.28640  Biso   1.000  C
  H76      1.0000 0.01852  0.26861  0.19570  Biso   1.000  H
  C70      1.0000 0.06994  0.20709  0.21362  Biso   1.000  C
  H77      1.0000 0.07002  0.30720  0.32339  Biso   1.000  H
  H78      1.0000 0.07022  0.32379  0.26139  Biso   1.000  H
  C71      1.0000 0.12032  0.25991  0.27778  Biso   1.000  C
  H79      1.0000 0.07002  0.19282  0.17659  Biso   1.000  H
  H80      1.0000 0.07022  0.17619  0.23859  Biso   1.000  H
  C72      1.0000 0.12032  0.24011  0.22220  Biso   1.000  C
  H81      1.0000 0.15250  0.28231  0.28420  Biso   1.000  H
  H82      1.0000 0.12112  0.22941  0.30311  Biso   1.000  H
  H83      1.0000 0.15250  0.21771  0.21578  Biso   1.000  H
  H84      1.0000 0.12112  0.27061  0.19691  Biso   1.000  H
  C73      1.0000 0.27778  0.37966  0.24011  Biso   1.000  C
  C74      1.0000 0.22220  0.37966  0.25991  Biso   1.000  C
  C75      1.0000 0.28640  0.43008  0.20709  Biso   1.000  C
  H85      1.0000 0.28420  0.34748  0.21771  Biso   1.000  H
  H86      1.0000 0.30311  0.37890  0.27061  Biso   1.000  H
  C76      1.0000 0.21362  0.43008  0.29289  Biso   1.000  C
  H87      1.0000 0.21578  0.34748  0.28231  Biso   1.000  H
  H88      1.0000 0.19691  0.37890  0.22941  Biso   1.000  H
  C77      1.0000 0.27770  0.48006  0.23863  Biso   1.000  C
  H89      1.0000 0.32339  0.43000  0.19282  Biso   1.000  H
  H90      1.0000 0.26139  0.42980  0.17619  Biso   1.000  H
  C78      1.0000 0.22228  0.48006  0.26139  Biso   1.000  C
  H91      1.0000 0.17659  0.43000  0.30720  Biso   1.000  H
  H92      1.0000 0.23859  0.42980  0.32379  Biso   1.000  H
  N13      1.0000 0.28536  0.52643  0.20408  Biso   1.000  N
  H93      1.0000 0.30432  0.48150  0.26861  Biso   1.000  H
  N14      1.0000 0.21466  0.52643  0.29590  Biso   1.000  N
  H94      1.0000 0.19570  0.48150  0.23141  Biso   1.000  H
  C79      1.0000 0.32480  0.55709  0.21290  Biso   1.000  C
  C80      1.0000 0.17522  0.55709  0.28708  Biso   1.000  C
  C81      1.0000 0.33882  0.60322  0.17855  Biso   1.000  C
  H95      1.0000 0.34660  0.55000  0.24332  Biso   1.000  H
  C82      1.0000 0.16116  0.60322  0.32143  Biso   1.000  C
  H96      1.0000 0.15338  0.55000  0.25670  Biso   1.000  H
  C83      1.0000 0.38331  0.63400  0.19138  Biso   1.000  C
  C84      1.0000 0.30860  0.61669  0.13402  Biso   1.000  C
  C85      1.0000 0.11667  0.63400  0.30860  Biso   1.000  C
  C86      1.0000 0.19138  0.61669  0.36600  Biso   1.000  C
  H97      1.0000 0.40479  0.62438  0.22131  Biso   1.000  H
  C87      1.0000 0.39678  0.67857  0.16116  Biso   1.000  C
  C88      1.0000 0.32143  0.66118  0.10320  Biso   1.000  C
  H98      1.0000 0.27871  0.59521  0.12440  Biso   1.000  H
  H99      1.0000 0.09519  0.62438  0.27871  Biso   1.000  H
  C89      1.0000 0.10320  0.67857  0.33882  Biso   1.000  C
  C90      1.0000 0.17855  0.66118  0.39678  Biso   1.000  C
  H100     1.0000 0.22131  0.59521  0.37562  Biso   1.000  H
  C91      1.0000 0.44291  0.71292  0.17522  Biso   1.000  C
  C92      1.0000 0.36600  0.69140  0.11667  Biso   1.000  C
  C93      1.0000 0.28708  0.67520  0.05707  Biso   1.000  C
  C94      1.0000 0.13402  0.69140  0.38331  Biso   1.000  C
  C95      1.0000 0.05707  0.71292  0.32480  Biso   1.000  C
  C96      1.0000 0.21290  0.67520  0.44291  Biso   1.000  C
  N15      1.0000 0.47357  0.70410  0.21466  Biso   1.000  N
  H101     1.0000 0.45000  0.74330  0.15338  Biso   1.000  H
  H102     1.0000 0.37562  0.72129  0.09519  Biso   1.000  H
  N16      1.0000 0.29590  0.71464  0.02645  Biso   1.000  N
  H103     1.0000 0.25670  0.65340  0.05002  Biso   1.000  H
  H104     1.0000 0.12440  0.72129  0.40479  Biso   1.000  H
  N17      1.0000 0.02645  0.70410  0.28536  Biso   1.000  N
  H105     1.0000 0.05002  0.74330  0.34660  Biso   1.000  H
  N18      1.0000 0.20408  0.71464  0.47357  Biso   1.000  N
  H106     1.0000 0.24332  0.65340  0.45000  Biso   1.000  H
  C97      1.0000 0.51994  0.73861  0.22228  Biso   1.000  C
  C98      1.0000 0.26139  0.72230  0.98008  Biso   1.000  C
  C99      1.0000 0.98008  0.73861  0.27770  Biso   1.000  C
  C100     1.0000 0.23863  0.72230  0.51994  Biso   1.000  C
  C101     1.0000 0.51994  0.76137  0.27770  Biso   1.000  C
  H107     1.0000 0.51850  0.76859  0.19570  Biso   1.000  H
  C102     1.0000 0.56992  0.70711  0.21362  Biso   1.000  C
  C103     1.0000 0.23863  0.77772  0.98008  Biso   1.000  C
  H108     1.0000 0.23141  0.69568  0.98148  Biso   1.000  H
  C104     1.0000 0.29289  0.71360  0.93006  Biso   1.000  C
  C105     1.0000 0.98008  0.76137  0.22228  Biso   1.000  C
  H109     1.0000 0.98148  0.76859  0.30432  Biso   1.000  H
  C106     1.0000 0.93006  0.70711  0.28640  Biso   1.000  C
  C107     1.0000 0.26139  0.77772  0.51994  Biso   1.000  C
  H110     1.0000 0.26861  0.69568  0.51850  Biso   1.000  H
  C108     1.0000 0.20709  0.71360  0.56992  Biso   1.000  C
  N19      1.0000 0.47357  0.79592  0.28536  Biso   1.000  N
  H111     1.0000 0.51850  0.73139  0.30432  Biso   1.000  H
  C109     1.0000 0.56992  0.79291  0.28640  Biso   1.000  C
  H112     1.0000 0.57000  0.69280  0.17659  Biso   1.000  H
  H113     1.0000 0.57020  0.67621  0.23859  Biso   1.000  H
  C110     1.0000 0.62034  0.74009  0.22220  Biso   1.000  C
  N20      1.0000 0.20408  0.78534  0.02645  Biso   1.000  N
  H114     1.0000 0.26861  0.80430  0.98148  Biso   1.000  H
  C111     1.0000 0.20709  0.78638  0.93006  Biso   1.000  C
  H115     1.0000 0.30720  0.67661  0.92998  Biso   1.000  H
  H116     1.0000 0.32379  0.73861  0.92978  Biso   1.000  H
  C112     1.0000 0.25991  0.72222  0.87968  Biso   1.000  C
  N21      1.0000 0.02645  0.79592  0.21466  Biso   1.000  N
  H117     1.0000 0.98148  0.73139  0.19570  Biso   1.000  H
  C113     1.0000 0.93006  0.79291  0.21362  Biso   1.000  C
  H118     1.0000 0.92998  0.69280  0.32339  Biso   1.000  H
  H119     1.0000 0.92978  0.67621  0.26139  Biso   1.000  H
  C114     1.0000 0.87968  0.74009  0.27778  Biso   1.000  C
  N22      1.0000 0.29590  0.78534  0.47357  Biso   1.000  N
  H120     1.0000 0.23141  0.80430  0.51850  Biso   1.000  H
  C115     1.0000 0.29289  0.78638  0.56992  Biso   1.000  C
  H121     1.0000 0.19282  0.67661  0.57000  Biso   1.000  H
  H122     1.0000 0.17619  0.73861  0.57020  Biso   1.000  H
  C116     1.0000 0.24011  0.72222  0.62034  Biso   1.000  C
  C117     1.0000 0.44291  0.78710  0.32480  Biso   1.000  C
  H123     1.0000 0.57000  0.80718  0.32339  Biso   1.000  H
  H124     1.0000 0.57020  0.82381  0.26139  Biso   1.000  H
  C118     1.0000 0.62034  0.75989  0.27778  Biso   1.000  C
  H125     1.0000 0.65252  0.71769  0.21578  Biso   1.000  H
  H126     1.0000 0.62110  0.77059  0.19691  Biso   1.000  H
  C119     1.0000 0.21290  0.82478  0.05707  Biso   1.000  C
  H127     1.0000 0.19282  0.82341  0.92998  Biso   1.000  H
  H128     1.0000 0.17619  0.76141  0.92978  Biso   1.000  H
  C120     1.0000 0.24011  0.77780  0.87968  Biso   1.000  C
  H129     1.0000 0.28231  0.71580  0.84750  Biso   1.000  H
  H130     1.0000 0.22941  0.69689  0.87888  Biso   1.000  H
  C121     1.0000 0.05707  0.78710  0.17522  Biso   1.000  C
  H131     1.0000 0.92998  0.80718  0.17659  Biso   1.000  H
  H132     1.0000 0.92978  0.82381  0.23859  Biso   1.000  H
  C122     1.0000 0.87968  0.75989  0.22220  Biso   1.000  C
  H133     1.0000 0.84750  0.71769  0.28420  Biso   1.000  H
  H134     1.0000 0.87888  0.77059  0.30311  Biso   1.000  H
  C123     1.0000 0.28708  0.82478  0.44291  Biso   1.000  C
  H135     1.0000 0.30720  0.82341  0.57000  Biso   1.000  H
  H136     1.0000 0.32379  0.76141  0.57020  Biso   1.000  H
  C124     1.0000 0.25991  0.77780  0.62034  Biso   1.000  C
  H137     1.0000 0.21771  0.71580  0.65252  Biso   1.000  H
  H138     1.0000 0.27061  0.69689  0.62110  Biso   1.000  H
  C125     1.0000 0.39678  0.82145  0.33882  Biso   1.000  C
  H139     1.0000 0.45000  0.75668  0.34660  Biso   1.000  H
  H140     1.0000 0.65252  0.78229  0.28420  Biso   1.000  H
  H141     1.0000 0.62110  0.72939  0.30311  Biso   1.000  H
  C126     1.0000 0.17855  0.83884  0.10320  Biso   1.000  C
  H142     1.0000 0.24332  0.84662  0.05002  Biso   1.000  H
  H143     1.0000 0.21771  0.78422  0.84750  Biso   1.000  H
  H144     1.0000 0.27061  0.80309  0.87888  Biso   1.000  H
  C127     1.0000 0.10320  0.82145  0.16116  Biso   1.000  C
  H145     1.0000 0.05002  0.75668  0.15338  Biso   1.000  H
  H146     1.0000 0.84750  0.78229  0.21578  Biso   1.000  H
  H147     1.0000 0.87888  0.72939  0.19691  Biso   1.000  H
  C128     1.0000 0.32143  0.83884  0.39678  Biso   1.000  C
  H148     1.0000 0.25670  0.84662  0.45000  Biso   1.000  H
  H149     1.0000 0.28231  0.78422  0.65252  Biso   1.000  H
  H150     1.0000 0.22941  0.80309  0.62110  Biso   1.000  H
  C129     1.0000 0.36600  0.80862  0.38331  Biso   1.000  C
  C130     1.0000 0.38331  0.86598  0.30860  Biso   1.000  C
  C131     1.0000 0.19138  0.88333  0.13402  Biso   1.000  C
  C132     1.0000 0.13402  0.80862  0.11667  Biso   1.000  C
  C133     1.0000 0.11667  0.86598  0.19138  Biso   1.000  C
  C134     1.0000 0.30860  0.88333  0.36600  Biso   1.000  C
  H151     1.0000 0.37562  0.77869  0.40479  Biso   1.000  H
  C135     1.0000 0.33882  0.89680  0.32143  Biso   1.000  C
  H152     1.0000 0.40479  0.87560  0.27871  Biso   1.000  H
  H153     1.0000 0.22131  0.90481  0.12440  Biso   1.000  H
  C136     1.0000 0.16116  0.89680  0.17855  Biso   1.000  C
  H154     1.0000 0.12440  0.77869  0.09519  Biso   1.000  H
  H155     1.0000 0.09519  0.87560  0.22131  Biso   1.000  H
  H156     1.0000 0.27871  0.90481  0.37562  Biso   1.000  H
  C137     1.0000 0.32480  0.94293  0.28708  Biso   1.000  C
  C138     1.0000 0.17522  0.94293  0.21290  Biso   1.000  C
  N23      1.0000 0.28536  0.97355  0.29590  Biso   1.000  N
  H157     1.0000 0.34660  0.94998  0.25670  Biso   1.000  H
  N24      1.0000 0.21466  0.97355  0.20408  Biso   1.000  N
  H158     1.0000 0.15338  0.94998  0.24332  Biso   1.000  H
  C139     1.0000 0.27770  0.01992  0.26139  Biso   1.000  C
  C140     1.0000 0.22228  0.01992  0.23863  Biso   1.000  C
  H159     1.0000 0.30432  0.01852  0.23141  Biso   1.000  H
  C141     1.0000 0.28640  0.06994  0.29289  Biso   1.000  C
  H160     1.0000 0.19570  0.01852  0.26861  Biso   1.000  H
  C142     1.0000 0.21362  0.06994  0.20709  Biso   1.000  C
  H161     1.0000 0.32339  0.07002  0.30720  Biso   1.000  H
  H162     1.0000 0.26139  0.07022  0.32379  Biso   1.000  H
  C143     1.0000 0.27778  0.12032  0.25991  Biso   1.000  C
  H163     1.0000 0.17659  0.07002  0.19282  Biso   1.000  H
  H164     1.0000 0.23859  0.07022  0.17619  Biso   1.000  H
  C144     1.0000 0.22220  0.12032  0.24011  Biso   1.000  C
  H165     1.0000 0.28420  0.15250  0.28231  Biso   1.000  H
  H166     1.0000 0.30311  0.12112  0.22941  Biso   1.000  H
  H167     1.0000 0.21578  0.15250  0.21771  Biso   1.000  H
  H168     1.0000 0.19691  0.12112  0.27061  Biso   1.000  H
  C145     1.0000 0.24011  0.27778  0.37966  Biso   1.000  C
  C146     1.0000 0.25991  0.22220  0.37966  Biso   1.000  C
  C147     1.0000 0.20709  0.28640  0.43008  Biso   1.000  C
  H169     1.0000 0.21771  0.28420  0.34748  Biso   1.000  H
  H170     1.0000 0.27061  0.30311  0.37890  Biso   1.000  H
  C148     1.0000 0.29289  0.21362  0.43008  Biso   1.000  C
  H171     1.0000 0.28231  0.21578  0.34748  Biso   1.000  H
  H172     1.0000 0.22941  0.19691  0.37890  Biso   1.000  H
  C149     1.0000 0.23863  0.27770  0.48006  Biso   1.000  C
  H173     1.0000 0.19282  0.32339  0.43000  Biso   1.000  H
  H174     1.0000 0.17619  0.26139  0.42980  Biso   1.000  H
  C150     1.0000 0.26139  0.22228  0.48006  Biso   1.000  C
  H175     1.0000 0.30720  0.17659  0.43000  Biso   1.000  H
  H176     1.0000 0.32379  0.23859  0.42980  Biso   1.000  H
  N25      1.0000 0.20408  0.28536  0.52643  Biso   1.000  N
  H177     1.0000 0.26861  0.30432  0.48150  Biso   1.000  H
  N26      1.0000 0.29590  0.21466  0.52643  Biso   1.000  N
  H178     1.0000 0.23141  0.19570  0.48150  Biso   1.000  H
  C151     1.0000 0.21290  0.32480  0.55709  Biso   1.000  C
  C152     1.0000 0.28708  0.17522  0.55709  Biso   1.000  C
  C153     1.0000 0.17855  0.33882  0.60322  Biso   1.000  C
  H179     1.0000 0.24332  0.34660  0.55000  Biso   1.000  H
  C154     1.0000 0.32143  0.16116  0.60322  Biso   1.000  C
  H180     1.0000 0.25670  0.15338  0.55000  Biso   1.000  H
  C155     1.0000 0.19138  0.38331  0.63400  Biso   1.000  C
  C156     1.0000 0.13402  0.30860  0.61669  Biso   1.000  C
  C157     1.0000 0.36600  0.19138  0.61669  Biso   1.000  C
  C158     1.0000 0.30860  0.11667  0.63400  Biso   1.000  C
  H181     1.0000 0.22131  0.40479  0.62438  Biso   1.000  H
  C159     1.0000 0.16116  0.39678  0.67857  Biso   1.000  C
  C160     1.0000 0.10320  0.32143  0.66118  Biso   1.000  C
  H182     1.0000 0.12440  0.27871  0.59521  Biso   1.000  H
  C161     1.0000 0.39678  0.17855  0.66118  Biso   1.000  C
  H183     1.0000 0.37562  0.22131  0.59521  Biso   1.000  H
  H184     1.0000 0.27871  0.09519  0.62438  Biso   1.000  H
  C162     1.0000 0.33882  0.10320  0.67857  Biso   1.000  C
  C163     1.0000 0.17522  0.44291  0.71292  Biso   1.000  C
  C164     1.0000 0.11667  0.36600  0.69140  Biso   1.000  C
  C165     1.0000 0.05707  0.28708  0.67520  Biso   1.000  C
  C166     1.0000 0.38331  0.13402  0.69140  Biso   1.000  C
  C167     1.0000 0.44291  0.21290  0.67520  Biso   1.000  C
  C168     1.0000 0.32480  0.05707  0.71292  Biso   1.000  C
  N27      1.0000 0.21466  0.47357  0.70410  Biso   1.000  N
  H185     1.0000 0.15338  0.45000  0.74330  Biso   1.000  H
  H186     1.0000 0.09519  0.37562  0.72129  Biso   1.000  H
  N28      1.0000 0.02645  0.29590  0.71464  Biso   1.000  N
  H187     1.0000 0.05002  0.25670  0.65340  Biso   1.000  H
  H188     1.0000 0.40479  0.12440  0.72129  Biso   1.000  H
  N29      1.0000 0.47357  0.20408  0.71464  Biso   1.000  N
  H189     1.0000 0.45000  0.24332  0.65340  Biso   1.000  H
  N30      1.0000 0.28536  0.02645  0.70410  Biso   1.000  N
  H190     1.0000 0.34660  0.05002  0.74330  Biso   1.000  H
  C169     1.0000 0.22228  0.51994  0.73861  Biso   1.000  C
  C170     1.0000 0.98008  0.26139  0.72230  Biso   1.000  C
  C171     1.0000 0.51994  0.23863  0.72230  Biso   1.000  C
  C172     1.0000 0.27770  0.98008  0.73861  Biso   1.000  C
  C173     1.0000 0.27770  0.51994  0.76137  Biso   1.000  C
  H191     1.0000 0.19570  0.51850  0.76859  Biso   1.000  H
  C174     1.0000 0.21362  0.56992  0.70711  Biso   1.000  C
  H192     1.0000 0.98148  0.23141  0.69568  Biso   1.000  H
  C175     1.0000 0.93006  0.29289  0.71360  Biso   1.000  C
  C176     1.0000 0.98008  0.23863  0.77772  Biso   1.000  C
  C177     1.0000 0.51994  0.26139  0.77772  Biso   1.000  C
  H193     1.0000 0.51850  0.26861  0.69568  Biso   1.000  H
  C178     1.0000 0.56992  0.20709  0.71360  Biso   1.000  C
  C179     1.0000 0.22228  0.98008  0.76137  Biso   1.000  C
  H194     1.0000 0.30432  0.98148  0.76859  Biso   1.000  H
  C180     1.0000 0.28640  0.93006  0.70711  Biso   1.000  C
  N31      1.0000 0.28536  0.47357  0.79592  Biso   1.000  N
  H195     1.0000 0.30432  0.51850  0.73139  Biso   1.000  H
  C181     1.0000 0.28640  0.56992  0.79291  Biso   1.000  C
  H196     1.0000 0.17659  0.57000  0.69280  Biso   1.000  H
  H197     1.0000 0.23859  0.57020  0.67621  Biso   1.000  H
  C182     1.0000 0.22220  0.62034  0.74009  Biso   1.000  C
  H198     1.0000 0.92998  0.30720  0.67661  Biso   1.000  H
  H199     1.0000 0.92978  0.32379  0.73861  Biso   1.000  H
  C183     1.0000 0.87968  0.25991  0.72222  Biso   1.000  C
  N32      1.0000 0.02645  0.20408  0.78534  Biso   1.000  N
  H200     1.0000 0.98148  0.26861  0.80430  Biso   1.000  H
  C184     1.0000 0.93006  0.20709  0.78638  Biso   1.000  C
  N33      1.0000 0.47357  0.29590  0.78534  Biso   1.000  N
  H201     1.0000 0.51850  0.23141  0.80430  Biso   1.000  H
  C185     1.0000 0.56992  0.29289  0.78638  Biso   1.000  C
  H202     1.0000 0.57000  0.19282  0.67661  Biso   1.000  H
  H203     1.0000 0.57020  0.17619  0.73861  Biso   1.000  H
  C186     1.0000 0.62034  0.24011  0.72222  Biso   1.000  C
  N34      1.0000 0.21466  0.02645  0.79592  Biso   1.000  N
  H204     1.0000 0.19570  0.98148  0.73139  Biso   1.000  H
  C187     1.0000 0.21362  0.93006  0.79291  Biso   1.000  C
  H205     1.0000 0.32339  0.92998  0.69280  Biso   1.000  H
  H206     1.0000 0.26139  0.92978  0.67621  Biso   1.000  H
  C188     1.0000 0.27778  0.87968  0.74009  Biso   1.000  C
  C189     1.0000 0.32480  0.44291  0.78710  Biso   1.000  C
  H207     1.0000 0.32339  0.57000  0.80718  Biso   1.000  H
  H208     1.0000 0.26139  0.57020  0.82381  Biso   1.000  H
  C190     1.0000 0.27778  0.62034  0.75989  Biso   1.000  C
  H209     1.0000 0.21578  0.65252  0.71769  Biso   1.000  H
  H210     1.0000 0.19691  0.62110  0.77059  Biso   1.000  H
  H211     1.0000 0.84750  0.28231  0.71580  Biso   1.000  H
  H212     1.0000 0.87888  0.22941  0.69689  Biso   1.000  H
  C191     1.0000 0.87968  0.24011  0.77780  Biso   1.000  C
  C192     1.0000 0.05707  0.21290  0.82478  Biso   1.000  C
  H213     1.0000 0.92998  0.19282  0.82341  Biso   1.000  H
  H214     1.0000 0.92978  0.17619  0.76141  Biso   1.000  H
  C193     1.0000 0.44291  0.28708  0.82478  Biso   1.000  C
  H215     1.0000 0.57000  0.30720  0.82341  Biso   1.000  H
  H216     1.0000 0.57020  0.32379  0.76141  Biso   1.000  H
  C194     1.0000 0.62034  0.25991  0.77780  Biso   1.000  C
  H217     1.0000 0.65252  0.21771  0.71580  Biso   1.000  H
  H218     1.0000 0.62110  0.27061  0.69689  Biso   1.000  H
  C195     1.0000 0.17522  0.05707  0.78710  Biso   1.000  C
  H219     1.0000 0.17659  0.92998  0.80718  Biso   1.000  H
  H220     1.0000 0.23859  0.92978  0.82381  Biso   1.000  H
  C196     1.0000 0.22220  0.87968  0.75989  Biso   1.000  C
  H221     1.0000 0.28420  0.84750  0.71769  Biso   1.000  H
  H222     1.0000 0.30311  0.87888  0.77059  Biso   1.000  H
  C197     1.0000 0.33882  0.39678  0.82145  Biso   1.000  C
  H223     1.0000 0.34660  0.45000  0.75668  Biso   1.000  H
  H224     1.0000 0.28420  0.65252  0.78229  Biso   1.000  H
  H225     1.0000 0.30311  0.62110  0.72939  Biso   1.000  H
  H226     1.0000 0.84750  0.21771  0.78422  Biso   1.000  H
  H227     1.0000 0.87888  0.27061  0.80309  Biso   1.000  H
  C198     1.0000 0.10320  0.17855  0.83884  Biso   1.000  C
  H228     1.0000 0.05002  0.24332  0.84662  Biso   1.000  H
  C199     1.0000 0.39678  0.32143  0.83884  Biso   1.000  C
  H229     1.0000 0.45000  0.25670  0.84662  Biso   1.000  H
  H230     1.0000 0.65252  0.28231  0.78422  Biso   1.000  H
  H231     1.0000 0.62110  0.22941  0.80309  Biso   1.000  H
  C200     1.0000 0.16116  0.10320  0.82145  Biso   1.000  C
  H232     1.0000 0.15338  0.05002  0.75668  Biso   1.000  H
  H233     1.0000 0.21578  0.84750  0.78229  Biso   1.000  H
  H234     1.0000 0.19691  0.87888  0.72939  Biso   1.000  H
  C201     1.0000 0.38331  0.36600  0.80862  Biso   1.000  C
  C202     1.0000 0.30860  0.38331  0.86598  Biso   1.000  C
  C203     1.0000 0.11667  0.13402  0.80862  Biso   1.000  C
  C204     1.0000 0.13402  0.19138  0.88333  Biso   1.000  C
  C205     1.0000 0.36600  0.30860  0.88333  Biso   1.000  C
  C206     1.0000 0.19138  0.11667  0.86598  Biso   1.000  C
  H235     1.0000 0.40479  0.37562  0.77869  Biso   1.000  H
  C207     1.0000 0.32143  0.33882  0.89680  Biso   1.000  C
  H236     1.0000 0.27871  0.40479  0.87560  Biso   1.000  H
  H237     1.0000 0.09519  0.12440  0.77869  Biso   1.000  H
  C208     1.0000 0.17855  0.16116  0.89680  Biso   1.000  C
  H238     1.0000 0.12440  0.22131  0.90481  Biso   1.000  H
  H239     1.0000 0.37562  0.27871  0.90481  Biso   1.000  H
  H240     1.0000 0.22131  0.09519  0.87560  Biso   1.000  H
  C209     1.0000 0.28708  0.32480  0.94293  Biso   1.000  C
  C210     1.0000 0.21290  0.17522  0.94293  Biso   1.000  C
  N35      1.0000 0.29590  0.28536  0.97355  Biso   1.000  N
  H241     1.0000 0.25670  0.34660  0.94998  Biso   1.000  H
  N36      1.0000 0.20408  0.21466  0.97355  Biso   1.000  N
  H242     1.0000 0.24332  0.15338  0.94998  Biso   1.000  H
  C211     1.0000 0.26139  0.27770  0.01992  Biso   1.000  C
  C212     1.0000 0.23863  0.22228  0.01992  Biso   1.000  C
  H243     1.0000 0.23141  0.30432  0.01852  Biso   1.000  H
  C213     1.0000 0.29289  0.28640  0.06994  Biso   1.000  C
  H244     1.0000 0.26861  0.19570  0.01852  Biso   1.000  H
  C214     1.0000 0.20709  0.21362  0.06994  Biso   1.000  C
  H245     1.0000 0.30720  0.32339  0.07002  Biso   1.000  H
  H246     1.0000 0.32379  0.26139  0.07022  Biso   1.000  H
  C215     1.0000 0.25991  0.27778  0.12032  Biso   1.000  C
  H247     1.0000 0.19282  0.17659  0.07002  Biso   1.000  H
  H248     1.0000 0.17619  0.23859  0.07022  Biso   1.000  H
  C216     1.0000 0.24011  0.22220  0.12032  Biso   1.000  C
  H249     1.0000 0.28231  0.28420  0.15250  Biso   1.000  H
  H250     1.0000 0.22941  0.30311  0.12112  Biso   1.000  H
  H251     1.0000 0.21771  0.21578  0.15250  Biso   1.000  H
  H252     1.0000 0.27061  0.19691  0.12112  Biso   1.000  H
  C217     1.0000 0.44139  0.38403  0.36668  Biso   1.000  C
  C218     1.0000 0.42856  0.35321  0.41117  Biso   1.000  C
  H253     1.0000 0.47128  0.37441  0.34520  Biso   1.000  H
  C219     1.0000 0.41117  0.42856  0.35321  Biso   1.000  C
  C220     1.0000 0.38403  0.36668  0.44139  Biso   1.000  C
  C221     1.0000 0.46291  0.30708  0.42523  Biso   1.000  C
  C222     1.0000 0.42523  0.46291  0.30708  Biso   1.000  C
  C223     1.0000 0.36668  0.44139  0.38403  Biso   1.000  C
  H254     1.0000 0.37441  0.34520  0.47128  Biso   1.000  H
  C224     1.0000 0.35321  0.41117  0.42856  Biso   1.000  C
  N37      1.0000 0.45409  0.27646  0.46467  Biso   1.000  N
  H255     1.0000 0.49329  0.29999  0.40339  Biso   1.000  H
  N38      1.0000 0.46467  0.45409  0.27646  Biso   1.000  N
  H256     1.0000 0.40339  0.49329  0.29999  Biso   1.000  H
  H257     1.0000 0.34520  0.47128  0.37441  Biso   1.000  H
  C225     1.0000 0.30708  0.42523  0.46291  Biso   1.000  C
  C226     1.0000 0.48860  0.23009  0.47229  Biso   1.000  C
  C227     1.0000 0.47229  0.48860  0.23009  Biso   1.000  C
  N39      1.0000 0.27646  0.46467  0.45409  Biso   1.000  N
  H258     1.0000 0.29999  0.40339  0.49329  Biso   1.000  H
  C228     1.0000 0.51140  0.23009  0.52771  Biso   1.000  C
  H259     1.0000 0.51862  0.23149  0.44571  Biso   1.000  H
  C229     1.0000 0.45710  0.18007  0.46359  Biso   1.000  C
  C230     1.0000 0.52771  0.51140  0.23009  Biso   1.000  C
  H260     1.0000 0.44571  0.51862  0.23149  Biso   1.000  H
  C231     1.0000 0.46359  0.45710  0.18007  Biso   1.000  C
  C232     1.0000 0.23009  0.47229  0.48860  Biso   1.000  C
  N40      1.0000 0.54591  0.27646  0.53533  Biso   1.000  N
  H261     1.0000 0.48138  0.23149  0.55429  Biso   1.000  H
  C233     1.0000 0.54290  0.18007  0.53641  Biso   1.000  C
  H262     1.0000 0.44279  0.17999  0.42660  Biso   1.000  H
  H263     1.0000 0.42620  0.17979  0.48860  Biso   1.000  H
  C234     1.0000 0.49008  0.12965  0.47221  Biso   1.000  C
  N41      1.0000 0.53533  0.54591  0.27646  Biso   1.000  N
  H264     1.0000 0.55429  0.48138  0.23149  Biso   1.000  H
  C235     1.0000 0.53641  0.54290  0.18007  Biso   1.000  C
  H265     1.0000 0.42660  0.44279  0.17999  Biso   1.000  H
  H266     1.0000 0.48860  0.42620  0.17979  Biso   1.000  H
  C236     1.0000 0.47221  0.49008  0.12965  Biso   1.000  C
  C237     1.0000 0.23009  0.52771  0.51140  Biso   1.000  C
  H267     1.0000 0.23149  0.44571  0.51862  Biso   1.000  H
  C238     1.0000 0.18007  0.46359  0.45710  Biso   1.000  C
  C239     1.0000 0.53709  0.30708  0.57477  Biso   1.000  C
  H268     1.0000 0.55721  0.17999  0.57340  Biso   1.000  H
  H269     1.0000 0.57380  0.17979  0.51140  Biso   1.000  H
  C240     1.0000 0.50992  0.12965  0.52779  Biso   1.000  C
  H270     1.0000 0.46772  0.09751  0.46579  Biso   1.000  H
  H271     1.0000 0.52058  0.12889  0.44692  Biso   1.000  H
  C241     1.0000 0.57477  0.53709  0.30708  Biso   1.000  C
  H272     1.0000 0.57340  0.55721  0.17999  Biso   1.000  H
  H273     1.0000 0.51140  0.57380  0.17979  Biso   1.000  H
  C242     1.0000 0.52779  0.50992  0.12965  Biso   1.000  C
  H274     1.0000 0.46579  0.46772  0.09751  Biso   1.000  H
  H275     1.0000 0.44692  0.52058  0.12889  Biso   1.000  H
  N42      1.0000 0.27646  0.53533  0.54591  Biso   1.000  N
  H276     1.0000 0.23149  0.55429  0.48138  Biso   1.000  H
  C243     1.0000 0.18007  0.53641  0.54290  Biso   1.000  C
  H277     1.0000 0.17999  0.42660  0.44279  Biso   1.000  H
  H278     1.0000 0.17979  0.48860  0.42620  Biso   1.000  H
  C244     1.0000 0.12965  0.47221  0.49008  Biso   1.000  C
  C245     1.0000 0.57144  0.35321  0.58883  Biso   1.000  C
  H279     1.0000 0.50671  0.29999  0.59661  Biso   1.000  H
  H280     1.0000 0.53228  0.09751  0.53421  Biso   1.000  H
  H281     1.0000 0.47942  0.12889  0.55308  Biso   1.000  H
  C246     1.0000 0.58883  0.57144  0.35321  Biso   1.000  C
  H282     1.0000 0.59661  0.50671  0.29999  Biso   1.000  H
  H283     1.0000 0.53421  0.53228  0.09751  Biso   1.000  H
  H284     1.0000 0.55308  0.47942  0.12889  Biso   1.000  H
  C247     1.0000 0.30708  0.57477  0.53709  Biso   1.000  C
  H285     1.0000 0.17999  0.57340  0.55721  Biso   1.000  H
  H286     1.0000 0.17979  0.51140  0.57380  Biso   1.000  H
  C248     1.0000 0.12965  0.52779  0.50992  Biso   1.000  C
  H287     1.0000 0.09751  0.46579  0.46772  Biso   1.000  H
  H288     1.0000 0.12889  0.44692  0.52058  Biso   1.000  H
  C249     1.0000 0.55861  0.38403  0.63332  Biso   1.000  C
  C250     1.0000 0.61597  0.36668  0.55861  Biso   1.000  C
  C251     1.0000 0.63332  0.55861  0.38403  Biso   1.000  C
  C252     1.0000 0.55861  0.61597  0.36668  Biso   1.000  C
  C253     1.0000 0.35321  0.58883  0.57144  Biso   1.000  C
  H289     1.0000 0.29999  0.59661  0.50671  Biso   1.000  H
  H290     1.0000 0.09751  0.53421  0.53228  Biso   1.000  H
  H291     1.0000 0.12889  0.55308  0.47942  Biso   1.000  H
  H292     1.0000 0.52872  0.37441  0.65480  Biso   1.000  H
  C254     1.0000 0.58883  0.42856  0.64679  Biso   1.000  C
  C255     1.0000 0.64679  0.41117  0.57144  Biso   1.000  C
  H293     1.0000 0.62559  0.34520  0.52872  Biso   1.000  H
  H294     1.0000 0.65480  0.52872  0.37441  Biso   1.000  H
  C256     1.0000 0.64679  0.58883  0.42856  Biso   1.000  C
  C257     1.0000 0.57144  0.64679  0.41117  Biso   1.000  C
  H295     1.0000 0.52872  0.62559  0.34520  Biso   1.000  H
  C258     1.0000 0.38403  0.63332  0.55861  Biso   1.000  C
  C259     1.0000 0.36668  0.55861  0.61597  Biso   1.000  C
  C260     1.0000 0.63332  0.44139  0.61597  Biso   1.000  C
  C261     1.0000 0.57477  0.46291  0.69292  Biso   1.000  C
  C262     1.0000 0.69292  0.42523  0.53709  Biso   1.000  C
  C263     1.0000 0.69292  0.57477  0.46291  Biso   1.000  C
  C264     1.0000 0.61597  0.63332  0.44139  Biso   1.000  C
  C265     1.0000 0.53709  0.69292  0.42523  Biso   1.000  C
  H296     1.0000 0.37441  0.65480  0.52872  Biso   1.000  H
  C266     1.0000 0.42856  0.64679  0.58883  Biso   1.000  C
  C267     1.0000 0.41117  0.57144  0.64679  Biso   1.000  C
  H297     1.0000 0.34520  0.52872  0.62559  Biso   1.000  H
  H298     1.0000 0.65480  0.47128  0.62559  Biso   1.000  H
  N43      1.0000 0.53533  0.45409  0.72354  Biso   1.000  N
  H299     1.0000 0.59661  0.49329  0.70001  Biso   1.000  H
  N44      1.0000 0.72354  0.46467  0.54591  Biso   1.000  N
  H300     1.0000 0.70001  0.40339  0.50671  Biso   1.000  H
  N45      1.0000 0.72354  0.53533  0.45409  Biso   1.000  N
  H301     1.0000 0.70001  0.59661  0.49329  Biso   1.000  H
  H302     1.0000 0.62559  0.65480  0.47128  Biso   1.000  H
  N46      1.0000 0.54591  0.72354  0.46467  Biso   1.000  N
  H303     1.0000 0.50671  0.70001  0.40339  Biso   1.000  H
  C268     1.0000 0.44139  0.61597  0.63332  Biso   1.000  C
  C269     1.0000 0.46291  0.69292  0.57477  Biso   1.000  C
  C270     1.0000 0.42523  0.53709  0.69292  Biso   1.000  C
  C271     1.0000 0.52771  0.48860  0.76991  Biso   1.000  C
  C272     1.0000 0.76991  0.47229  0.51140  Biso   1.000  C
  C273     1.0000 0.76991  0.52771  0.48860  Biso   1.000  C
  C274     1.0000 0.51140  0.76991  0.47229  Biso   1.000  C
  H304     1.0000 0.47128  0.62559  0.65480  Biso   1.000  H
  N47      1.0000 0.45409  0.72354  0.53533  Biso   1.000  N
  H305     1.0000 0.49329  0.70001  0.59661  Biso   1.000  H
  N48      1.0000 0.46467  0.54591  0.72354  Biso   1.000  N
  H306     1.0000 0.40339  0.50671  0.70001  Biso   1.000  H
  H307     1.0000 0.55429  0.51862  0.76851  Biso   1.000  H
  C275     1.0000 0.53641  0.45710  0.81993  Biso   1.000  C
  C276     1.0000 0.47229  0.51140  0.76991  Biso   1.000  C
  H308     1.0000 0.76851  0.44571  0.48138  Biso   1.000  H
  C277     1.0000 0.81993  0.46359  0.54290  Biso   1.000  C
  H309     1.0000 0.76851  0.55429  0.51862  Biso   1.000  H
  C278     1.0000 0.81993  0.53641  0.45710  Biso   1.000  C
  H310     1.0000 0.48138  0.76851  0.44571  Biso   1.000  H
  C279     1.0000 0.54290  0.81993  0.46359  Biso   1.000  C
  C280     1.0000 0.48860  0.76991  0.52771  Biso   1.000  C
  H311     1.0000 0.57340  0.44279  0.82001  Biso   1.000  H
  H312     1.0000 0.51140  0.42620  0.82021  Biso   1.000  H
  C281     1.0000 0.52779  0.49008  0.87035  Biso   1.000  C
  H313     1.0000 0.44571  0.48138  0.76851  Biso   1.000  H
  C282     1.0000 0.46359  0.54290  0.81993  Biso   1.000  C
  H314     1.0000 0.82001  0.42660  0.55721  Biso   1.000  H
  H315     1.0000 0.82021  0.48860  0.57380  Biso   1.000  H
  C283     1.0000 0.87035  0.47221  0.50992  Biso   1.000  C
  H316     1.0000 0.82001  0.57340  0.44279  Biso   1.000  H
  H317     1.0000 0.82021  0.51140  0.42620  Biso   1.000  H
  C284     1.0000 0.87035  0.52779  0.49008  Biso   1.000  C
  H318     1.0000 0.55721  0.82001  0.42660  Biso   1.000  H
  H319     1.0000 0.57380  0.82021  0.48860  Biso   1.000  H
  C285     1.0000 0.50992  0.87035  0.47221  Biso   1.000  C
  H320     1.0000 0.51862  0.76851  0.55429  Biso   1.000  H
  C286     1.0000 0.45710  0.81993  0.53641  Biso   1.000  C
  H321     1.0000 0.53421  0.46772  0.90249  Biso   1.000  H
  H322     1.0000 0.55308  0.52058  0.87111  Biso   1.000  H
  C287     1.0000 0.47221  0.50992  0.87035  Biso   1.000  C
  H323     1.0000 0.42660  0.55721  0.82001  Biso   1.000  H
  H324     1.0000 0.48860  0.57380  0.82021  Biso   1.000  H
  H325     1.0000 0.90249  0.46579  0.53228  Biso   1.000  H
  H326     1.0000 0.87111  0.44692  0.47942  Biso   1.000  H
  H327     1.0000 0.90249  0.53421  0.46772  Biso   1.000  H
  H328     1.0000 0.87111  0.55308  0.52058  Biso   1.000  H
  H329     1.0000 0.53228  0.90249  0.46579  Biso   1.000  H
  H330     1.0000 0.47942  0.87111  0.44692  Biso   1.000  H
  C288     1.0000 0.49008  0.87035  0.52779  Biso   1.000  C
  H331     1.0000 0.44279  0.82001  0.57340  Biso   1.000  H
  H332     1.0000 0.42620  0.82021  0.51140  Biso   1.000  H
  H333     1.0000 0.46579  0.53228  0.90249  Biso   1.000  H
  H334     1.0000 0.44692  0.47942  0.87111  Biso   1.000  H
  H335     1.0000 0.46772  0.90249  0.53421  Biso   1.000  H
  H336     1.0000 0.52058  0.87111  0.55308  Biso   1.000  H
  C289     1.0000 0.44139  0.11599  0.13330  Biso   1.000  C
  H337     1.0000 0.47128  0.12561  0.15478  Biso   1.000  H
  C290     1.0000 0.41117  0.07146  0.14677  Biso   1.000  C
  C291     1.0000 0.42856  0.14677  0.08881  Biso   1.000  C
  C292     1.0000 0.42523  0.03711  0.19290  Biso   1.000  C
  C293     1.0000 0.36668  0.05859  0.11599  Biso   1.000  C
  C294     1.0000 0.38403  0.13330  0.05859  Biso   1.000  C
  C295     1.0000 0.46291  0.19290  0.07479  Biso   1.000  C
  N49      1.0000 0.46467  0.04589  0.22356  Biso   1.000  N
  H338     1.0000 0.40339  0.00669  0.19999  Biso   1.000  H
  H339     1.0000 0.34520  0.02870  0.12561  Biso   1.000  H
  C296     1.0000 0.35321  0.08881  0.07146  Biso   1.000  C
  H340     1.0000 0.37441  0.15478  0.02870  Biso   1.000  H
  N50      1.0000 0.45409  0.22356  0.03535  Biso   1.000  N
  H341     1.0000 0.49329  0.19999  0.09659  Biso   1.000  H
  C297     1.0000 0.47229  0.01138  0.26993  Biso   1.000  C
  C298     1.0000 0.30708  0.07479  0.03711  Biso   1.000  C
  C299     1.0000 0.48860  0.26993  0.02769  Biso   1.000  C
  C300     1.0000 0.46359  0.04288  0.31991  Biso   1.000  C
  C301     1.0000 0.52771  0.98862  0.26993  Biso   1.000  C
  H342     1.0000 0.44571  0.98140  0.26849  Biso   1.000  H
  N51      1.0000 0.27646  0.03535  0.04589  Biso   1.000  N
  H343     1.0000 0.29999  0.09659  0.00669  Biso   1.000  H
  H344     1.0000 0.51862  0.26849  0.05431  Biso   1.000  H
  C302     1.0000 0.45710  0.31991  0.03639  Biso   1.000  C
  C303     1.0000 0.51140  0.26993  0.97231  Biso   1.000  C
  H345     1.0000 0.42660  0.05719  0.31999  Biso   1.000  H
  H346     1.0000 0.48860  0.07378  0.32019  Biso   1.000  H
  C304     1.0000 0.47221  0.00990  0.37033  Biso   1.000  C
  H347     1.0000 0.55429  0.01860  0.26849  Biso   1.000  H
  N52      1.0000 0.53533  0.95411  0.22356  Biso   1.000  N
  C305     1.0000 0.53641  0.95712  0.31991  Biso   1.000  C
  C306     1.0000 0.23009  0.02769  0.01138  Biso   1.000  C
  H348     1.0000 0.44279  0.31999  0.07338  Biso   1.000  H
  H349     1.0000 0.42620  0.32019  0.01138  Biso   1.000  H
  C307     1.0000 0.49008  0.37033  0.02781  Biso   1.000  C
  N53      1.0000 0.54591  0.22356  0.96465  Biso   1.000  N
  H350     1.0000 0.48138  0.26849  0.94569  Biso   1.000  H
  C308     1.0000 0.54290  0.31991  0.96361  Biso   1.000  C
  H351     1.0000 0.46579  0.03230  0.40251  Biso   1.000  H
  C309     1.0000 0.52779  0.99010  0.37033  Biso   1.000  C
  H352     1.0000 0.44692  0.97940  0.37109  Biso   1.000  H
  C310     1.0000 0.57477  0.96289  0.19290  Biso   1.000  C
  H353     1.0000 0.57340  0.94281  0.31999  Biso   1.000  H
  H354     1.0000 0.51140  0.92622  0.32019  Biso   1.000  H
  C311     1.0000 0.18007  0.03639  0.04288  Biso   1.000  C
  C312     1.0000 0.23009  0.97231  0.98862  Biso   1.000  C
  H355     1.0000 0.23149  0.05431  0.98140  Biso   1.000  H
  H356     1.0000 0.46772  0.40251  0.03419  Biso   1.000  H
  H357     1.0000 0.52058  0.37109  0.05310  Biso   1.000  H
  C313     1.0000 0.50992  0.37033  0.97219  Biso   1.000  C
  C314     1.0000 0.53709  0.19290  0.92521  Biso   1.000  C
  H358     1.0000 0.55721  0.31999  0.92662  Biso   1.000  H
  H359     1.0000 0.57380  0.32019  0.98862  Biso   1.000  H
  H360     1.0000 0.55308  0.02060  0.37109  Biso   1.000  H
  H361     1.0000 0.53421  0.96770  0.40251  Biso   1.000  H
  C315     1.0000 0.58883  0.92854  0.14677  Biso   1.000  C
  H362     1.0000 0.59661  0.99331  0.19999  Biso   1.000  H
  H363     1.0000 0.17999  0.07338  0.05719  Biso   1.000  H
  H364     1.0000 0.17979  0.01138  0.07378  Biso   1.000  H
  C316     1.0000 0.12965  0.02781  0.00990  Biso   1.000  C
  N54      1.0000 0.27646  0.96465  0.95411  Biso   1.000  N
  C317     1.0000 0.18007  0.96361  0.95712  Biso   1.000  C
  H365     1.0000 0.23149  0.94569  0.01860  Biso   1.000  H
  H366     1.0000 0.53228  0.40251  0.96581  Biso   1.000  H
  H367     1.0000 0.47942  0.37109  0.94690  Biso   1.000  H
  C318     1.0000 0.57144  0.14677  0.91119  Biso   1.000  C
  H368     1.0000 0.50671  0.19999  0.90341  Biso   1.000  H
  C319     1.0000 0.63332  0.94141  0.11599  Biso   1.000  C
  C320     1.0000 0.55861  0.88401  0.13330  Biso   1.000  C
  H369     1.0000 0.09751  0.03419  0.03230  Biso   1.000  H
  C321     1.0000 0.12965  0.97219  0.99010  Biso   1.000  C
  H370     1.0000 0.12889  0.05310  0.97940  Biso   1.000  H
  C322     1.0000 0.30708  0.92521  0.96289  Biso   1.000  C
  H371     1.0000 0.17999  0.92662  0.94281  Biso   1.000  H
  H372     1.0000 0.17979  0.98862  0.92622  Biso   1.000  H
  C323     1.0000 0.61597  0.13330  0.94141  Biso   1.000  C
  C324     1.0000 0.55861  0.11599  0.86670  Biso   1.000  C
  H373     1.0000 0.65480  0.97130  0.12561  Biso   1.000  H
  C325     1.0000 0.64679  0.91119  0.07146  Biso   1.000  C
  H374     1.0000 0.52872  0.87439  0.15478  Biso   1.000  H
  C326     1.0000 0.57144  0.85323  0.08881  Biso   1.000  C
  H375     1.0000 0.09751  0.96581  0.96770  Biso   1.000  H
  H376     1.0000 0.12889  0.94690  0.02060  Biso   1.000  H
  C327     1.0000 0.35321  0.91119  0.92854  Biso   1.000  C
  H377     1.0000 0.29999  0.90341  0.99331  Biso   1.000  H
  C328     1.0000 0.64679  0.08881  0.92854  Biso   1.000  C
  H378     1.0000 0.62559  0.15478  0.97130  Biso   1.000  H
  H379     1.0000 0.52872  0.12561  0.84522  Biso   1.000  H
  C329     1.0000 0.58883  0.07146  0.85323  Biso   1.000  C
  C330     1.0000 0.69292  0.92521  0.03711  Biso   1.000  C
  C331     1.0000 0.61597  0.86670  0.05859  Biso   1.000  C
  C332     1.0000 0.53709  0.80710  0.07479  Biso   1.000  C
  C333     1.0000 0.38403  0.86670  0.94141  Biso   1.000  C
  C334     1.0000 0.36668  0.94141  0.88401  Biso   1.000  C
  C335     1.0000 0.63332  0.05859  0.88401  Biso   1.000  C
  C336     1.0000 0.69292  0.07479  0.96289  Biso   1.000  C
  C337     1.0000 0.57477  0.03711  0.80710  Biso   1.000  C
  N55      1.0000 0.72354  0.96465  0.04589  Biso   1.000  N
  H380     1.0000 0.70001  0.90341  0.00669  Biso   1.000  H
  H381     1.0000 0.62559  0.84522  0.02870  Biso   1.000  H
  N56      1.0000 0.54591  0.77644  0.03535  Biso   1.000  N
  H382     1.0000 0.50671  0.80001  0.09659  Biso   1.000  H
  H383     1.0000 0.37441  0.84522  0.97130  Biso   1.000  H
  C338     1.0000 0.42856  0.85323  0.91119  Biso   1.000  C
  C339     1.0000 0.41117  0.92854  0.85323  Biso   1.000  C
  H384     1.0000 0.34520  0.97130  0.87439  Biso   1.000  H
  H385     1.0000 0.65480  0.02870  0.87439  Biso   1.000  H
  N57      1.0000 0.72354  0.03535  0.95411  Biso   1.000  N
  H386     1.0000 0.70001  0.09659  0.99331  Biso   1.000  H
  N58      1.0000 0.53533  0.04589  0.77644  Biso   1.000  N
  H387     1.0000 0.59661  0.00669  0.80001  Biso   1.000  H
  C340     1.0000 0.76991  0.97231  0.01138  Biso   1.000  C
  C341     1.0000 0.51140  0.73007  0.02769  Biso   1.000  C
  C342     1.0000 0.46291  0.80710  0.92521  Biso   1.000  C
  C343     1.0000 0.44139  0.88401  0.86670  Biso   1.000  C
  C344     1.0000 0.42523  0.96289  0.80710  Biso   1.000  C
  C345     1.0000 0.76991  0.02769  0.98862  Biso   1.000  C
  C346     1.0000 0.52771  0.01138  0.73007  Biso   1.000  C
  H388     1.0000 0.76851  0.94569  0.98140  Biso   1.000  H
  C347     1.0000 0.81993  0.96361  0.04288  Biso   1.000  C
  C348     1.0000 0.48860  0.73007  0.97231  Biso   1.000  C
  H389     1.0000 0.48138  0.73151  0.05431  Biso   1.000  H
  C349     1.0000 0.54290  0.68009  0.03639  Biso   1.000  C
  N59      1.0000 0.45409  0.77644  0.96465  Biso   1.000  N
  H390     1.0000 0.49329  0.80001  0.90341  Biso   1.000  H
  H391     1.0000 0.47128  0.87439  0.84522  Biso   1.000  H
  N60      1.0000 0.46467  0.95411  0.77644  Biso   1.000  N
  H392     1.0000 0.40339  0.99331  0.80001  Biso   1.000  H
  H393     1.0000 0.76851  0.05431  0.01860  Biso   1.000  H
  C350     1.0000 0.81993  0.03639  0.95712  Biso   1.000  C
  H394     1.0000 0.55429  0.98140  0.73151  Biso   1.000  H
  C351     1.0000 0.47229  0.98862  0.73007  Biso   1.000  C
  C352     1.0000 0.53641  0.04288  0.68009  Biso   1.000  C
  H395     1.0000 0.82001  0.92662  0.05719  Biso   1.000  H
  H396     1.0000 0.82021  0.98862  0.07378  Biso   1.000  H
  C353     1.0000 0.87035  0.97219  0.00990  Biso   1.000  C
  H397     1.0000 0.51862  0.73151  0.94569  Biso   1.000  H
  C354     1.0000 0.45710  0.68009  0.96361  Biso   1.000  C
  H398     1.0000 0.55721  0.68001  0.07338  Biso   1.000  H
  H399     1.0000 0.57380  0.67981  0.01138  Biso   1.000  H
  C355     1.0000 0.50992  0.62967  0.02781  Biso   1.000  C
  H400     1.0000 0.82001  0.07338  0.94281  Biso   1.000  H
  H401     1.0000 0.82021  0.01138  0.92622  Biso   1.000  H
  C356     1.0000 0.87035  0.02781  0.99010  Biso   1.000  C
  C357     1.0000 0.46359  0.95712  0.68009  Biso   1.000  C
  H402     1.0000 0.44571  0.01860  0.73151  Biso   1.000  H
  H403     1.0000 0.57340  0.05719  0.68001  Biso   1.000  H
  H404     1.0000 0.51140  0.07378  0.67981  Biso   1.000  H
  C358     1.0000 0.52779  0.00990  0.62967  Biso   1.000  C
  H405     1.0000 0.87111  0.94690  0.97940  Biso   1.000  H
  H406     1.0000 0.90249  0.96581  0.03230  Biso   1.000  H
  H407     1.0000 0.44279  0.68001  0.92662  Biso   1.000  H
  H408     1.0000 0.42620  0.67981  0.98862  Biso   1.000  H
  C359     1.0000 0.49008  0.62967  0.97219  Biso   1.000  C
  H409     1.0000 0.53228  0.59749  0.03419  Biso   1.000  H
  H410     1.0000 0.47942  0.62891  0.05310  Biso   1.000  H
  H411     1.0000 0.87111  0.05310  0.02060  Biso   1.000  H
  H412     1.0000 0.90249  0.03419  0.96770  Biso   1.000  H
  H413     1.0000 0.42660  0.94281  0.68001  Biso   1.000  H
  H414     1.0000 0.48860  0.92622  0.67981  Biso   1.000  H
  C360     1.0000 0.47221  0.99010  0.62967  Biso   1.000  C
  H415     1.0000 0.55308  0.97940  0.62891  Biso   1.000  H
  H416     1.0000 0.53421  0.03230  0.59749  Biso   1.000  H
  H417     1.0000 0.46772  0.59749  0.96581  Biso   1.000  H
  H418     1.0000 0.52058  0.62891  0.94690  Biso   1.000  H
  H419     1.0000 0.46579  0.96770  0.59749  Biso   1.000  H
  H420     1.0000 0.44692  0.02060  0.62891  Biso   1.000  H
  C361     1.0000 0.44139  0.11599  0.13330  Biso   1.000  C
  H421     1.0000 0.47128  0.12561  0.15478  Biso   1.000  H
  C362     1.0000 0.41117  0.07146  0.14677  Biso   1.000  C
  C363     1.0000 0.42856  0.14677  0.08881  Biso   1.000  C
  C364     1.0000 0.42523  0.03711  0.19290  Biso   1.000  C
  C365     1.0000 0.36668  0.05859  0.11599  Biso   1.000  C
  C366     1.0000 0.38403  0.13330  0.05859  Biso   1.000  C
  C367     1.0000 0.46291  0.19290  0.07479  Biso   1.000  C
  N61      1.0000 0.46467  0.04589  0.22356  Biso   1.000  N
  H422     1.0000 0.40339  0.00669  0.19999  Biso   1.000  H
  H423     1.0000 0.34520  0.02870  0.12561  Biso   1.000  H
  C368     1.0000 0.35321  0.08881  0.07146  Biso   1.000  C
  H424     1.0000 0.37441  0.15478  0.02870  Biso   1.000  H
  N62      1.0000 0.45409  0.22356  0.03535  Biso   1.000  N
  H425     1.0000 0.49329  0.19999  0.09659  Biso   1.000  H
  C369     1.0000 0.47229  0.01138  0.26993  Biso   1.000  C
  C370     1.0000 0.30708  0.07479  0.03711  Biso   1.000  C
  C371     1.0000 0.48860  0.26993  0.02769  Biso   1.000  C
  C372     1.0000 0.46359  0.04288  0.31991  Biso   1.000  C
  C373     1.0000 0.52771  0.98862  0.26993  Biso   1.000  C
  H426     1.0000 0.44571  0.98140  0.26849  Biso   1.000  H
  N63      1.0000 0.27646  0.03535  0.04589  Biso   1.000  N
  H427     1.0000 0.29999  0.09659  0.00669  Biso   1.000  H
  H428     1.0000 0.51862  0.26849  0.05431  Biso   1.000  H
  C374     1.0000 0.45710  0.31991  0.03639  Biso   1.000  C
  C375     1.0000 0.51140  0.26993  0.97231  Biso   1.000  C
  H429     1.0000 0.42660  0.05719  0.31999  Biso   1.000  H
  H430     1.0000 0.48860  0.07378  0.32019  Biso   1.000  H
  C376     1.0000 0.47221  0.00990  0.37033  Biso   1.000  C
  H431     1.0000 0.55429  0.01860  0.26849  Biso   1.000  H
  N64      1.0000 0.53533  0.95411  0.22356  Biso   1.000  N
  C377     1.0000 0.53641  0.95712  0.31991  Biso   1.000  C
  C378     1.0000 0.23009  0.02769  0.01138  Biso   1.000  C
  H432     1.0000 0.44279  0.31999  0.07338  Biso   1.000  H
  H433     1.0000 0.42620  0.32019  0.01138  Biso   1.000  H
  C379     1.0000 0.49008  0.37033  0.02781  Biso   1.000  C
  N65      1.0000 0.54591  0.22356  0.96465  Biso   1.000  N
  H434     1.0000 0.48138  0.26849  0.94569  Biso   1.000  H
  C380     1.0000 0.54290  0.31991  0.96361  Biso   1.000  C
  H435     1.0000 0.46579  0.03230  0.40251  Biso   1.000  H
  C381     1.0000 0.52779  0.99010  0.37033  Biso   1.000  C
  H436     1.0000 0.44692  0.97940  0.37109  Biso   1.000  H
  C382     1.0000 0.57477  0.96289  0.19290  Biso   1.000  C
  H437     1.0000 0.57340  0.94281  0.31999  Biso   1.000  H
  H438     1.0000 0.51140  0.92622  0.32019  Biso   1.000  H
  C383     1.0000 0.18007  0.03639  0.04288  Biso   1.000  C
  C384     1.0000 0.23009  0.97231  0.98862  Biso   1.000  C
  H439     1.0000 0.23149  0.05431  0.98140  Biso   1.000  H
  H440     1.0000 0.46772  0.40251  0.03419  Biso   1.000  H
  H441     1.0000 0.52058  0.37109  0.05310  Biso   1.000  H
  C385     1.0000 0.50992  0.37033  0.97219  Biso   1.000  C
  C386     1.0000 0.53709  0.19290  0.92521  Biso   1.000  C
  H442     1.0000 0.55721  0.31999  0.92662  Biso   1.000  H
  H443     1.0000 0.57380  0.32019  0.98862  Biso   1.000  H
  H444     1.0000 0.55308  0.02060  0.37109  Biso   1.000  H
  H445     1.0000 0.53421  0.96770  0.40251  Biso   1.000  H
  C387     1.0000 0.58883  0.92854  0.14677  Biso   1.000  C
  H446     1.0000 0.59661  0.99331  0.19999  Biso   1.000  H
  H447     1.0000 0.17999  0.07338  0.05719  Biso   1.000  H
  H448     1.0000 0.17979  0.01138  0.07378  Biso   1.000  H
  C388     1.0000 0.12965  0.02781  0.00990  Biso   1.000  C
  N66      1.0000 0.27646  0.96465  0.95411  Biso   1.000  N
  C389     1.0000 0.18007  0.96361  0.95712  Biso   1.000  C
  H449     1.0000 0.23149  0.94569  0.01860  Biso   1.000  H
  H450     1.0000 0.53228  0.40251  0.96581  Biso   1.000  H
  H451     1.0000 0.47942  0.37109  0.94690  Biso   1.000  H
  C390     1.0000 0.57144  0.14677  0.91119  Biso   1.000  C
  H452     1.0000 0.50671  0.19999  0.90341  Biso   1.000  H
  C391     1.0000 0.63332  0.94141  0.11599  Biso   1.000  C
  C392     1.0000 0.55861  0.88401  0.13330  Biso   1.000  C
  H453     1.0000 0.09751  0.03419  0.03230  Biso   1.000  H
  C393     1.0000 0.12965  0.97219  0.99010  Biso   1.000  C
  H454     1.0000 0.12889  0.05310  0.97940  Biso   1.000  H
  C394     1.0000 0.30708  0.92521  0.96289  Biso   1.000  C
  H455     1.0000 0.17999  0.92662  0.94281  Biso   1.000  H
  H456     1.0000 0.17979  0.98862  0.92622  Biso   1.000  H
  C395     1.0000 0.61597  0.13330  0.94141  Biso   1.000  C
  C396     1.0000 0.55861  0.11599  0.86670  Biso   1.000  C
  H457     1.0000 0.65480  0.97130  0.12561  Biso   1.000  H
  C397     1.0000 0.64679  0.91119  0.07146  Biso   1.000  C
  H458     1.0000 0.52872  0.87439  0.15478  Biso   1.000  H
  C398     1.0000 0.57144  0.85323  0.08881  Biso   1.000  C
  H459     1.0000 0.09751  0.96581  0.96770  Biso   1.000  H
  H460     1.0000 0.12889  0.94690  0.02060  Biso   1.000  H
  C399     1.0000 0.35321  0.91119  0.92854  Biso   1.000  C
  H461     1.0000 0.29999  0.90341  0.99331  Biso   1.000  H
  C400     1.0000 0.64679  0.08881  0.92854  Biso   1.000  C
  H462     1.0000 0.62559  0.15478  0.97130  Biso   1.000  H
  H463     1.0000 0.52872  0.12561  0.84522  Biso   1.000  H
  C401     1.0000 0.58883  0.07146  0.85323  Biso   1.000  C
  C402     1.0000 0.69292  0.92521  0.03711  Biso   1.000  C
  C403     1.0000 0.61597  0.86670  0.05859  Biso   1.000  C
  C404     1.0000 0.53709  0.80710  0.07479  Biso   1.000  C
  C405     1.0000 0.38403  0.86670  0.94141  Biso   1.000  C
  C406     1.0000 0.36668  0.94141  0.88401  Biso   1.000  C
  C407     1.0000 0.63332  0.05859  0.88401  Biso   1.000  C
  C408     1.0000 0.69292  0.07479  0.96289  Biso   1.000  C
  C409     1.0000 0.57477  0.03711  0.80710  Biso   1.000  C
  N67      1.0000 0.72354  0.96465  0.04589  Biso   1.000  N
  H464     1.0000 0.70001  0.90341  0.00669  Biso   1.000  H
  H465     1.0000 0.62559  0.84522  0.02870  Biso   1.000  H
  N68      1.0000 0.54591  0.77644  0.03535  Biso   1.000  N
  H466     1.0000 0.50671  0.80001  0.09659  Biso   1.000  H
  H467     1.0000 0.37441  0.84522  0.97130  Biso   1.000  H
  C410     1.0000 0.42856  0.85323  0.91119  Biso   1.000  C
  C411     1.0000 0.41117  0.92854  0.85323  Biso   1.000  C
  H468     1.0000 0.34520  0.97130  0.87439  Biso   1.000  H
  H469     1.0000 0.65480  0.02870  0.87439  Biso   1.000  H
  N69      1.0000 0.72354  0.03535  0.95411  Biso   1.000  N
  H470     1.0000 0.70001  0.09659  0.99331  Biso   1.000  H
  N70      1.0000 0.53533  0.04589  0.77644  Biso   1.000  N
  H471     1.0000 0.59661  0.00669  0.80001  Biso   1.000  H
  C412     1.0000 0.76991  0.97231  0.01138  Biso   1.000  C
  C413     1.0000 0.51140  0.73007  0.02769  Biso   1.000  C
  C414     1.0000 0.46291  0.80710  0.92521  Biso   1.000  C
  C415     1.0000 0.44139  0.88401  0.86670  Biso   1.000  C
  C416     1.0000 0.42523  0.96289  0.80710  Biso   1.000  C
  C417     1.0000 0.76991  0.02769  0.98862  Biso   1.000  C
  C418     1.0000 0.52771  0.01138  0.73007  Biso   1.000  C
  H472     1.0000 0.76851  0.94569  0.98140  Biso   1.000  H
  C419     1.0000 0.81993  0.96361  0.04288  Biso   1.000  C
  C420     1.0000 0.48860  0.73007  0.97231  Biso   1.000  C
  H473     1.0000 0.48138  0.73151  0.05431  Biso   1.000  H
  C421     1.0000 0.54290  0.68009  0.03639  Biso   1.000  C
  N71      1.0000 0.45409  0.77644  0.96465  Biso   1.000  N
  H474     1.0000 0.49329  0.80001  0.90341  Biso   1.000  H
  H475     1.0000 0.47128  0.87439  0.84522  Biso   1.000  H
  N72      1.0000 0.46467  0.95411  0.77644  Biso   1.000  N
  H476     1.0000 0.40339  0.99331  0.80001  Biso   1.000  H
  H477     1.0000 0.76851  0.05431  0.01860  Biso   1.000  H
  C422     1.0000 0.81993  0.03639  0.95712  Biso   1.000  C
  H478     1.0000 0.55429  0.98140  0.73151  Biso   1.000  H
  C423     1.0000 0.47229  0.98862  0.73007  Biso   1.000  C
  C424     1.0000 0.53641  0.04288  0.68009  Biso   1.000  C
  H479     1.0000 0.82001  0.92662  0.05719  Biso   1.000  H
  H480     1.0000 0.82021  0.98862  0.07378  Biso   1.000  H
  C425     1.0000 0.87035  0.97219  0.00990  Biso   1.000  C
  H481     1.0000 0.51862  0.73151  0.94569  Biso   1.000  H
  C426     1.0000 0.45710  0.68009  0.96361  Biso   1.000  C
  H482     1.0000 0.55721  0.68001  0.07338  Biso   1.000  H
  H483     1.0000 0.57380  0.67981  0.01138  Biso   1.000  H
  C427     1.0000 0.50992  0.62967  0.02781  Biso   1.000  C
  H484     1.0000 0.82001  0.07338  0.94281  Biso   1.000  H
  H485     1.0000 0.82021  0.01138  0.92622  Biso   1.000  H
  C428     1.0000 0.87035  0.02781  0.99010  Biso   1.000  C
  C429     1.0000 0.46359  0.95712  0.68009  Biso   1.000  C
  H486     1.0000 0.44571  0.01860  0.73151  Biso   1.000  H
  H487     1.0000 0.57340  0.05719  0.68001  Biso   1.000  H
  H488     1.0000 0.51140  0.07378  0.67981  Biso   1.000  H
  C430     1.0000 0.52779  0.00990  0.62967  Biso   1.000  C
  H489     1.0000 0.87111  0.94690  0.97940  Biso   1.000  H
  H490     1.0000 0.90249  0.96581  0.03230  Biso   1.000  H
  H491     1.0000 0.44279  0.68001  0.92662  Biso   1.000  H
  H492     1.0000 0.42620  0.67981  0.98862  Biso   1.000  H
  C431     1.0000 0.49008  0.62967  0.97219  Biso   1.000  C
  H493     1.0000 0.53228  0.59749  0.03419  Biso   1.000  H
  H494     1.0000 0.47942  0.62891  0.05310  Biso   1.000  H
  H495     1.0000 0.87111  0.05310  0.02060  Biso   1.000  H
  H496     1.0000 0.90249  0.03419  0.96770  Biso   1.000  H
  H497     1.0000 0.42660  0.94281  0.68001  Biso   1.000  H
  H498     1.0000 0.48860  0.92622  0.67981  Biso   1.000  H
  C432     1.0000 0.47221  0.99010  0.62967  Biso   1.000  C
  H499     1.0000 0.55308  0.97940  0.62891  Biso   1.000  H
  H500     1.0000 0.53421  0.03230  0.59749  Biso   1.000  H
  H501     1.0000 0.46772  0.59749  0.96581  Biso   1.000  H
  H502     1.0000 0.52058  0.62891  0.94690  Biso   1.000  H
  H503     1.0000 0.46579  0.96770  0.59749  Biso   1.000  H
  H504     1.0000 0.44692  0.02060  0.62891  Biso   1.000  H
  C433     1.0000 0.44139  0.11599  0.13330  Biso   1.000  C
  H505     1.0000 0.47128  0.12561  0.15478  Biso   1.000  H
  C434     1.0000 0.41117  0.07146  0.14677  Biso   1.000  C
  C435     1.0000 0.42856  0.14677  0.08881  Biso   1.000  C
  C436     1.0000 0.42523  0.03711  0.19290  Biso   1.000  C
  C437     1.0000 0.36668  0.05859  0.11599  Biso   1.000  C
  C438     1.0000 0.38403  0.13330  0.05859  Biso   1.000  C
  C439     1.0000 0.46291  0.19290  0.07479  Biso   1.000  C
  N73      1.0000 0.46467  0.04589  0.22356  Biso   1.000  N
  H506     1.0000 0.40339  0.00669  0.19999  Biso   1.000  H
  H507     1.0000 0.34520  0.02870  0.12561  Biso   1.000  H
  C440     1.0000 0.35321  0.08881  0.07146  Biso   1.000  C
  H508     1.0000 0.37441  0.15478  0.02870  Biso   1.000  H
  N74      1.0000 0.45409  0.22356  0.03535  Biso   1.000  N
  H509     1.0000 0.49329  0.19999  0.09659  Biso   1.000  H
  C441     1.0000 0.47229  0.01138  0.26993  Biso   1.000  C
  C442     1.0000 0.30708  0.07479  0.03711  Biso   1.000  C
  C443     1.0000 0.48860  0.26993  0.02769  Biso   1.000  C
  C444     1.0000 0.46359  0.04288  0.31991  Biso   1.000  C
  C445     1.0000 0.52771  0.98862  0.26993  Biso   1.000  C
  H510     1.0000 0.44571  0.98140  0.26849  Biso   1.000  H
  N75      1.0000 0.27646  0.03535  0.04589  Biso   1.000  N
  H511     1.0000 0.29999  0.09659  0.00669  Biso   1.000  H
  H512     1.0000 0.51862  0.26849  0.05431  Biso   1.000  H
  C446     1.0000 0.45710  0.31991  0.03639  Biso   1.000  C
  C447     1.0000 0.51140  0.26993  0.97231  Biso   1.000  C
  H513     1.0000 0.42660  0.05719  0.31999  Biso   1.000  H
  H514     1.0000 0.48860  0.07378  0.32019  Biso   1.000  H
  C448     1.0000 0.47221  0.00990  0.37033  Biso   1.000  C
  H515     1.0000 0.55429  0.01860  0.26849  Biso   1.000  H
  N76      1.0000 0.53533  0.95411  0.22356  Biso   1.000  N
  C449     1.0000 0.53641  0.95712  0.31991  Biso   1.000  C
  C450     1.0000 0.23009  0.02769  0.01138  Biso   1.000  C
  H516     1.0000 0.44279  0.31999  0.07338  Biso   1.000  H
  H517     1.0000 0.42620  0.32019  0.01138  Biso   1.000  H
  C451     1.0000 0.49008  0.37033  0.02781  Biso   1.000  C
  N77      1.0000 0.54591  0.22356  0.96465  Biso   1.000  N
  H518     1.0000 0.48138  0.26849  0.94569  Biso   1.000  H
  C452     1.0000 0.54290  0.31991  0.96361  Biso   1.000  C
  H519     1.0000 0.46579  0.03230  0.40251  Biso   1.000  H
  C453     1.0000 0.52779  0.99010  0.37033  Biso   1.000  C
  H520     1.0000 0.44692  0.97940  0.37109  Biso   1.000  H
  C454     1.0000 0.57477  0.96289  0.19290  Biso   1.000  C
  H521     1.0000 0.57340  0.94281  0.31999  Biso   1.000  H
  H522     1.0000 0.51140  0.92622  0.32019  Biso   1.000  H
  C455     1.0000 0.18007  0.03639  0.04288  Biso   1.000  C
  C456     1.0000 0.23009  0.97231  0.98862  Biso   1.000  C
  H523     1.0000 0.23149  0.05431  0.98140  Biso   1.000  H
  H524     1.0000 0.46772  0.40251  0.03419  Biso   1.000  H
  H525     1.0000 0.52058  0.37109  0.05310  Biso   1.000  H
  C457     1.0000 0.50992  0.37033  0.97219  Biso   1.000  C
  C458     1.0000 0.53709  0.19290  0.92521  Biso   1.000  C
  H526     1.0000 0.55721  0.31999  0.92662  Biso   1.000  H
  H527     1.0000 0.57380  0.32019  0.98862  Biso   1.000  H
  H528     1.0000 0.55308  0.02060  0.37109  Biso   1.000  H
  H529     1.0000 0.53421  0.96770  0.40251  Biso   1.000  H
  C459     1.0000 0.58883  0.92854  0.14677  Biso   1.000  C
  H530     1.0000 0.59661  0.99331  0.19999  Biso   1.000  H
  H531     1.0000 0.17999  0.07338  0.05719  Biso   1.000  H
  H532     1.0000 0.17979  0.01138  0.07378  Biso   1.000  H
  C460     1.0000 0.12965  0.02781  0.00990  Biso   1.000  C
  N78      1.0000 0.27646  0.96465  0.95411  Biso   1.000  N
  C461     1.0000 0.18007  0.96361  0.95712  Biso   1.000  C
  H533     1.0000 0.23149  0.94569  0.01860  Biso   1.000  H
  H534     1.0000 0.53228  0.40251  0.96581  Biso   1.000  H
  H535     1.0000 0.47942  0.37109  0.94690  Biso   1.000  H
  C462     1.0000 0.57144  0.14677  0.91119  Biso   1.000  C
  H536     1.0000 0.50671  0.19999  0.90341  Biso   1.000  H
  C463     1.0000 0.63332  0.94141  0.11599  Biso   1.000  C
  C464     1.0000 0.55861  0.88401  0.13330  Biso   1.000  C
  H537     1.0000 0.09751  0.03419  0.03230  Biso   1.000  H
  C465     1.0000 0.12965  0.97219  0.99010  Biso   1.000  C
  H538     1.0000 0.12889  0.05310  0.97940  Biso   1.000  H
  C466     1.0000 0.30708  0.92521  0.96289  Biso   1.000  C
  H539     1.0000 0.17999  0.92662  0.94281  Biso   1.000  H
  H540     1.0000 0.17979  0.98862  0.92622  Biso   1.000  H
  C467     1.0000 0.61597  0.13330  0.94141  Biso   1.000  C
  C468     1.0000 0.55861  0.11599  0.86670  Biso   1.000  C
  H541     1.0000 0.65480  0.97130  0.12561  Biso   1.000  H
  C469     1.0000 0.64679  0.91119  0.07146  Biso   1.000  C
  H542     1.0000 0.52872  0.87439  0.15478  Biso   1.000  H
  C470     1.0000 0.57144  0.85323  0.08881  Biso   1.000  C
  H543     1.0000 0.09751  0.96581  0.96770  Biso   1.000  H
  H544     1.0000 0.12889  0.94690  0.02060  Biso   1.000  H
  C471     1.0000 0.35321  0.91119  0.92854  Biso   1.000  C
  H545     1.0000 0.29999  0.90341  0.99331  Biso   1.000  H
  C472     1.0000 0.64679  0.08881  0.92854  Biso   1.000  C
  H546     1.0000 0.62559  0.15478  0.97130  Biso   1.000  H
  H547     1.0000 0.52872  0.12561  0.84522  Biso   1.000  H
  C473     1.0000 0.58883  0.07146  0.85323  Biso   1.000  C
  C474     1.0000 0.69292  0.92521  0.03711  Biso   1.000  C
  C475     1.0000 0.61597  0.86670  0.05859  Biso   1.000  C
  C476     1.0000 0.53709  0.80710  0.07479  Biso   1.000  C
  C477     1.0000 0.38403  0.86670  0.94141  Biso   1.000  C
  C478     1.0000 0.36668  0.94141  0.88401  Biso   1.000  C
  C479     1.0000 0.63332  0.05859  0.88401  Biso   1.000  C
  C480     1.0000 0.69292  0.07479  0.96289  Biso   1.000  C
  C481     1.0000 0.57477  0.03711  0.80710  Biso   1.000  C
  N79      1.0000 0.72354  0.96465  0.04589  Biso   1.000  N
  H548     1.0000 0.70001  0.90341  0.00669  Biso   1.000  H
  H549     1.0000 0.62559  0.84522  0.02870  Biso   1.000  H
  N80      1.0000 0.54591  0.77644  0.03535  Biso   1.000  N
  H550     1.0000 0.50671  0.80001  0.09659  Biso   1.000  H
  H551     1.0000 0.37441  0.84522  0.97130  Biso   1.000  H
  C482     1.0000 0.42856  0.85323  0.91119  Biso   1.000  C
  C483     1.0000 0.41117  0.92854  0.85323  Biso   1.000  C
  H552     1.0000 0.34520  0.97130  0.87439  Biso   1.000  H
  H553     1.0000 0.65480  0.02870  0.87439  Biso   1.000  H
  N81      1.0000 0.72354  0.03535  0.95411  Biso   1.000  N
  H554     1.0000 0.70001  0.09659  0.99331  Biso   1.000  H
  N82      1.0000 0.53533  0.04589  0.77644  Biso   1.000  N
  H555     1.0000 0.59661  0.00669  0.80001  Biso   1.000  H
  C484     1.0000 0.76991  0.97231  0.01138  Biso   1.000  C
  C485     1.0000 0.51140  0.73007  0.02769  Biso   1.000  C
  C486     1.0000 0.46291  0.80710  0.92521  Biso   1.000  C
  C487     1.0000 0.44139  0.88401  0.86670  Biso   1.000  C
  C488     1.0000 0.42523  0.96289  0.80710  Biso   1.000  C
  C489     1.0000 0.76991  0.02769  0.98862  Biso   1.000  C
  C490     1.0000 0.52771  0.01138  0.73007  Biso   1.000  C
  H556     1.0000 0.76851  0.94569  0.98140  Biso   1.000  H
  C491     1.0000 0.81993  0.96361  0.04288  Biso   1.000  C
  C492     1.0000 0.48860  0.73007  0.97231  Biso   1.000  C
  H557     1.0000 0.48138  0.73151  0.05431  Biso   1.000  H
  C493     1.0000 0.54290  0.68009  0.03639  Biso   1.000  C
  N83      1.0000 0.45409  0.77644  0.96465  Biso   1.000  N
  H558     1.0000 0.49329  0.80001  0.90341  Biso   1.000  H
  H559     1.0000 0.47128  0.87439  0.84522  Biso   1.000  H
  N84      1.0000 0.46467  0.95411  0.77644  Biso   1.000  N
  H560     1.0000 0.40339  0.99331  0.80001  Biso   1.000  H
  H561     1.0000 0.76851  0.05431  0.01860  Biso   1.000  H
  C494     1.0000 0.81993  0.03639  0.95712  Biso   1.000  C
  H562     1.0000 0.55429  0.98140  0.73151  Biso   1.000  H
  C495     1.0000 0.47229  0.98862  0.73007  Biso   1.000  C
  C496     1.0000 0.53641  0.04288  0.68009  Biso   1.000  C
  H563     1.0000 0.82001  0.92662  0.05719  Biso   1.000  H
  H564     1.0000 0.82021  0.98862  0.07378  Biso   1.000  H
  C497     1.0000 0.87035  0.97219  0.00990  Biso   1.000  C
  H565     1.0000 0.51862  0.73151  0.94569  Biso   1.000  H
  C498     1.0000 0.45710  0.68009  0.96361  Biso   1.000  C
  H566     1.0000 0.55721  0.68001  0.07338  Biso   1.000  H
  H567     1.0000 0.57380  0.67981  0.01138  Biso   1.000  H
  C499     1.0000 0.50992  0.62967  0.02781  Biso   1.000  C
  H568     1.0000 0.82001  0.07338  0.94281  Biso   1.000  H
  H569     1.0000 0.82021  0.01138  0.92622  Biso   1.000  H
  C500     1.0000 0.87035  0.02781  0.99010  Biso   1.000  C
  C501     1.0000 0.46359  0.95712  0.68009  Biso   1.000  C
  H570     1.0000 0.44571  0.01860  0.73151  Biso   1.000  H
  H571     1.0000 0.57340  0.05719  0.68001  Biso   1.000  H
  H572     1.0000 0.51140  0.07378  0.67981  Biso   1.000  H
  C502     1.0000 0.52779  0.00990  0.62967  Biso   1.000  C
  H573     1.0000 0.87111  0.94690  0.97940  Biso   1.000  H
  H574     1.0000 0.90249  0.96581  0.03230  Biso   1.000  H
  H575     1.0000 0.44279  0.68001  0.92662  Biso   1.000  H
  H576     1.0000 0.42620  0.67981  0.98862  Biso   1.000  H
  C503     1.0000 0.49008  0.62967  0.97219  Biso   1.000  C
  H577     1.0000 0.53228  0.59749  0.03419  Biso   1.000  H
  H578     1.0000 0.47942  0.62891  0.05310  Biso   1.000  H
  H579     1.0000 0.87111  0.05310  0.02060  Biso   1.000  H
  H580     1.0000 0.90249  0.03419  0.96770  Biso   1.000  H
  H581     1.0000 0.42660  0.94281  0.68001  Biso   1.000  H
  H582     1.0000 0.48860  0.92622  0.67981  Biso   1.000  H
  C504     1.0000 0.47221  0.99010  0.62967  Biso   1.000  C
  H583     1.0000 0.55308  0.97940  0.62891  Biso   1.000  H
  H584     1.0000 0.53421  0.03230  0.59749  Biso   1.000  H
  H585     1.0000 0.46772  0.59749  0.96581  Biso   1.000  H
  H586     1.0000 0.52058  0.62891  0.94690  Biso   1.000  H
  H587     1.0000 0.46579  0.96770  0.59749  Biso   1.000  H
  H588     1.0000 0.44692  0.02060  0.62891  Biso   1.000  H
  C505     1.0000 0.44139  0.11599  0.13330  Biso   1.000  C
  H589     1.0000 0.47128  0.12561  0.15478  Biso   1.000  H
  C506     1.0000 0.41117  0.07146  0.14677  Biso   1.000  C
  C507     1.0000 0.42856  0.14677  0.08881  Biso   1.000  C
  C508     1.0000 0.42523  0.03711  0.19290  Biso   1.000  C
  C509     1.0000 0.36668  0.05859  0.11599  Biso   1.000  C
  C510     1.0000 0.38403  0.13330  0.05859  Biso   1.000  C
  C511     1.0000 0.46291  0.19290  0.07479  Biso   1.000  C
  N85      1.0000 0.46467  0.04589  0.22356  Biso   1.000  N
  H590     1.0000 0.40339  0.00669  0.19999  Biso   1.000  H
  H591     1.0000 0.34520  0.02870  0.12561  Biso   1.000  H
  C512     1.0000 0.35321  0.08881  0.07146  Biso   1.000  C
  H592     1.0000 0.37441  0.15478  0.02870  Biso   1.000  H
  N86      1.0000 0.45409  0.22356  0.03535  Biso   1.000  N
  H593     1.0000 0.49329  0.19999  0.09659  Biso   1.000  H
  C513     1.0000 0.47229  0.01138  0.26993  Biso   1.000  C
  C514     1.0000 0.30708  0.07479  0.03711  Biso   1.000  C
  C515     1.0000 0.48860  0.26993  0.02769  Biso   1.000  C
  C516     1.0000 0.46359  0.04288  0.31991  Biso   1.000  C
  C517     1.0000 0.52771  0.98862  0.26993  Biso   1.000  C
  H594     1.0000 0.44571  0.98140  0.26849  Biso   1.000  H
  N87      1.0000 0.27646  0.03535  0.04589  Biso   1.000  N
  H595     1.0000 0.29999  0.09659  0.00669  Biso   1.000  H
  H596     1.0000 0.51862  0.26849  0.05431  Biso   1.000  H
  C518     1.0000 0.45710  0.31991  0.03639  Biso   1.000  C
  C519     1.0000 0.51140  0.26993  0.97231  Biso   1.000  C
  H597     1.0000 0.42660  0.05719  0.31999  Biso   1.000  H
  H598     1.0000 0.48860  0.07378  0.32019  Biso   1.000  H
  C520     1.0000 0.47221  0.00990  0.37033  Biso   1.000  C
  H599     1.0000 0.55429  0.01860  0.26849  Biso   1.000  H
  N88      1.0000 0.53533  0.95411  0.22356  Biso   1.000  N
  C521     1.0000 0.53641  0.95712  0.31991  Biso   1.000  C
  C522     1.0000 0.23009  0.02769  0.01138  Biso   1.000  C
  H600     1.0000 0.44279  0.31999  0.07338  Biso   1.000  H
  H601     1.0000 0.42620  0.32019  0.01138  Biso   1.000  H
  C523     1.0000 0.49008  0.37033  0.02781  Biso   1.000  C
  N89      1.0000 0.54591  0.22356  0.96465  Biso   1.000  N
  H602     1.0000 0.48138  0.26849  0.94569  Biso   1.000  H
  C524     1.0000 0.54290  0.31991  0.96361  Biso   1.000  C
  H603     1.0000 0.46579  0.03230  0.40251  Biso   1.000  H
  C525     1.0000 0.52779  0.99010  0.37033  Biso   1.000  C
  H604     1.0000 0.44692  0.97940  0.37109  Biso   1.000  H
  C526     1.0000 0.57477  0.96289  0.19290  Biso   1.000  C
  H605     1.0000 0.57340  0.94281  0.31999  Biso   1.000  H
  H606     1.0000 0.51140  0.92622  0.32019  Biso   1.000  H
  C527     1.0000 0.18007  0.03639  0.04288  Biso   1.000  C
  C528     1.0000 0.23009  0.97231  0.98862  Biso   1.000  C
  H607     1.0000 0.23149  0.05431  0.98140  Biso   1.000  H
  H608     1.0000 0.46772  0.40251  0.03419  Biso   1.000  H
  H609     1.0000 0.52058  0.37109  0.05310  Biso   1.000  H
  C529     1.0000 0.50992  0.37033  0.97219  Biso   1.000  C
  C530     1.0000 0.53709  0.19290  0.92521  Biso   1.000  C
  H610     1.0000 0.55721  0.31999  0.92662  Biso   1.000  H
  H611     1.0000 0.57380  0.32019  0.98862  Biso   1.000  H
  H612     1.0000 0.55308  0.02060  0.37109  Biso   1.000  H
  H613     1.0000 0.53421  0.96770  0.40251  Biso   1.000  H
  C531     1.0000 0.58883  0.92854  0.14677  Biso   1.000  C
  H614     1.0000 0.59661  0.99331  0.19999  Biso   1.000  H
  H615     1.0000 0.17999  0.07338  0.05719  Biso   1.000  H
  H616     1.0000 0.17979  0.01138  0.07378  Biso   1.000  H
  C532     1.0000 0.12965  0.02781  0.00990  Biso   1.000  C
  N90      1.0000 0.27646  0.96465  0.95411  Biso   1.000  N
  C533     1.0000 0.18007  0.96361  0.95712  Biso   1.000  C
  H617     1.0000 0.23149  0.94569  0.01860  Biso   1.000  H
  H618     1.0000 0.53228  0.40251  0.96581  Biso   1.000  H
  H619     1.0000 0.47942  0.37109  0.94690  Biso   1.000  H
  C534     1.0000 0.57144  0.14677  0.91119  Biso   1.000  C
  H620     1.0000 0.50671  0.19999  0.90341  Biso   1.000  H
  C535     1.0000 0.63332  0.94141  0.11599  Biso   1.000  C
  C536     1.0000 0.55861  0.88401  0.13330  Biso   1.000  C
  H621     1.0000 0.09751  0.03419  0.03230  Biso   1.000  H
  C537     1.0000 0.12965  0.97219  0.99010  Biso   1.000  C
  H622     1.0000 0.12889  0.05310  0.97940  Biso   1.000  H
  C538     1.0000 0.30708  0.92521  0.96289  Biso   1.000  C
  H623     1.0000 0.17999  0.92662  0.94281  Biso   1.000  H
  H624     1.0000 0.17979  0.98862  0.92622  Biso   1.000  H
  C539     1.0000 0.61597  0.13330  0.94141  Biso   1.000  C
  C540     1.0000 0.55861  0.11599  0.86670  Biso   1.000  C
  H625     1.0000 0.65480  0.97130  0.12561  Biso   1.000  H
  C541     1.0000 0.64679  0.91119  0.07146  Biso   1.000  C
  H626     1.0000 0.52872  0.87439  0.15478  Biso   1.000  H
  C542     1.0000 0.57144  0.85323  0.08881  Biso   1.000  C
  H627     1.0000 0.09751  0.96581  0.96770  Biso   1.000  H
  H628     1.0000 0.12889  0.94690  0.02060  Biso   1.000  H
  C543     1.0000 0.35321  0.91119  0.92854  Biso   1.000  C
  H629     1.0000 0.29999  0.90341  0.99331  Biso   1.000  H
  C544     1.0000 0.64679  0.08881  0.92854  Biso   1.000  C
  H630     1.0000 0.62559  0.15478  0.97130  Biso   1.000  H
  H631     1.0000 0.52872  0.12561  0.84522  Biso   1.000  H
  C545     1.0000 0.58883  0.07146  0.85323  Biso   1.000  C
  C546     1.0000 0.69292  0.92521  0.03711  Biso   1.000  C
  C547     1.0000 0.61597  0.86670  0.05859  Biso   1.000  C
  C548     1.0000 0.53709  0.80710  0.07479  Biso   1.000  C
  C549     1.0000 0.38403  0.86670  0.94141  Biso   1.000  C
  C550     1.0000 0.36668  0.94141  0.88401  Biso   1.000  C
  C551     1.0000 0.63332  0.05859  0.88401  Biso   1.000  C
  C552     1.0000 0.69292  0.07479  0.96289  Biso   1.000  C
  C553     1.0000 0.57477  0.03711  0.80710  Biso   1.000  C
  N91      1.0000 0.72354  0.96465  0.04589  Biso   1.000  N
  H632     1.0000 0.70001  0.90341  0.00669  Biso   1.000  H
  H633     1.0000 0.62559  0.84522  0.02870  Biso   1.000  H
  N92      1.0000 0.54591  0.77644  0.03535  Biso   1.000  N
  H634     1.0000 0.50671  0.80001  0.09659  Biso   1.000  H
  H635     1.0000 0.37441  0.84522  0.97130  Biso   1.000  H
  C554     1.0000 0.42856  0.85323  0.91119  Biso   1.000  C
  C555     1.0000 0.41117  0.92854  0.85323  Biso   1.000  C
  H636     1.0000 0.34520  0.97130  0.87439  Biso   1.000  H
  H637     1.0000 0.65480  0.02870  0.87439  Biso   1.000  H
  N93      1.0000 0.72354  0.03535  0.95411  Biso   1.000  N
  H638     1.0000 0.70001  0.09659  0.99331  Biso   1.000  H
  N94      1.0000 0.53533  0.04589  0.77644  Biso   1.000  N
  H639     1.0000 0.59661  0.00669  0.80001  Biso   1.000  H
  C556     1.0000 0.76991  0.97231  0.01138  Biso   1.000  C
  C557     1.0000 0.51140  0.73007  0.02769  Biso   1.000  C
  C558     1.0000 0.46291  0.80710  0.92521  Biso   1.000  C
  C559     1.0000 0.44139  0.88401  0.86670  Biso   1.000  C
  C560     1.0000 0.42523  0.96289  0.80710  Biso   1.000  C
  C561     1.0000 0.76991  0.02769  0.98862  Biso   1.000  C
  C562     1.0000 0.52771  0.01138  0.73007  Biso   1.000  C
  H640     1.0000 0.76851  0.94569  0.98140  Biso   1.000  H
  C563     1.0000 0.81993  0.96361  0.04288  Biso   1.000  C
  C564     1.0000 0.48860  0.73007  0.97231  Biso   1.000  C
  H641     1.0000 0.48138  0.73151  0.05431  Biso   1.000  H
  C565     1.0000 0.54290  0.68009  0.03639  Biso   1.000  C
  N95      1.0000 0.45409  0.77644  0.96465  Biso   1.000  N
  H642     1.0000 0.49329  0.80001  0.90341  Biso   1.000  H
  H643     1.0000 0.47128  0.87439  0.84522  Biso   1.000  H
  N96      1.0000 0.46467  0.95411  0.77644  Biso   1.000  N
  H644     1.0000 0.40339  0.99331  0.80001  Biso   1.000  H
  H645     1.0000 0.76851  0.05431  0.01860  Biso   1.000  H
  C566     1.0000 0.81993  0.03639  0.95712  Biso   1.000  C
  H646     1.0000 0.55429  0.98140  0.73151  Biso   1.000  H
  C567     1.0000 0.47229  0.98862  0.73007  Biso   1.000  C
  C568     1.0000 0.53641  0.04288  0.68009  Biso   1.000  C
  H647     1.0000 0.82001  0.92662  0.05719  Biso   1.000  H
  H648     1.0000 0.82021  0.98862  0.07378  Biso   1.000  H
  C569     1.0000 0.87035  0.97219  0.00990  Biso   1.000  C
  H649     1.0000 0.51862  0.73151  0.94569  Biso   1.000  H
  C570     1.0000 0.45710  0.68009  0.96361  Biso   1.000  C
  H650     1.0000 0.55721  0.68001  0.07338  Biso   1.000  H
  H651     1.0000 0.57380  0.67981  0.01138  Biso   1.000  H
  C571     1.0000 0.50992  0.62967  0.02781  Biso   1.000  C
  H652     1.0000 0.82001  0.07338  0.94281  Biso   1.000  H
  H653     1.0000 0.82021  0.01138  0.92622  Biso   1.000  H
  C572     1.0000 0.87035  0.02781  0.99010  Biso   1.000  C
  C573     1.0000 0.46359  0.95712  0.68009  Biso   1.000  C
  H654     1.0000 0.44571  0.01860  0.73151  Biso   1.000  H
  H655     1.0000 0.57340  0.05719  0.68001  Biso   1.000  H
  H656     1.0000 0.51140  0.07378  0.67981  Biso   1.000  H
  C574     1.0000 0.52779  0.00990  0.62967  Biso   1.000  C
  H657     1.0000 0.87111  0.94690  0.97940  Biso   1.000  H
  H658     1.0000 0.90249  0.96581  0.03230  Biso   1.000  H
  H659     1.0000 0.44279  0.68001  0.92662  Biso   1.000  H
  H660     1.0000 0.42620  0.67981  0.98862  Biso   1.000  H
  C575     1.0000 0.49008  0.62967  0.97219  Biso   1.000  C
  H661     1.0000 0.53228  0.59749  0.03419  Biso   1.000  H
  H662     1.0000 0.47942  0.62891  0.05310  Biso   1.000  H
  H663     1.0000 0.87111  0.05310  0.02060  Biso   1.000  H
  H664     1.0000 0.90249  0.03419  0.96770  Biso   1.000  H
  H665     1.0000 0.42660  0.94281  0.68001  Biso   1.000  H
  H666     1.0000 0.48860  0.92622  0.67981  Biso   1.000  H
  C576     1.0000 0.47221  0.99010  0.62967  Biso   1.000  C
  H667     1.0000 0.55308  0.97940  0.62891  Biso   1.000  H
  H668     1.0000 0.53421  0.03230  0.59749  Biso   1.000  H
  H669     1.0000 0.46772  0.59749  0.96581  Biso   1.000  H
  H670     1.0000 0.52058  0.62891  0.94690  Biso   1.000  H
  H671     1.0000 0.46579  0.96770  0.59749  Biso   1.000  H
  H672     1.0000 0.44692  0.02060  0.62891  Biso   1.000  H
  C577     1.0000 0.13330  0.44139  0.11599  Biso   1.000  C
  H673     1.0000 0.15478  0.47128  0.12561  Biso   1.000  H
  C578     1.0000 0.14677  0.41117  0.07146  Biso   1.000  C
  C579     1.0000 0.08881  0.42856  0.14677  Biso   1.000  C
  C580     1.0000 0.19290  0.42523  0.03711  Biso   1.000  C
  C581     1.0000 0.11599  0.36668  0.05859  Biso   1.000  C
  C582     1.0000 0.05859  0.38403  0.13330  Biso   1.000  C
  C583     1.0000 0.07479  0.46291  0.19290  Biso   1.000  C
  N97      1.0000 0.22356  0.46467  0.04589  Biso   1.000  N
  H674     1.0000 0.19999  0.40339  0.00669  Biso   1.000  H
  H675     1.0000 0.12561  0.34520  0.02870  Biso   1.000  H
  C584     1.0000 0.07146  0.35321  0.08881  Biso   1.000  C
  H676     1.0000 0.02870  0.37441  0.15478  Biso   1.000  H
  N98      1.0000 0.03535  0.45409  0.22356  Biso   1.000  N
  H677     1.0000 0.09659  0.49329  0.19999  Biso   1.000  H
  C585     1.0000 0.26993  0.47229  0.01138  Biso   1.000  C
  C586     1.0000 0.03711  0.30708  0.07479  Biso   1.000  C
  C587     1.0000 0.02769  0.48860  0.26993  Biso   1.000  C
  C588     1.0000 0.31991  0.46359  0.04288  Biso   1.000  C
  H678     1.0000 0.26849  0.44571  0.98140  Biso   1.000  H
  C589     1.0000 0.26993  0.52771  0.98862  Biso   1.000  C
  N99      1.0000 0.04589  0.27646  0.03535  Biso   1.000  N
  H679     1.0000 0.00669  0.29999  0.09659  Biso   1.000  H
  H680     1.0000 0.05431  0.51862  0.26849  Biso   1.000  H
  C590     1.0000 0.03639  0.45710  0.31991  Biso   1.000  C
  C591     1.0000 0.97231  0.51140  0.26993  Biso   1.000  C
  H681     1.0000 0.31999  0.42660  0.05719  Biso   1.000  H
  H682     1.0000 0.32019  0.48860  0.07378  Biso   1.000  H
  C592     1.0000 0.37033  0.47221  0.00990  Biso   1.000  C
  H683     1.0000 0.26849  0.55429  0.01860  Biso   1.000  H
  N100     1.0000 0.22356  0.53533  0.95411  Biso   1.000  N
  C593     1.0000 0.31991  0.53641  0.95712  Biso   1.000  C
  C594     1.0000 0.01138  0.23009  0.02769  Biso   1.000  C
  H684     1.0000 0.07338  0.44279  0.31999  Biso   1.000  H
  H685     1.0000 0.01138  0.42620  0.32019  Biso   1.000  H
  C595     1.0000 0.02781  0.49008  0.37033  Biso   1.000  C
  N101     1.0000 0.96465  0.54591  0.22356  Biso   1.000  N
  H686     1.0000 0.94569  0.48138  0.26849  Biso   1.000  H
  C596     1.0000 0.96361  0.54290  0.31991  Biso   1.000  C
  H687     1.0000 0.40251  0.46579  0.03230  Biso   1.000  H
  H688     1.0000 0.37109  0.44692  0.97940  Biso   1.000  H
  C597     1.0000 0.37033  0.52779  0.99010  Biso   1.000  C
  C598     1.0000 0.19290  0.57477  0.96289  Biso   1.000  C
  H689     1.0000 0.31999  0.57340  0.94281  Biso   1.000  H
  H690     1.0000 0.32019  0.51140  0.92622  Biso   1.000  H
  C599     1.0000 0.04288  0.18007  0.03639  Biso   1.000  C
  C600     1.0000 0.98862  0.23009  0.97231  Biso   1.000  C
  H691     1.0000 0.98140  0.23149  0.05431  Biso   1.000  H
  H692     1.0000 0.03419  0.46772  0.40251  Biso   1.000  H
  H693     1.0000 0.05310  0.52058  0.37109  Biso   1.000  H
  C601     1.0000 0.97219  0.50992  0.37033  Biso   1.000  C
  C602     1.0000 0.92521  0.53709  0.19290  Biso   1.000  C
  H694     1.0000 0.92662  0.55721  0.31999  Biso   1.000  H
  H695     1.0000 0.98862  0.57380  0.32019  Biso   1.000  H
  H696     1.0000 0.37109  0.55308  0.02060  Biso   1.000  H
  H697     1.0000 0.40251  0.53421  0.96770  Biso   1.000  H
  C603     1.0000 0.14677  0.58883  0.92854  Biso   1.000  C
  H698     1.0000 0.19999  0.59661  0.99331  Biso   1.000  H
  H699     1.0000 0.05719  0.17999  0.07338  Biso   1.000  H
  H700     1.0000 0.07378  0.17979  0.01138  Biso   1.000  H
  C604     1.0000 0.00990  0.12965  0.02781  Biso   1.000  C
  N102     1.0000 0.95411  0.27646  0.96465  Biso   1.000  N
  C605     1.0000 0.95712  0.18007  0.96361  Biso   1.000  C
  H701     1.0000 0.01860  0.23149  0.94569  Biso   1.000  H
  H702     1.0000 0.96581  0.53228  0.40251  Biso   1.000  H
  H703     1.0000 0.94690  0.47942  0.37109  Biso   1.000  H
  C606     1.0000 0.91119  0.57144  0.14677  Biso   1.000  C
  H704     1.0000 0.90341  0.50671  0.19999  Biso   1.000  H
  C607     1.0000 0.13330  0.55861  0.88401  Biso   1.000  C
  C608     1.0000 0.11599  0.63332  0.94141  Biso   1.000  C
  H705     1.0000 0.03230  0.09751  0.03419  Biso   1.000  H
  C609     1.0000 0.99010  0.12965  0.97219  Biso   1.000  C
  H706     1.0000 0.97940  0.12889  0.05310  Biso   1.000  H
  C610     1.0000 0.96289  0.30708  0.92521  Biso   1.000  C
  H707     1.0000 0.94281  0.17999  0.92662  Biso   1.000  H
  H708     1.0000 0.92622  0.17979  0.98862  Biso   1.000  H
  C611     1.0000 0.94141  0.61597  0.13330  Biso   1.000  C
  C612     1.0000 0.86670  0.55861  0.11599  Biso   1.000  C
  H709     1.0000 0.15478  0.52872  0.87439  Biso   1.000  H
  C613     1.0000 0.08881  0.57144  0.85323  Biso   1.000  C
  H710     1.0000 0.12561  0.65480  0.97130  Biso   1.000  H
  C614     1.0000 0.07146  0.64679  0.91119  Biso   1.000  C
  H711     1.0000 0.96770  0.09751  0.96581  Biso   1.000  H
  H712     1.0000 0.02060  0.12889  0.94690  Biso   1.000  H
  C615     1.0000 0.92854  0.35321  0.91119  Biso   1.000  C
  H713     1.0000 0.99331  0.29999  0.90341  Biso   1.000  H
  H714     1.0000 0.97130  0.62559  0.15478  Biso   1.000  H
  C616     1.0000 0.92854  0.64679  0.08881  Biso   1.000  C
  H715     1.0000 0.84522  0.52872  0.12561  Biso   1.000  H
  C617     1.0000 0.85323  0.58883  0.07146  Biso   1.000  C
  C618     1.0000 0.05859  0.61597  0.86670  Biso   1.000  C
  C619     1.0000 0.07479  0.53709  0.80710  Biso   1.000  C
  C620     1.0000 0.03711  0.69292  0.92521  Biso   1.000  C
  C621     1.0000 0.88401  0.36668  0.94141  Biso   1.000  C
  C622     1.0000 0.94141  0.38403  0.86670  Biso   1.000  C
  C623     1.0000 0.88401  0.63332  0.05859  Biso   1.000  C
  C624     1.0000 0.96289  0.69292  0.07479  Biso   1.000  C
  C625     1.0000 0.80710  0.57477  0.03711  Biso   1.000  C
  H716     1.0000 0.02870  0.62559  0.84522  Biso   1.000  H
  N103     1.0000 0.03535  0.54591  0.77644  Biso   1.000  N
  H717     1.0000 0.09659  0.50671  0.80001  Biso   1.000  H
  N104     1.0000 0.04589  0.72354  0.96465  Biso   1.000  N
  H718     1.0000 0.00669  0.70001  0.90341  Biso   1.000  H
  H719     1.0000 0.87439  0.34520  0.97130  Biso   1.000  H
  C626     1.0000 0.85323  0.41117  0.92854  Biso   1.000  C
  H720     1.0000 0.97130  0.37441  0.84522  Biso   1.000  H
  C627     1.0000 0.91119  0.42856  0.85323  Biso   1.000  C
  H721     1.0000 0.87439  0.65480  0.02870  Biso   1.000  H
  N105     1.0000 0.95411  0.72354  0.03535  Biso   1.000  N
  H722     1.0000 0.99331  0.70001  0.09659  Biso   1.000  H
  N106     1.0000 0.77644  0.53533  0.04589  Biso   1.000  N
  H723     1.0000 0.80001  0.59661  0.00669  Biso   1.000  H
  C628     1.0000 0.02769  0.51140  0.73007  Biso   1.000  C
  C629     1.0000 0.01138  0.76991  0.97231  Biso   1.000  C
  C630     1.0000 0.86670  0.44139  0.88401  Biso   1.000  C
  C631     1.0000 0.80710  0.42523  0.96289  Biso   1.000  C
  C632     1.0000 0.92521  0.46291  0.80710  Biso   1.000  C
  C633     1.0000 0.98862  0.76991  0.02769  Biso   1.000  C
  C634     1.0000 0.73007  0.52771  0.01138  Biso   1.000  C
  C635     1.0000 0.97231  0.48860  0.73007  Biso   1.000  C
  H724     1.0000 0.05431  0.48138  0.73151  Biso   1.000  H
  C636     1.0000 0.03639  0.54290  0.68009  Biso   1.000  C
  H725     1.0000 0.98140  0.76851  0.94569  Biso   1.000  H
  C637     1.0000 0.04288  0.81993  0.96361  Biso   1.000  C
  H726     1.0000 0.84522  0.47128  0.87439  Biso   1.000  H
  N107     1.0000 0.77644  0.46467  0.95411  Biso   1.000  N
  H727     1.0000 0.80001  0.40339  0.99331  Biso   1.000  H
  N108     1.0000 0.96465  0.45409  0.77644  Biso   1.000  N
  H728     1.0000 0.90341  0.49329  0.80001  Biso   1.000  H
  H729     1.0000 0.01860  0.76851  0.05431  Biso   1.000  H
  C638     1.0000 0.95712  0.81993  0.03639  Biso   1.000  C
  H730     1.0000 0.73151  0.55429  0.98140  Biso   1.000  H
  C639     1.0000 0.73007  0.47229  0.98862  Biso   1.000  C
  C640     1.0000 0.68009  0.53641  0.04288  Biso   1.000  C
  H731     1.0000 0.94569  0.51862  0.73151  Biso   1.000  H
  C641     1.0000 0.96361  0.45710  0.68009  Biso   1.000  C
  H732     1.0000 0.07338  0.55721  0.68001  Biso   1.000  H
  H733     1.0000 0.01138  0.57380  0.67981  Biso   1.000  H
  C642     1.0000 0.02781  0.50992  0.62967  Biso   1.000  C
  H734     1.0000 0.05719  0.82001  0.92662  Biso   1.000  H
  H735     1.0000 0.07378  0.82021  0.98862  Biso   1.000  H
  C643     1.0000 0.00990  0.87035  0.97219  Biso   1.000  C
  H736     1.0000 0.94281  0.82001  0.07338  Biso   1.000  H
  H737     1.0000 0.92622  0.82021  0.01138  Biso   1.000  H
  C644     1.0000 0.99010  0.87035  0.02781  Biso   1.000  C
  C645     1.0000 0.68009  0.46359  0.95712  Biso   1.000  C
  H738     1.0000 0.73151  0.44571  0.01860  Biso   1.000  H
  H739     1.0000 0.68001  0.57340  0.05719  Biso   1.000  H
  H740     1.0000 0.67981  0.51140  0.07378  Biso   1.000  H
  C646     1.0000 0.62967  0.52779  0.00990  Biso   1.000  C
  H741     1.0000 0.92662  0.44279  0.68001  Biso   1.000  H
  H742     1.0000 0.98862  0.42620  0.67981  Biso   1.000  H
  C647     1.0000 0.97219  0.49008  0.62967  Biso   1.000  C
  H743     1.0000 0.03419  0.53228  0.59749  Biso   1.000  H
  H744     1.0000 0.05310  0.47942  0.62891  Biso   1.000  H
  H745     1.0000 0.97940  0.87111  0.94690  Biso   1.000  H
  H746     1.0000 0.03230  0.90249  0.96581  Biso   1.000  H
  H747     1.0000 0.02060  0.87111  0.05310  Biso   1.000  H
  H748     1.0000 0.96770  0.90249  0.03419  Biso   1.000  H
  H749     1.0000 0.68001  0.42660  0.94281  Biso   1.000  H
  H750     1.0000 0.67981  0.48860  0.92622  Biso   1.000  H
  C648     1.0000 0.62967  0.47221  0.99010  Biso   1.000  C
  H751     1.0000 0.62891  0.55308  0.97940  Biso   1.000  H
  H752     1.0000 0.59749  0.53421  0.03230  Biso   1.000  H
  H753     1.0000 0.96581  0.46772  0.59749  Biso   1.000  H
  H754     1.0000 0.94690  0.52058  0.62891  Biso   1.000  H
  H755     1.0000 0.59749  0.46579  0.96770  Biso   1.000  H
  H756     1.0000 0.62891  0.44692  0.02060  Biso   1.000  H
  C649     1.0000 0.13330  0.44139  0.11599  Biso   1.000  C
  H757     1.0000 0.15478  0.47128  0.12561  Biso   1.000  H
  C650     1.0000 0.14677  0.41117  0.07146  Biso   1.000  C
  C651     1.0000 0.08881  0.42856  0.14677  Biso   1.000  C
  C652     1.0000 0.19290  0.42523  0.03711  Biso   1.000  C
  C653     1.0000 0.11599  0.36668  0.05859  Biso   1.000  C
  C654     1.0000 0.05859  0.38403  0.13330  Biso   1.000  C
  C655     1.0000 0.07479  0.46291  0.19290  Biso   1.000  C
  N109     1.0000 0.22356  0.46467  0.04589  Biso   1.000  N
  H758     1.0000 0.19999  0.40339  0.00669  Biso   1.000  H
  H759     1.0000 0.12561  0.34520  0.02870  Biso   1.000  H
  C656     1.0000 0.07146  0.35321  0.08881  Biso   1.000  C
  H760     1.0000 0.02870  0.37441  0.15478  Biso   1.000  H
  N110     1.0000 0.03535  0.45409  0.22356  Biso   1.000  N
  H761     1.0000 0.09659  0.49329  0.19999  Biso   1.000  H
  C657     1.0000 0.26993  0.47229  0.01138  Biso   1.000  C
  C658     1.0000 0.03711  0.30708  0.07479  Biso   1.000  C
  C659     1.0000 0.02769  0.48860  0.26993  Biso   1.000  C
  C660     1.0000 0.31991  0.46359  0.04288  Biso   1.000  C
  H762     1.0000 0.26849  0.44571  0.98140  Biso   1.000  H
  C661     1.0000 0.26993  0.52771  0.98862  Biso   1.000  C
  N111     1.0000 0.04589  0.27646  0.03535  Biso   1.000  N
  H763     1.0000 0.00669  0.29999  0.09659  Biso   1.000  H
  H764     1.0000 0.05431  0.51862  0.26849  Biso   1.000  H
  C662     1.0000 0.03639  0.45710  0.31991  Biso   1.000  C
  C663     1.0000 0.97231  0.51140  0.26993  Biso   1.000  C
  H765     1.0000 0.31999  0.42660  0.05719  Biso   1.000  H
  H766     1.0000 0.32019  0.48860  0.07378  Biso   1.000  H
  C664     1.0000 0.37033  0.47221  0.00990  Biso   1.000  C
  H767     1.0000 0.26849  0.55429  0.01860  Biso   1.000  H
  N112     1.0000 0.22356  0.53533  0.95411  Biso   1.000  N
  C665     1.0000 0.31991  0.53641  0.95712  Biso   1.000  C
  C666     1.0000 0.01138  0.23009  0.02769  Biso   1.000  C
  H768     1.0000 0.07338  0.44279  0.31999  Biso   1.000  H
  H769     1.0000 0.01138  0.42620  0.32019  Biso   1.000  H
  C667     1.0000 0.02781  0.49008  0.37033  Biso   1.000  C
  N113     1.0000 0.96465  0.54591  0.22356  Biso   1.000  N
  H770     1.0000 0.94569  0.48138  0.26849  Biso   1.000  H
  C668     1.0000 0.96361  0.54290  0.31991  Biso   1.000  C
  H771     1.0000 0.40251  0.46579  0.03230  Biso   1.000  H
  H772     1.0000 0.37109  0.44692  0.97940  Biso   1.000  H
  C669     1.0000 0.37033  0.52779  0.99010  Biso   1.000  C
  C670     1.0000 0.19290  0.57477  0.96289  Biso   1.000  C
  H773     1.0000 0.31999  0.57340  0.94281  Biso   1.000  H
  H774     1.0000 0.32019  0.51140  0.92622  Biso   1.000  H
  C671     1.0000 0.04288  0.18007  0.03639  Biso   1.000  C
  C672     1.0000 0.98862  0.23009  0.97231  Biso   1.000  C
  H775     1.0000 0.98140  0.23149  0.05431  Biso   1.000  H
  H776     1.0000 0.03419  0.46772  0.40251  Biso   1.000  H
  H777     1.0000 0.05310  0.52058  0.37109  Biso   1.000  H
  C673     1.0000 0.97219  0.50992  0.37033  Biso   1.000  C
  C674     1.0000 0.92521  0.53709  0.19290  Biso   1.000  C
  H778     1.0000 0.92662  0.55721  0.31999  Biso   1.000  H
  H779     1.0000 0.98862  0.57380  0.32019  Biso   1.000  H
  H780     1.0000 0.37109  0.55308  0.02060  Biso   1.000  H
  H781     1.0000 0.40251  0.53421  0.96770  Biso   1.000  H
  C675     1.0000 0.14677  0.58883  0.92854  Biso   1.000  C
  H782     1.0000 0.19999  0.59661  0.99331  Biso   1.000  H
  H783     1.0000 0.05719  0.17999  0.07338  Biso   1.000  H
  H784     1.0000 0.07378  0.17979  0.01138  Biso   1.000  H
  C676     1.0000 0.00990  0.12965  0.02781  Biso   1.000  C
  N114     1.0000 0.95411  0.27646  0.96465  Biso   1.000  N
  C677     1.0000 0.95712  0.18007  0.96361  Biso   1.000  C
  H785     1.0000 0.01860  0.23149  0.94569  Biso   1.000  H
  H786     1.0000 0.96581  0.53228  0.40251  Biso   1.000  H
  H787     1.0000 0.94690  0.47942  0.37109  Biso   1.000  H
  C678     1.0000 0.91119  0.57144  0.14677  Biso   1.000  C
  H788     1.0000 0.90341  0.50671  0.19999  Biso   1.000  H
  C679     1.0000 0.13330  0.55861  0.88401  Biso   1.000  C
  C680     1.0000 0.11599  0.63332  0.94141  Biso   1.000  C
  H789     1.0000 0.03230  0.09751  0.03419  Biso   1.000  H
  C681     1.0000 0.99010  0.12965  0.97219  Biso   1.000  C
  H790     1.0000 0.97940  0.12889  0.05310  Biso   1.000  H
  C682     1.0000 0.96289  0.30708  0.92521  Biso   1.000  C
  H791     1.0000 0.94281  0.17999  0.92662  Biso   1.000  H
  H792     1.0000 0.92622  0.17979  0.98862  Biso   1.000  H
  C683     1.0000 0.94141  0.61597  0.13330  Biso   1.000  C
  C684     1.0000 0.86670  0.55861  0.11599  Biso   1.000  C
  H793     1.0000 0.15478  0.52872  0.87439  Biso   1.000  H
  C685     1.0000 0.08881  0.57144  0.85323  Biso   1.000  C
  H794     1.0000 0.12561  0.65480  0.97130  Biso   1.000  H
  C686     1.0000 0.07146  0.64679  0.91119  Biso   1.000  C
  H795     1.0000 0.96770  0.09751  0.96581  Biso   1.000  H
  H796     1.0000 0.02060  0.12889  0.94690  Biso   1.000  H
  C687     1.0000 0.92854  0.35321  0.91119  Biso   1.000  C
  H797     1.0000 0.99331  0.29999  0.90341  Biso   1.000  H
  H798     1.0000 0.97130  0.62559  0.15478  Biso   1.000  H
  C688     1.0000 0.92854  0.64679  0.08881  Biso   1.000  C
  H799     1.0000 0.84522  0.52872  0.12561  Biso   1.000  H
  C689     1.0000 0.85323  0.58883  0.07146  Biso   1.000  C
  C690     1.0000 0.05859  0.61597  0.86670  Biso   1.000  C
  C691     1.0000 0.07479  0.53709  0.80710  Biso   1.000  C
  C692     1.0000 0.03711  0.69292  0.92521  Biso   1.000  C
  C693     1.0000 0.88401  0.36668  0.94141  Biso   1.000  C
  C694     1.0000 0.94141  0.38403  0.86670  Biso   1.000  C
  C695     1.0000 0.88401  0.63332  0.05859  Biso   1.000  C
  C696     1.0000 0.96289  0.69292  0.07479  Biso   1.000  C
  C697     1.0000 0.80710  0.57477  0.03711  Biso   1.000  C
  H800     1.0000 0.02870  0.62559  0.84522  Biso   1.000  H
  N115     1.0000 0.03535  0.54591  0.77644  Biso   1.000  N
  H801     1.0000 0.09659  0.50671  0.80001  Biso   1.000  H
  N116     1.0000 0.04589  0.72354  0.96465  Biso   1.000  N
  H802     1.0000 0.00669  0.70001  0.90341  Biso   1.000  H
  H803     1.0000 0.87439  0.34520  0.97130  Biso   1.000  H
  C698     1.0000 0.85323  0.41117  0.92854  Biso   1.000  C
  H804     1.0000 0.97130  0.37441  0.84522  Biso   1.000  H
  C699     1.0000 0.91119  0.42856  0.85323  Biso   1.000  C
  H805     1.0000 0.87439  0.65480  0.02870  Biso   1.000  H
  N117     1.0000 0.95411  0.72354  0.03535  Biso   1.000  N
  H806     1.0000 0.99331  0.70001  0.09659  Biso   1.000  H
  N118     1.0000 0.77644  0.53533  0.04589  Biso   1.000  N
  H807     1.0000 0.80001  0.59661  0.00669  Biso   1.000  H
  C700     1.0000 0.02769  0.51140  0.73007  Biso   1.000  C
  C701     1.0000 0.01138  0.76991  0.97231  Biso   1.000  C
  C702     1.0000 0.86670  0.44139  0.88401  Biso   1.000  C
  C703     1.0000 0.80710  0.42523  0.96289  Biso   1.000  C
  C704     1.0000 0.92521  0.46291  0.80710  Biso   1.000  C
  C705     1.0000 0.98862  0.76991  0.02769  Biso   1.000  C
  C706     1.0000 0.73007  0.52771  0.01138  Biso   1.000  C
  C707     1.0000 0.97231  0.48860  0.73007  Biso   1.000  C
  H808     1.0000 0.05431  0.48138  0.73151  Biso   1.000  H
  C708     1.0000 0.03639  0.54290  0.68009  Biso   1.000  C
  H809     1.0000 0.98140  0.76851  0.94569  Biso   1.000  H
  C709     1.0000 0.04288  0.81993  0.96361  Biso   1.000  C
  H810     1.0000 0.84522  0.47128  0.87439  Biso   1.000  H
  N119     1.0000 0.77644  0.46467  0.95411  Biso   1.000  N
  H811     1.0000 0.80001  0.40339  0.99331  Biso   1.000  H
  N120     1.0000 0.96465  0.45409  0.77644  Biso   1.000  N
  H812     1.0000 0.90341  0.49329  0.80001  Biso   1.000  H
  H813     1.0000 0.01860  0.76851  0.05431  Biso   1.000  H
  C710     1.0000 0.95712  0.81993  0.03639  Biso   1.000  C
  H814     1.0000 0.73151  0.55429  0.98140  Biso   1.000  H
  C711     1.0000 0.73007  0.47229  0.98862  Biso   1.000  C
  C712     1.0000 0.68009  0.53641  0.04288  Biso   1.000  C
  H815     1.0000 0.94569  0.51862  0.73151  Biso   1.000  H
  C713     1.0000 0.96361  0.45710  0.68009  Biso   1.000  C
  H816     1.0000 0.07338  0.55721  0.68001  Biso   1.000  H
  H817     1.0000 0.01138  0.57380  0.67981  Biso   1.000  H
  C714     1.0000 0.02781  0.50992  0.62967  Biso   1.000  C
  H818     1.0000 0.05719  0.82001  0.92662  Biso   1.000  H
  H819     1.0000 0.07378  0.82021  0.98862  Biso   1.000  H
  C715     1.0000 0.00990  0.87035  0.97219  Biso   1.000  C
  H820     1.0000 0.94281  0.82001  0.07338  Biso   1.000  H
  H821     1.0000 0.92622  0.82021  0.01138  Biso   1.000  H
  C716     1.0000 0.99010  0.87035  0.02781  Biso   1.000  C
  C717     1.0000 0.68009  0.46359  0.95712  Biso   1.000  C
  H822     1.0000 0.73151  0.44571  0.01860  Biso   1.000  H
  H823     1.0000 0.68001  0.57340  0.05719  Biso   1.000  H
  H824     1.0000 0.67981  0.51140  0.07378  Biso   1.000  H
  C718     1.0000 0.62967  0.52779  0.00990  Biso   1.000  C
  H825     1.0000 0.92662  0.44279  0.68001  Biso   1.000  H
  H826     1.0000 0.98862  0.42620  0.67981  Biso   1.000  H
  C719     1.0000 0.97219  0.49008  0.62967  Biso   1.000  C
  H827     1.0000 0.03419  0.53228  0.59749  Biso   1.000  H
  H828     1.0000 0.05310  0.47942  0.62891  Biso   1.000  H
  H829     1.0000 0.97940  0.87111  0.94690  Biso   1.000  H
  H830     1.0000 0.03230  0.90249  0.96581  Biso   1.000  H
  H831     1.0000 0.02060  0.87111  0.05310  Biso   1.000  H
  H832     1.0000 0.96770  0.90249  0.03419  Biso   1.000  H
  H833     1.0000 0.68001  0.42660  0.94281  Biso   1.000  H
  H834     1.0000 0.67981  0.48860  0.92622  Biso   1.000  H
  C720     1.0000 0.62967  0.47221  0.99010  Biso   1.000  C
  H835     1.0000 0.62891  0.55308  0.97940  Biso   1.000  H
  H836     1.0000 0.59749  0.53421  0.03230  Biso   1.000  H
  H837     1.0000 0.96581  0.46772  0.59749  Biso   1.000  H
  H838     1.0000 0.94690  0.52058  0.62891  Biso   1.000  H
  H839     1.0000 0.59749  0.46579  0.96770  Biso   1.000  H
  H840     1.0000 0.62891  0.44692  0.02060  Biso   1.000  H
  C721     1.0000 0.13330  0.44139  0.11599  Biso   1.000  C
  H841     1.0000 0.15478  0.47128  0.12561  Biso   1.000  H
  C722     1.0000 0.14677  0.41117  0.07146  Biso   1.000  C
  C723     1.0000 0.08881  0.42856  0.14677  Biso   1.000  C
  C724     1.0000 0.19290  0.42523  0.03711  Biso   1.000  C
  C725     1.0000 0.11599  0.36668  0.05859  Biso   1.000  C
  C726     1.0000 0.05859  0.38403  0.13330  Biso   1.000  C
  C727     1.0000 0.07479  0.46291  0.19290  Biso   1.000  C
  N121     1.0000 0.22356  0.46467  0.04589  Biso   1.000  N
  H842     1.0000 0.19999  0.40339  0.00669  Biso   1.000  H
  H843     1.0000 0.12561  0.34520  0.02870  Biso   1.000  H
  C728     1.0000 0.07146  0.35321  0.08881  Biso   1.000  C
  H844     1.0000 0.02870  0.37441  0.15478  Biso   1.000  H
  N122     1.0000 0.03535  0.45409  0.22356  Biso   1.000  N
  H845     1.0000 0.09659  0.49329  0.19999  Biso   1.000  H
  C729     1.0000 0.26993  0.47229  0.01138  Biso   1.000  C
  C730     1.0000 0.03711  0.30708  0.07479  Biso   1.000  C
  C731     1.0000 0.02769  0.48860  0.26993  Biso   1.000  C
  C732     1.0000 0.31991  0.46359  0.04288  Biso   1.000  C
  H846     1.0000 0.26849  0.44571  0.98140  Biso   1.000  H
  C733     1.0000 0.26993  0.52771  0.98862  Biso   1.000  C
  N123     1.0000 0.04589  0.27646  0.03535  Biso   1.000  N
  H847     1.0000 0.00669  0.29999  0.09659  Biso   1.000  H
  H848     1.0000 0.05431  0.51862  0.26849  Biso   1.000  H
  C734     1.0000 0.03639  0.45710  0.31991  Biso   1.000  C
  C735     1.0000 0.97231  0.51140  0.26993  Biso   1.000  C
  H849     1.0000 0.31999  0.42660  0.05719  Biso   1.000  H
  H850     1.0000 0.32019  0.48860  0.07378  Biso   1.000  H
  C736     1.0000 0.37033  0.47221  0.00990  Biso   1.000  C
  H851     1.0000 0.26849  0.55429  0.01860  Biso   1.000  H
  N124     1.0000 0.22356  0.53533  0.95411  Biso   1.000  N
  C737     1.0000 0.31991  0.53641  0.95712  Biso   1.000  C
  C738     1.0000 0.01138  0.23009  0.02769  Biso   1.000  C
  H852     1.0000 0.07338  0.44279  0.31999  Biso   1.000  H
  H853     1.0000 0.01138  0.42620  0.32019  Biso   1.000  H
  C739     1.0000 0.02781  0.49008  0.37033  Biso   1.000  C
  N125     1.0000 0.96465  0.54591  0.22356  Biso   1.000  N
  H854     1.0000 0.94569  0.48138  0.26849  Biso   1.000  H
  C740     1.0000 0.96361  0.54290  0.31991  Biso   1.000  C
  H855     1.0000 0.40251  0.46579  0.03230  Biso   1.000  H
  H856     1.0000 0.37109  0.44692  0.97940  Biso   1.000  H
  C741     1.0000 0.37033  0.52779  0.99010  Biso   1.000  C
  C742     1.0000 0.19290  0.57477  0.96289  Biso   1.000  C
  H857     1.0000 0.31999  0.57340  0.94281  Biso   1.000  H
  H858     1.0000 0.32019  0.51140  0.92622  Biso   1.000  H
  C743     1.0000 0.04288  0.18007  0.03639  Biso   1.000  C
  C744     1.0000 0.98862  0.23009  0.97231  Biso   1.000  C
  H859     1.0000 0.98140  0.23149  0.05431  Biso   1.000  H
  H860     1.0000 0.03419  0.46772  0.40251  Biso   1.000  H
  H861     1.0000 0.05310  0.52058  0.37109  Biso   1.000  H
  C745     1.0000 0.97219  0.50992  0.37033  Biso   1.000  C
  C746     1.0000 0.92521  0.53709  0.19290  Biso   1.000  C
  H862     1.0000 0.92662  0.55721  0.31999  Biso   1.000  H
  H863     1.0000 0.98862  0.57380  0.32019  Biso   1.000  H
  H864     1.0000 0.37109  0.55308  0.02060  Biso   1.000  H
  H865     1.0000 0.40251  0.53421  0.96770  Biso   1.000  H
  C747     1.0000 0.14677  0.58883  0.92854  Biso   1.000  C
  H866     1.0000 0.19999  0.59661  0.99331  Biso   1.000  H
  H867     1.0000 0.05719  0.17999  0.07338  Biso   1.000  H
  H868     1.0000 0.07378  0.17979  0.01138  Biso   1.000  H
  C748     1.0000 0.00990  0.12965  0.02781  Biso   1.000  C
  N126     1.0000 0.95411  0.27646  0.96465  Biso   1.000  N
  C749     1.0000 0.95712  0.18007  0.96361  Biso   1.000  C
  H869     1.0000 0.01860  0.23149  0.94569  Biso   1.000  H
  H870     1.0000 0.96581  0.53228  0.40251  Biso   1.000  H
  H871     1.0000 0.94690  0.47942  0.37109  Biso   1.000  H
  C750     1.0000 0.91119  0.57144  0.14677  Biso   1.000  C
  H872     1.0000 0.90341  0.50671  0.19999  Biso   1.000  H
  C751     1.0000 0.13330  0.55861  0.88401  Biso   1.000  C
  C752     1.0000 0.11599  0.63332  0.94141  Biso   1.000  C
  H873     1.0000 0.03230  0.09751  0.03419  Biso   1.000  H
  C753     1.0000 0.99010  0.12965  0.97219  Biso   1.000  C
  H874     1.0000 0.97940  0.12889  0.05310  Biso   1.000  H
  C754     1.0000 0.96289  0.30708  0.92521  Biso   1.000  C
  H875     1.0000 0.94281  0.17999  0.92662  Biso   1.000  H
  H876     1.0000 0.92622  0.17979  0.98862  Biso   1.000  H
  C755     1.0000 0.94141  0.61597  0.13330  Biso   1.000  C
  C756     1.0000 0.86670  0.55861  0.11599  Biso   1.000  C
  H877     1.0000 0.15478  0.52872  0.87439  Biso   1.000  H
  C757     1.0000 0.08881  0.57144  0.85323  Biso   1.000  C
  H878     1.0000 0.12561  0.65480  0.97130  Biso   1.000  H
  C758     1.0000 0.07146  0.64679  0.91119  Biso   1.000  C
  H879     1.0000 0.96770  0.09751  0.96581  Biso   1.000  H
  H880     1.0000 0.02060  0.12889  0.94690  Biso   1.000  H
  C759     1.0000 0.92854  0.35321  0.91119  Biso   1.000  C
  H881     1.0000 0.99331  0.29999  0.90341  Biso   1.000  H
  H882     1.0000 0.97130  0.62559  0.15478  Biso   1.000  H
  C760     1.0000 0.92854  0.64679  0.08881  Biso   1.000  C
  H883     1.0000 0.84522  0.52872  0.12561  Biso   1.000  H
  C761     1.0000 0.85323  0.58883  0.07146  Biso   1.000  C
  C762     1.0000 0.05859  0.61597  0.86670  Biso   1.000  C
  C763     1.0000 0.07479  0.53709  0.80710  Biso   1.000  C
  C764     1.0000 0.03711  0.69292  0.92521  Biso   1.000  C
  C765     1.0000 0.88401  0.36668  0.94141  Biso   1.000  C
  C766     1.0000 0.94141  0.38403  0.86670  Biso   1.000  C
  C767     1.0000 0.88401  0.63332  0.05859  Biso   1.000  C
  C768     1.0000 0.96289  0.69292  0.07479  Biso   1.000  C
  C769     1.0000 0.80710  0.57477  0.03711  Biso   1.000  C
  H884     1.0000 0.02870  0.62559  0.84522  Biso   1.000  H
  N127     1.0000 0.03535  0.54591  0.77644  Biso   1.000  N
  H885     1.0000 0.09659  0.50671  0.80001  Biso   1.000  H
  N128     1.0000 0.04589  0.72354  0.96465  Biso   1.000  N
  H886     1.0000 0.00669  0.70001  0.90341  Biso   1.000  H
  H887     1.0000 0.87439  0.34520  0.97130  Biso   1.000  H
  C770     1.0000 0.85323  0.41117  0.92854  Biso   1.000  C
  H888     1.0000 0.97130  0.37441  0.84522  Biso   1.000  H
  C771     1.0000 0.91119  0.42856  0.85323  Biso   1.000  C
  H889     1.0000 0.87439  0.65480  0.02870  Biso   1.000  H
  N129     1.0000 0.95411  0.72354  0.03535  Biso   1.000  N
  H890     1.0000 0.99331  0.70001  0.09659  Biso   1.000  H
  N130     1.0000 0.77644  0.53533  0.04589  Biso   1.000  N
  H891     1.0000 0.80001  0.59661  0.00669  Biso   1.000  H
  C772     1.0000 0.02769  0.51140  0.73007  Biso   1.000  C
  C773     1.0000 0.01138  0.76991  0.97231  Biso   1.000  C
  C774     1.0000 0.86670  0.44139  0.88401  Biso   1.000  C
  C775     1.0000 0.80710  0.42523  0.96289  Biso   1.000  C
  C776     1.0000 0.92521  0.46291  0.80710  Biso   1.000  C
  C777     1.0000 0.98862  0.76991  0.02769  Biso   1.000  C
  C778     1.0000 0.73007  0.52771  0.01138  Biso   1.000  C
  C779     1.0000 0.97231  0.48860  0.73007  Biso   1.000  C
  H892     1.0000 0.05431  0.48138  0.73151  Biso   1.000  H
  C780     1.0000 0.03639  0.54290  0.68009  Biso   1.000  C
  H893     1.0000 0.98140  0.76851  0.94569  Biso   1.000  H
  C781     1.0000 0.04288  0.81993  0.96361  Biso   1.000  C
  H894     1.0000 0.84522  0.47128  0.87439  Biso   1.000  H
  N131     1.0000 0.77644  0.46467  0.95411  Biso   1.000  N
  H895     1.0000 0.80001  0.40339  0.99331  Biso   1.000  H
  N132     1.0000 0.96465  0.45409  0.77644  Biso   1.000  N
  H896     1.0000 0.90341  0.49329  0.80001  Biso   1.000  H
  H897     1.0000 0.01860  0.76851  0.05431  Biso   1.000  H
  C782     1.0000 0.95712  0.81993  0.03639  Biso   1.000  C
  H898     1.0000 0.73151  0.55429  0.98140  Biso   1.000  H
  C783     1.0000 0.73007  0.47229  0.98862  Biso   1.000  C
  C784     1.0000 0.68009  0.53641  0.04288  Biso   1.000  C
  H899     1.0000 0.94569  0.51862  0.73151  Biso   1.000  H
  C785     1.0000 0.96361  0.45710  0.68009  Biso   1.000  C
  H900     1.0000 0.07338  0.55721  0.68001  Biso   1.000  H
  H901     1.0000 0.01138  0.57380  0.67981  Biso   1.000  H
  C786     1.0000 0.02781  0.50992  0.62967  Biso   1.000  C
  H902     1.0000 0.05719  0.82001  0.92662  Biso   1.000  H
  H903     1.0000 0.07378  0.82021  0.98862  Biso   1.000  H
  C787     1.0000 0.00990  0.87035  0.97219  Biso   1.000  C
  H904     1.0000 0.94281  0.82001  0.07338  Biso   1.000  H
  H905     1.0000 0.92622  0.82021  0.01138  Biso   1.000  H
  C788     1.0000 0.99010  0.87035  0.02781  Biso   1.000  C
  C789     1.0000 0.68009  0.46359  0.95712  Biso   1.000  C
  H906     1.0000 0.73151  0.44571  0.01860  Biso   1.000  H
  H907     1.0000 0.68001  0.57340  0.05719  Biso   1.000  H
  H908     1.0000 0.67981  0.51140  0.07378  Biso   1.000  H
  C790     1.0000 0.62967  0.52779  0.00990  Biso   1.000  C
  H909     1.0000 0.92662  0.44279  0.68001  Biso   1.000  H
  H910     1.0000 0.98862  0.42620  0.67981  Biso   1.000  H
  C791     1.0000 0.97219  0.49008  0.62967  Biso   1.000  C
  H911     1.0000 0.03419  0.53228  0.59749  Biso   1.000  H
  H912     1.0000 0.05310  0.47942  0.62891  Biso   1.000  H
  H913     1.0000 0.97940  0.87111  0.94690  Biso   1.000  H
  H914     1.0000 0.03230  0.90249  0.96581  Biso   1.000  H
  H915     1.0000 0.02060  0.87111  0.05310  Biso   1.000  H
  H916     1.0000 0.96770  0.90249  0.03419  Biso   1.000  H
  H917     1.0000 0.68001  0.42660  0.94281  Biso   1.000  H
  H918     1.0000 0.67981  0.48860  0.92622  Biso   1.000  H
  C792     1.0000 0.62967  0.47221  0.99010  Biso   1.000  C
  H919     1.0000 0.62891  0.55308  0.97940  Biso   1.000  H
  H920     1.0000 0.59749  0.53421  0.03230  Biso   1.000  H
  H921     1.0000 0.96581  0.46772  0.59749  Biso   1.000  H
  H922     1.0000 0.94690  0.52058  0.62891  Biso   1.000  H
  H923     1.0000 0.59749  0.46579  0.96770  Biso   1.000  H
  H924     1.0000 0.62891  0.44692  0.02060  Biso   1.000  H
  C793     1.0000 0.13330  0.44139  0.11599  Biso   1.000  C
  H925     1.0000 0.15478  0.47128  0.12561  Biso   1.000  H
  C794     1.0000 0.14677  0.41117  0.07146  Biso   1.000  C
  C795     1.0000 0.08881  0.42856  0.14677  Biso   1.000  C
  C796     1.0000 0.19290  0.42523  0.03711  Biso   1.000  C
  C797     1.0000 0.11599  0.36668  0.05859  Biso   1.000  C
  C798     1.0000 0.05859  0.38403  0.13330  Biso   1.000  C
  C799     1.0000 0.07479  0.46291  0.19290  Biso   1.000  C
  N133     1.0000 0.22356  0.46467  0.04589  Biso   1.000  N
  H926     1.0000 0.19999  0.40339  0.00669  Biso   1.000  H
  H927     1.0000 0.12561  0.34520  0.02870  Biso   1.000  H
  C800     1.0000 0.07146  0.35321  0.08881  Biso   1.000  C
  H928     1.0000 0.02870  0.37441  0.15478  Biso   1.000  H
  N134     1.0000 0.03535  0.45409  0.22356  Biso   1.000  N
  H929     1.0000 0.09659  0.49329  0.19999  Biso   1.000  H
  C801     1.0000 0.26993  0.47229  0.01138  Biso   1.000  C
  C802     1.0000 0.03711  0.30708  0.07479  Biso   1.000  C
  C803     1.0000 0.02769  0.48860  0.26993  Biso   1.000  C
  C804     1.0000 0.31991  0.46359  0.04288  Biso   1.000  C
  H930     1.0000 0.26849  0.44571  0.98140  Biso   1.000  H
  C805     1.0000 0.26993  0.52771  0.98862  Biso   1.000  C
  N135     1.0000 0.04589  0.27646  0.03535  Biso   1.000  N
  H931     1.0000 0.00669  0.29999  0.09659  Biso   1.000  H
  H932     1.0000 0.05431  0.51862  0.26849  Biso   1.000  H
  C806     1.0000 0.03639  0.45710  0.31991  Biso   1.000  C
  C807     1.0000 0.97231  0.51140  0.26993  Biso   1.000  C
  H933     1.0000 0.31999  0.42660  0.05719  Biso   1.000  H
  H934     1.0000 0.32019  0.48860  0.07378  Biso   1.000  H
  C808     1.0000 0.37033  0.47221  0.00990  Biso   1.000  C
  H935     1.0000 0.26849  0.55429  0.01860  Biso   1.000  H
  N136     1.0000 0.22356  0.53533  0.95411  Biso   1.000  N
  C809     1.0000 0.31991  0.53641  0.95712  Biso   1.000  C
  C810     1.0000 0.01138  0.23009  0.02769  Biso   1.000  C
  H936     1.0000 0.07338  0.44279  0.31999  Biso   1.000  H
  H937     1.0000 0.01138  0.42620  0.32019  Biso   1.000  H
  C811     1.0000 0.02781  0.49008  0.37033  Biso   1.000  C
  N137     1.0000 0.96465  0.54591  0.22356  Biso   1.000  N
  H938     1.0000 0.94569  0.48138  0.26849  Biso   1.000  H
  C812     1.0000 0.96361  0.54290  0.31991  Biso   1.000  C
  H939     1.0000 0.40251  0.46579  0.03230  Biso   1.000  H
  H940     1.0000 0.37109  0.44692  0.97940  Biso   1.000  H
  C813     1.0000 0.37033  0.52779  0.99010  Biso   1.000  C
  C814     1.0000 0.19290  0.57477  0.96289  Biso   1.000  C
  H941     1.0000 0.31999  0.57340  0.94281  Biso   1.000  H
  H942     1.0000 0.32019  0.51140  0.92622  Biso   1.000  H
  C815     1.0000 0.04288  0.18007  0.03639  Biso   1.000  C
  C816     1.0000 0.98862  0.23009  0.97231  Biso   1.000  C
  H943     1.0000 0.98140  0.23149  0.05431  Biso   1.000  H
  H944     1.0000 0.03419  0.46772  0.40251  Biso   1.000  H
  H945     1.0000 0.05310  0.52058  0.37109  Biso   1.000  H
  C817     1.0000 0.97219  0.50992  0.37033  Biso   1.000  C
  C818     1.0000 0.92521  0.53709  0.19290  Biso   1.000  C
  H946     1.0000 0.92662  0.55721  0.31999  Biso   1.000  H
  H947     1.0000 0.98862  0.57380  0.32019  Biso   1.000  H
  H948     1.0000 0.37109  0.55308  0.02060  Biso   1.000  H
  H949     1.0000 0.40251  0.53421  0.96770  Biso   1.000  H
  C819     1.0000 0.14677  0.58883  0.92854  Biso   1.000  C
  H950     1.0000 0.19999  0.59661  0.99331  Biso   1.000  H
  H951     1.0000 0.05719  0.17999  0.07338  Biso   1.000  H
  H952     1.0000 0.07378  0.17979  0.01138  Biso   1.000  H
  C820     1.0000 0.00990  0.12965  0.02781  Biso   1.000  C
  N138     1.0000 0.95411  0.27646  0.96465  Biso   1.000  N
  C821     1.0000 0.95712  0.18007  0.96361  Biso   1.000  C
  H953     1.0000 0.01860  0.23149  0.94569  Biso   1.000  H
  H954     1.0000 0.96581  0.53228  0.40251  Biso   1.000  H
  H955     1.0000 0.94690  0.47942  0.37109  Biso   1.000  H
  C822     1.0000 0.91119  0.57144  0.14677  Biso   1.000  C
  H956     1.0000 0.90341  0.50671  0.19999  Biso   1.000  H
  C823     1.0000 0.13330  0.55861  0.88401  Biso   1.000  C
  C824     1.0000 0.11599  0.63332  0.94141  Biso   1.000  C
  H957     1.0000 0.03230  0.09751  0.03419  Biso   1.000  H
  C825     1.0000 0.99010  0.12965  0.97219  Biso   1.000  C
  H958     1.0000 0.97940  0.12889  0.05310  Biso   1.000  H
  C826     1.0000 0.96289  0.30708  0.92521  Biso   1.000  C
  H959     1.0000 0.94281  0.17999  0.92662  Biso   1.000  H
  H960     1.0000 0.92622  0.17979  0.98862  Biso   1.000  H
  C827     1.0000 0.94141  0.61597  0.13330  Biso   1.000  C
  C828     1.0000 0.86670  0.55861  0.11599  Biso   1.000  C
  H961     1.0000 0.15478  0.52872  0.87439  Biso   1.000  H
  C829     1.0000 0.08881  0.57144  0.85323  Biso   1.000  C
  H962     1.0000 0.12561  0.65480  0.97130  Biso   1.000  H
  C830     1.0000 0.07146  0.64679  0.91119  Biso   1.000  C
  H963     1.0000 0.96770  0.09751  0.96581  Biso   1.000  H
  H964     1.0000 0.02060  0.12889  0.94690  Biso   1.000  H
  C831     1.0000 0.92854  0.35321  0.91119  Biso   1.000  C
  H965     1.0000 0.99331  0.29999  0.90341  Biso   1.000  H
  H966     1.0000 0.97130  0.62559  0.15478  Biso   1.000  H
  C832     1.0000 0.92854  0.64679  0.08881  Biso   1.000  C
  H967     1.0000 0.84522  0.52872  0.12561  Biso   1.000  H
  C833     1.0000 0.85323  0.58883  0.07146  Biso   1.000  C
  C834     1.0000 0.05859  0.61597  0.86670  Biso   1.000  C
  C835     1.0000 0.07479  0.53709  0.80710  Biso   1.000  C
  C836     1.0000 0.03711  0.69292  0.92521  Biso   1.000  C
  C837     1.0000 0.88401  0.36668  0.94141  Biso   1.000  C
  C838     1.0000 0.94141  0.38403  0.86670  Biso   1.000  C
  C839     1.0000 0.88401  0.63332  0.05859  Biso   1.000  C
  C840     1.0000 0.96289  0.69292  0.07479  Biso   1.000  C
  C841     1.0000 0.80710  0.57477  0.03711  Biso   1.000  C
  H968     1.0000 0.02870  0.62559  0.84522  Biso   1.000  H
  N139     1.0000 0.03535  0.54591  0.77644  Biso   1.000  N
  H969     1.0000 0.09659  0.50671  0.80001  Biso   1.000  H
  N140     1.0000 0.04589  0.72354  0.96465  Biso   1.000  N
  H970     1.0000 0.00669  0.70001  0.90341  Biso   1.000  H
  H971     1.0000 0.87439  0.34520  0.97130  Biso   1.000  H
  C842     1.0000 0.85323  0.41117  0.92854  Biso   1.000  C
  H972     1.0000 0.97130  0.37441  0.84522  Biso   1.000  H
  C843     1.0000 0.91119  0.42856  0.85323  Biso   1.000  C
  H973     1.0000 0.87439  0.65480  0.02870  Biso   1.000  H
  N141     1.0000 0.95411  0.72354  0.03535  Biso   1.000  N
  H974     1.0000 0.99331  0.70001  0.09659  Biso   1.000  H
  N142     1.0000 0.77644  0.53533  0.04589  Biso   1.000  N
  H975     1.0000 0.80001  0.59661  0.00669  Biso   1.000  H
  C844     1.0000 0.02769  0.51140  0.73007  Biso   1.000  C
  C845     1.0000 0.01138  0.76991  0.97231  Biso   1.000  C
  C846     1.0000 0.86670  0.44139  0.88401  Biso   1.000  C
  C847     1.0000 0.80710  0.42523  0.96289  Biso   1.000  C
  C848     1.0000 0.92521  0.46291  0.80710  Biso   1.000  C
  C849     1.0000 0.98862  0.76991  0.02769  Biso   1.000  C
  C850     1.0000 0.73007  0.52771  0.01138  Biso   1.000  C
  C851     1.0000 0.97231  0.48860  0.73007  Biso   1.000  C
  H976     1.0000 0.05431  0.48138  0.73151  Biso   1.000  H
  C852     1.0000 0.03639  0.54290  0.68009  Biso   1.000  C
  H977     1.0000 0.98140  0.76851  0.94569  Biso   1.000  H
  C853     1.0000 0.04288  0.81993  0.96361  Biso   1.000  C
  H978     1.0000 0.84522  0.47128  0.87439  Biso   1.000  H
  N143     1.0000 0.77644  0.46467  0.95411  Biso   1.000  N
  H979     1.0000 0.80001  0.40339  0.99331  Biso   1.000  H
  N144     1.0000 0.96465  0.45409  0.77644  Biso   1.000  N
  H980     1.0000 0.90341  0.49329  0.80001  Biso   1.000  H
  H981     1.0000 0.01860  0.76851  0.05431  Biso   1.000  H
  C854     1.0000 0.95712  0.81993  0.03639  Biso   1.000  C
  H982     1.0000 0.73151  0.55429  0.98140  Biso   1.000  H
  C855     1.0000 0.73007  0.47229  0.98862  Biso   1.000  C
  C856     1.0000 0.68009  0.53641  0.04288  Biso   1.000  C
  H983     1.0000 0.94569  0.51862  0.73151  Biso   1.000  H
  C857     1.0000 0.96361  0.45710  0.68009  Biso   1.000  C
  H984     1.0000 0.07338  0.55721  0.68001  Biso   1.000  H
  H985     1.0000 0.01138  0.57380  0.67981  Biso   1.000  H
  C858     1.0000 0.02781  0.50992  0.62967  Biso   1.000  C
  H986     1.0000 0.05719  0.82001  0.92662  Biso   1.000  H
  H987     1.0000 0.07378  0.82021  0.98862  Biso   1.000  H
  C859     1.0000 0.00990  0.87035  0.97219  Biso   1.000  C
  H988     1.0000 0.94281  0.82001  0.07338  Biso   1.000  H
  H989     1.0000 0.92622  0.82021  0.01138  Biso   1.000  H
  C860     1.0000 0.99010  0.87035  0.02781  Biso   1.000  C
  C861     1.0000 0.68009  0.46359  0.95712  Biso   1.000  C
  H990     1.0000 0.73151  0.44571  0.01860  Biso   1.000  H
  H991     1.0000 0.68001  0.57340  0.05719  Biso   1.000  H
  H992     1.0000 0.67981  0.51140  0.07378  Biso   1.000  H
  C862     1.0000 0.62967  0.52779  0.00990  Biso   1.000  C
  H993     1.0000 0.92662  0.44279  0.68001  Biso   1.000  H
  H994     1.0000 0.98862  0.42620  0.67981  Biso   1.000  H
  C863     1.0000 0.97219  0.49008  0.62967  Biso   1.000  C
  H995     1.0000 0.03419  0.53228  0.59749  Biso   1.000  H
  H996     1.0000 0.05310  0.47942  0.62891  Biso   1.000  H
  H997     1.0000 0.97940  0.87111  0.94690  Biso   1.000  H
  H998     1.0000 0.03230  0.90249  0.96581  Biso   1.000  H
  H999     1.0000 0.02060  0.87111  0.05310  Biso   1.000  H
  H1000    1.0000 0.96770  0.90249  0.03419  Biso   1.000  H
  H1001    1.0000 0.68001  0.42660  0.94281  Biso   1.000  H
  H1002    1.0000 0.67981  0.48860  0.92622  Biso   1.000  H
  C864     1.0000 0.62967  0.47221  0.99010  Biso   1.000  C
  H1003    1.0000 0.62891  0.55308  0.97940  Biso   1.000  H
  H1004    1.0000 0.59749  0.53421  0.03230  Biso   1.000  H
  H1005    1.0000 0.96581  0.46772  0.59749  Biso   1.000  H
  H1006    1.0000 0.94690  0.52058  0.62891  Biso   1.000  H
  H1007    1.0000 0.59749  0.46579  0.96770  Biso   1.000  H
  H1008    1.0000 0.62891  0.44692  0.02060  Biso   1.000  H
  C865     1.0000 0.11599  0.13330  0.44139  Biso   1.000  C
  C866     1.0000 0.14677  0.08881  0.42856  Biso   1.000  C
  H1009    1.0000 0.12561  0.15478  0.47128  Biso   1.000  H
  C867     1.0000 0.07146  0.14677  0.41117  Biso   1.000  C
  C868     1.0000 0.13330  0.05859  0.38403  Biso   1.000  C
  C869     1.0000 0.19290  0.07479  0.46291  Biso   1.000  C
  C870     1.0000 0.05859  0.11599  0.36668  Biso   1.000  C
  C871     1.0000 0.03711  0.19290  0.42523  Biso   1.000  C
  H1010    1.0000 0.15478  0.02870  0.37441  Biso   1.000  H
  C872     1.0000 0.08881  0.07146  0.35321  Biso   1.000  C
  N145     1.0000 0.22356  0.03535  0.45409  Biso   1.000  N
  H1011    1.0000 0.19999  0.09659  0.49329  Biso   1.000  H
  H1012    1.0000 0.02870  0.12561  0.34520  Biso   1.000  H
  N146     1.0000 0.04589  0.22356  0.46467  Biso   1.000  N
  H1013    1.0000 0.00669  0.19999  0.40339  Biso   1.000  H
  C873     1.0000 0.07479  0.03711  0.30708  Biso   1.000  C
  C874     1.0000 0.26993  0.02769  0.48860  Biso   1.000  C
  C875     1.0000 0.01138  0.26993  0.47229  Biso   1.000  C
  N147     1.0000 0.03535  0.04589  0.27646  Biso   1.000  N
  H1014    1.0000 0.09659  0.00669  0.29999  Biso   1.000  H
  H1015    1.0000 0.26849  0.05431  0.51862  Biso   1.000  H
  C876     1.0000 0.31991  0.03639  0.45710  Biso   1.000  C
  C877     1.0000 0.26993  0.97231  0.51140  Biso   1.000  C
  C878     1.0000 0.04288  0.31991  0.46359  Biso   1.000  C
  H1016    1.0000 0.98140  0.26849  0.44571  Biso   1.000  H
  C879     1.0000 0.98862  0.26993  0.52771  Biso   1.000  C
  C880     1.0000 0.02769  0.01138  0.23009  Biso   1.000  C
  H1017    1.0000 0.31999  0.07338  0.44279  Biso   1.000  H
  H1018    1.0000 0.32019  0.01138  0.42620  Biso   1.000  H
  C881     1.0000 0.37033  0.02781  0.49008  Biso   1.000  C
  N148     1.0000 0.22356  0.96465  0.54591  Biso   1.000  N
  H1019    1.0000 0.26849  0.94569  0.48138  Biso   1.000  H
  C882     1.0000 0.31991  0.96361  0.54290  Biso   1.000  C
  H1020    1.0000 0.05719  0.31999  0.42660  Biso   1.000  H
  H1021    1.0000 0.07378  0.32019  0.48860  Biso   1.000  H
  C883     1.0000 0.00990  0.37033  0.47221  Biso   1.000  C
  H1022    1.0000 0.01860  0.26849  0.55429  Biso   1.000  H
  N149     1.0000 0.95411  0.22356  0.53533  Biso   1.000  N
  C884     1.0000 0.95712  0.31991  0.53641  Biso   1.000  C
  C885     1.0000 0.03639  0.04288  0.18007  Biso   1.000  C
  C886     1.0000 0.97231  0.98862  0.23009  Biso   1.000  C
  H1023    1.0000 0.05431  0.98140  0.23149  Biso   1.000  H
  H1024    1.0000 0.40251  0.03419  0.46772  Biso   1.000  H
  H1025    1.0000 0.37109  0.05310  0.52058  Biso   1.000  H
  C887     1.0000 0.37033  0.97219  0.50992  Biso   1.000  C
  C888     1.0000 0.19290  0.92521  0.53709  Biso   1.000  C
  H1026    1.0000 0.31999  0.92662  0.55721  Biso   1.000  H
  H1027    1.0000 0.32019  0.98862  0.57380  Biso   1.000  H
  H1028    1.0000 0.03230  0.40251  0.46579  Biso   1.000  H
  H1029    1.0000 0.97940  0.37109  0.44692  Biso   1.000  H
  C889     1.0000 0.99010  0.37033  0.52779  Biso   1.000  C
  C890     1.0000 0.96289  0.19290  0.57477  Biso   1.000  C
  H1030    1.0000 0.94281  0.31999  0.57340  Biso   1.000  H
  H1031    1.0000 0.92622  0.32019  0.51140  Biso   1.000  H
  H1032    1.0000 0.07338  0.05719  0.17999  Biso   1.000  H
  H1033    1.0000 0.01138  0.07378  0.17979  Biso   1.000  H
  C891     1.0000 0.02781  0.00990  0.12965  Biso   1.000  C
  N150     1.0000 0.96465  0.95411  0.27646  Biso   1.000  N
  C892     1.0000 0.96361  0.95712  0.18007  Biso   1.000  C
  H1034    1.0000 0.94569  0.01860  0.23149  Biso   1.000  H
  H1035    1.0000 0.40251  0.96581  0.53228  Biso   1.000  H
  H1036    1.0000 0.37109  0.94690  0.47942  Biso   1.000  H
  C893     1.0000 0.14677  0.91119  0.57144  Biso   1.000  C
  H1037    1.0000 0.19999  0.90341  0.50671  Biso   1.000  H
  H1038    1.0000 0.02060  0.37109  0.55308  Biso   1.000  H
  H1039    1.0000 0.96770  0.40251  0.53421  Biso   1.000  H
  C894     1.0000 0.92854  0.14677  0.58883  Biso   1.000  C
  H1040    1.0000 0.99331  0.19999  0.59661  Biso   1.000  H
  H1041    1.0000 0.03419  0.03230  0.09751  Biso   1.000  H
  C895     1.0000 0.97219  0.99010  0.12965  Biso   1.000  C
  H1042    1.0000 0.05310  0.97940  0.12889  Biso   1.000  H
  C896     1.0000 0.92521  0.96289  0.30708  Biso   1.000  C
  H1043    1.0000 0.92662  0.94281  0.17999  Biso   1.000  H
  H1044    1.0000 0.98862  0.92622  0.17979  Biso   1.000  H
  C897     1.0000 0.13330  0.94141  0.61597  Biso   1.000  C
  C898     1.0000 0.11599  0.86670  0.55861  Biso   1.000  C
  C899     1.0000 0.94141  0.11599  0.63332  Biso   1.000  C
  C900     1.0000 0.88401  0.13330  0.55861  Biso   1.000  C
  H1045    1.0000 0.96581  0.96770  0.09751  Biso   1.000  H
  H1046    1.0000 0.94690  0.02060  0.12889  Biso   1.000  H
  C901     1.0000 0.91119  0.92854  0.35321  Biso   1.000  C
  H1047    1.0000 0.90341  0.99331  0.29999  Biso   1.000  H
  H1048    1.0000 0.15478  0.97130  0.62559  Biso   1.000  H
  C902     1.0000 0.08881  0.92854  0.64679  Biso   1.000  C
  H1049    1.0000 0.12561  0.84522  0.52872  Biso   1.000  H
  C903     1.0000 0.07146  0.85323  0.58883  Biso   1.000  C
  H1050    1.0000 0.97130  0.12561  0.65480  Biso   1.000  H
  C904     1.0000 0.91119  0.07146  0.64679  Biso   1.000  C
  H1051    1.0000 0.87439  0.15478  0.52872  Biso   1.000  H
  C905     1.0000 0.85323  0.08881  0.57144  Biso   1.000  C
  C906     1.0000 0.94141  0.88401  0.36668  Biso   1.000  C
  C907     1.0000 0.86670  0.94141  0.38403  Biso   1.000  C
  C908     1.0000 0.05859  0.88401  0.63332  Biso   1.000  C
  C909     1.0000 0.07479  0.96289  0.69292  Biso   1.000  C
  C910     1.0000 0.03711  0.80710  0.57477  Biso   1.000  C
  C911     1.0000 0.92521  0.03711  0.69292  Biso   1.000  C
  C912     1.0000 0.86670  0.05859  0.61597  Biso   1.000  C
  C913     1.0000 0.80710  0.07479  0.53709  Biso   1.000  C
  C914     1.0000 0.92854  0.85323  0.41117  Biso   1.000  C
  H1052    1.0000 0.97130  0.87439  0.34520  Biso   1.000  H
  H1053    1.0000 0.84522  0.97130  0.37441  Biso   1.000  H
  C915     1.0000 0.85323  0.91119  0.42856  Biso   1.000  C
  H1054    1.0000 0.02870  0.87439  0.65480  Biso   1.000  H
  N151     1.0000 0.03535  0.95411  0.72354  Biso   1.000  N
  H1055    1.0000 0.09659  0.99331  0.70001  Biso   1.000  H
  N152     1.0000 0.04589  0.77644  0.53533  Biso   1.000  N
  H1056    1.0000 0.00669  0.80001  0.59661  Biso   1.000  H
  N153     1.0000 0.96465  0.04589  0.72354  Biso   1.000  N
  H1057    1.0000 0.90341  0.00669  0.70001  Biso   1.000  H
  H1058    1.0000 0.84522  0.02870  0.62559  Biso   1.000  H
  N154     1.0000 0.77644  0.03535  0.54591  Biso   1.000  N
  H1059    1.0000 0.80001  0.09659  0.50671  Biso   1.000  H
  C916     1.0000 0.88401  0.86670  0.44139  Biso   1.000  C
  C917     1.0000 0.96289  0.80710  0.42523  Biso   1.000  C
  C918     1.0000 0.80710  0.92521  0.46291  Biso   1.000  C
  C919     1.0000 0.02769  0.98862  0.76991  Biso   1.000  C
  C920     1.0000 0.01138  0.73007  0.52771  Biso   1.000  C
  C921     1.0000 0.97231  0.01138  0.76991  Biso   1.000  C
  C922     1.0000 0.73007  0.02769  0.51140  Biso   1.000  C
  H1060    1.0000 0.87439  0.84522  0.47128  Biso   1.000  H
  N155     1.0000 0.95411  0.77644  0.46467  Biso   1.000  N
  H1061    1.0000 0.99331  0.80001  0.40339  Biso   1.000  H
  N156     1.0000 0.77644  0.96465  0.45409  Biso   1.000  N
  H1062    1.0000 0.80001  0.90341  0.49329  Biso   1.000  H
  H1063    1.0000 0.05431  0.01860  0.76851  Biso   1.000  H
  C923     1.0000 0.03639  0.95712  0.81993  Biso   1.000  C
  C924     1.0000 0.98862  0.73007  0.47229  Biso   1.000  C
  H1064    1.0000 0.98140  0.73151  0.55429  Biso   1.000  H
  C925     1.0000 0.04288  0.68009  0.53641  Biso   1.000  C
  H1065    1.0000 0.94569  0.98140  0.76851  Biso   1.000  H
  C926     1.0000 0.96361  0.04288  0.81993  Biso   1.000  C
  C927     1.0000 0.73007  0.97231  0.48860  Biso   1.000  C
  H1066    1.0000 0.73151  0.05431  0.48138  Biso   1.000  H
  C928     1.0000 0.68009  0.03639  0.54290  Biso   1.000  C
  H1067    1.0000 0.07338  0.94281  0.82001  Biso   1.000  H
  H1068    1.0000 0.01138  0.92622  0.82021  Biso   1.000  H
  C929     1.0000 0.02781  0.99010  0.87035  Biso   1.000  C
  C930     1.0000 0.95712  0.68009  0.46359  Biso   1.000  C
  H1069    1.0000 0.01860  0.73151  0.44571  Biso   1.000  H
  H1070    1.0000 0.05719  0.68001  0.57340  Biso   1.000  H
  H1071    1.0000 0.07378  0.67981  0.51140  Biso   1.000  H
  C931     1.0000 0.00990  0.62967  0.52779  Biso   1.000  C
  H1072    1.0000 0.92662  0.05719  0.82001  Biso   1.000  H
  H1073    1.0000 0.98862  0.07378  0.82021  Biso   1.000  H
  C932     1.0000 0.97219  0.00990  0.87035  Biso   1.000  C
  H1074    1.0000 0.73151  0.94569  0.51862  Biso   1.000  H
  C933     1.0000 0.68009  0.96361  0.45710  Biso   1.000  C
  C934     1.0000 0.62967  0.02781  0.50992  Biso   1.000  C
  H1075    1.0000 0.68001  0.07338  0.55721  Biso   1.000  H
  H1076    1.0000 0.67981  0.01138  0.57380  Biso   1.000  H
  H1077    1.0000 0.05310  0.02060  0.87111  Biso   1.000  H
  H1078    1.0000 0.03419  0.96770  0.90249  Biso   1.000  H
  H1079    1.0000 0.94281  0.68001  0.42660  Biso   1.000  H
  H1080    1.0000 0.92622  0.67981  0.48860  Biso   1.000  H
  C935     1.0000 0.99010  0.62967  0.47221  Biso   1.000  C
  H1081    1.0000 0.97940  0.62891  0.55308  Biso   1.000  H
  H1082    1.0000 0.03230  0.59749  0.53421  Biso   1.000  H
  H1083    1.0000 0.94690  0.97940  0.87111  Biso   1.000  H
  H1084    1.0000 0.96581  0.03230  0.90249  Biso   1.000  H
  H1085    1.0000 0.68001  0.92662  0.44279  Biso   1.000  H
  H1086    1.0000 0.67981  0.98862  0.42620  Biso   1.000  H
  C936     1.0000 0.62967  0.97219  0.49008  Biso   1.000  C
  H1087    1.0000 0.59749  0.03419  0.53228  Biso   1.000  H
  H1088    1.0000 0.62891  0.05310  0.47942  Biso   1.000  H
  H1089    1.0000 0.96770  0.59749  0.46579  Biso   1.000  H
  H1090    1.0000 0.02060  0.62891  0.44692  Biso   1.000  H
  H1091    1.0000 0.59749  0.96581  0.46772  Biso   1.000  H
  H1092    1.0000 0.62891  0.94690  0.52058  Biso   1.000  H
  C937     1.0000 0.11599  0.13330  0.44139  Biso   1.000  C
  C938     1.0000 0.14677  0.08881  0.42856  Biso   1.000  C
  H1093    1.0000 0.12561  0.15478  0.47128  Biso   1.000  H
  C939     1.0000 0.07146  0.14677  0.41117  Biso   1.000  C
  C940     1.0000 0.13330  0.05859  0.38403  Biso   1.000  C
  C941     1.0000 0.19290  0.07479  0.46291  Biso   1.000  C
  C942     1.0000 0.05859  0.11599  0.36668  Biso   1.000  C
  C943     1.0000 0.03711  0.19290  0.42523  Biso   1.000  C
  H1094    1.0000 0.15478  0.02870  0.37441  Biso   1.000  H
  C944     1.0000 0.08881  0.07146  0.35321  Biso   1.000  C
  N157     1.0000 0.22356  0.03535  0.45409  Biso   1.000  N
  H1095    1.0000 0.19999  0.09659  0.49329  Biso   1.000  H
  H1096    1.0000 0.02870  0.12561  0.34520  Biso   1.000  H
  N158     1.0000 0.04589  0.22356  0.46467  Biso   1.000  N
  H1097    1.0000 0.00669  0.19999  0.40339  Biso   1.000  H
  C945     1.0000 0.07479  0.03711  0.30708  Biso   1.000  C
  C946     1.0000 0.26993  0.02769  0.48860  Biso   1.000  C
  C947     1.0000 0.01138  0.26993  0.47229  Biso   1.000  C
  N159     1.0000 0.03535  0.04589  0.27646  Biso   1.000  N
  H1098    1.0000 0.09659  0.00669  0.29999  Biso   1.000  H
  H1099    1.0000 0.26849  0.05431  0.51862  Biso   1.000  H
  C948     1.0000 0.31991  0.03639  0.45710  Biso   1.000  C
  C949     1.0000 0.26993  0.97231  0.51140  Biso   1.000  C
  C950     1.0000 0.04288  0.31991  0.46359  Biso   1.000  C
  H1100    1.0000 0.98140  0.26849  0.44571  Biso   1.000  H
  C951     1.0000 0.98862  0.26993  0.52771  Biso   1.000  C
  C952     1.0000 0.02769  0.01138  0.23009  Biso   1.000  C
  H1101    1.0000 0.31999  0.07338  0.44279  Biso   1.000  H
  H1102    1.0000 0.32019  0.01138  0.42620  Biso   1.000  H
  C953     1.0000 0.37033  0.02781  0.49008  Biso   1.000  C
  N160     1.0000 0.22356  0.96465  0.54591  Biso   1.000  N
  H1103    1.0000 0.26849  0.94569  0.48138  Biso   1.000  H
  C954     1.0000 0.31991  0.96361  0.54290  Biso   1.000  C
  H1104    1.0000 0.05719  0.31999  0.42660  Biso   1.000  H
  H1105    1.0000 0.07378  0.32019  0.48860  Biso   1.000  H
  C955     1.0000 0.00990  0.37033  0.47221  Biso   1.000  C
  H1106    1.0000 0.01860  0.26849  0.55429  Biso   1.000  H
  N161     1.0000 0.95411  0.22356  0.53533  Biso   1.000  N
  C956     1.0000 0.95712  0.31991  0.53641  Biso   1.000  C
  C957     1.0000 0.03639  0.04288  0.18007  Biso   1.000  C
  C958     1.0000 0.97231  0.98862  0.23009  Biso   1.000  C
  H1107    1.0000 0.05431  0.98140  0.23149  Biso   1.000  H
  H1108    1.0000 0.40251  0.03419  0.46772  Biso   1.000  H
  H1109    1.0000 0.37109  0.05310  0.52058  Biso   1.000  H
  C959     1.0000 0.37033  0.97219  0.50992  Biso   1.000  C
  C960     1.0000 0.19290  0.92521  0.53709  Biso   1.000  C
  H1110    1.0000 0.31999  0.92662  0.55721  Biso   1.000  H
  H1111    1.0000 0.32019  0.98862  0.57380  Biso   1.000  H
  H1112    1.0000 0.03230  0.40251  0.46579  Biso   1.000  H
  H1113    1.0000 0.97940  0.37109  0.44692  Biso   1.000  H
  C961     1.0000 0.99010  0.37033  0.52779  Biso   1.000  C
  C962     1.0000 0.96289  0.19290  0.57477  Biso   1.000  C
  H1114    1.0000 0.94281  0.31999  0.57340  Biso   1.000  H
  H1115    1.0000 0.92622  0.32019  0.51140  Biso   1.000  H
  H1116    1.0000 0.07338  0.05719  0.17999  Biso   1.000  H
  H1117    1.0000 0.01138  0.07378  0.17979  Biso   1.000  H
  C963     1.0000 0.02781  0.00990  0.12965  Biso   1.000  C
  N162     1.0000 0.96465  0.95411  0.27646  Biso   1.000  N
  C964     1.0000 0.96361  0.95712  0.18007  Biso   1.000  C
  H1118    1.0000 0.94569  0.01860  0.23149  Biso   1.000  H
  H1119    1.0000 0.40251  0.96581  0.53228  Biso   1.000  H
  H1120    1.0000 0.37109  0.94690  0.47942  Biso   1.000  H
  C965     1.0000 0.14677  0.91119  0.57144  Biso   1.000  C
  H1121    1.0000 0.19999  0.90341  0.50671  Biso   1.000  H
  H1122    1.0000 0.02060  0.37109  0.55308  Biso   1.000  H
  H1123    1.0000 0.96770  0.40251  0.53421  Biso   1.000  H
  C966     1.0000 0.92854  0.14677  0.58883  Biso   1.000  C
  H1124    1.0000 0.99331  0.19999  0.59661  Biso   1.000  H
  H1125    1.0000 0.03419  0.03230  0.09751  Biso   1.000  H
  C967     1.0000 0.97219  0.99010  0.12965  Biso   1.000  C
  H1126    1.0000 0.05310  0.97940  0.12889  Biso   1.000  H
  C968     1.0000 0.92521  0.96289  0.30708  Biso   1.000  C
  H1127    1.0000 0.92662  0.94281  0.17999  Biso   1.000  H
  H1128    1.0000 0.98862  0.92622  0.17979  Biso   1.000  H
  C969     1.0000 0.13330  0.94141  0.61597  Biso   1.000  C
  C970     1.0000 0.11599  0.86670  0.55861  Biso   1.000  C
  C971     1.0000 0.94141  0.11599  0.63332  Biso   1.000  C
  C972     1.0000 0.88401  0.13330  0.55861  Biso   1.000  C
  H1129    1.0000 0.96581  0.96770  0.09751  Biso   1.000  H
  H1130    1.0000 0.94690  0.02060  0.12889  Biso   1.000  H
  C973     1.0000 0.91119  0.92854  0.35321  Biso   1.000  C
  H1131    1.0000 0.90341  0.99331  0.29999  Biso   1.000  H
  H1132    1.0000 0.15478  0.97130  0.62559  Biso   1.000  H
  C974     1.0000 0.08881  0.92854  0.64679  Biso   1.000  C
  H1133    1.0000 0.12561  0.84522  0.52872  Biso   1.000  H
  C975     1.0000 0.07146  0.85323  0.58883  Biso   1.000  C
  H1134    1.0000 0.97130  0.12561  0.65480  Biso   1.000  H
  C976     1.0000 0.91119  0.07146  0.64679  Biso   1.000  C
  H1135    1.0000 0.87439  0.15478  0.52872  Biso   1.000  H
  C977     1.0000 0.85323  0.08881  0.57144  Biso   1.000  C
  C978     1.0000 0.94141  0.88401  0.36668  Biso   1.000  C
  C979     1.0000 0.86670  0.94141  0.38403  Biso   1.000  C
  C980     1.0000 0.05859  0.88401  0.63332  Biso   1.000  C
  C981     1.0000 0.07479  0.96289  0.69292  Biso   1.000  C
  C982     1.0000 0.03711  0.80710  0.57477  Biso   1.000  C
  C983     1.0000 0.92521  0.03711  0.69292  Biso   1.000  C
  C984     1.0000 0.86670  0.05859  0.61597  Biso   1.000  C
  C985     1.0000 0.80710  0.07479  0.53709  Biso   1.000  C
  C986     1.0000 0.92854  0.85323  0.41117  Biso   1.000  C
  H1136    1.0000 0.97130  0.87439  0.34520  Biso   1.000  H
  H1137    1.0000 0.84522  0.97130  0.37441  Biso   1.000  H
  C987     1.0000 0.85323  0.91119  0.42856  Biso   1.000  C
  H1138    1.0000 0.02870  0.87439  0.65480  Biso   1.000  H
  N163     1.0000 0.03535  0.95411  0.72354  Biso   1.000  N
  H1139    1.0000 0.09659  0.99331  0.70001  Biso   1.000  H
  N164     1.0000 0.04589  0.77644  0.53533  Biso   1.000  N
  H1140    1.0000 0.00669  0.80001  0.59661  Biso   1.000  H
  N165     1.0000 0.96465  0.04589  0.72354  Biso   1.000  N
  H1141    1.0000 0.90341  0.00669  0.70001  Biso   1.000  H
  H1142    1.0000 0.84522  0.02870  0.62559  Biso   1.000  H
  N166     1.0000 0.77644  0.03535  0.54591  Biso   1.000  N
  H1143    1.0000 0.80001  0.09659  0.50671  Biso   1.000  H
  C988     1.0000 0.88401  0.86670  0.44139  Biso   1.000  C
  C989     1.0000 0.96289  0.80710  0.42523  Biso   1.000  C
  C990     1.0000 0.80710  0.92521  0.46291  Biso   1.000  C
  C991     1.0000 0.02769  0.98862  0.76991  Biso   1.000  C
  C992     1.0000 0.01138  0.73007  0.52771  Biso   1.000  C
  C993     1.0000 0.97231  0.01138  0.76991  Biso   1.000  C
  C994     1.0000 0.73007  0.02769  0.51140  Biso   1.000  C
  H1144    1.0000 0.87439  0.84522  0.47128  Biso   1.000  H
  N167     1.0000 0.95411  0.77644  0.46467  Biso   1.000  N
  H1145    1.0000 0.99331  0.80001  0.40339  Biso   1.000  H
  N168     1.0000 0.77644  0.96465  0.45409  Biso   1.000  N
  H1146    1.0000 0.80001  0.90341  0.49329  Biso   1.000  H
  H1147    1.0000 0.05431  0.01860  0.76851  Biso   1.000  H
  C995     1.0000 0.03639  0.95712  0.81993  Biso   1.000  C
  C996     1.0000 0.98862  0.73007  0.47229  Biso   1.000  C
  H1148    1.0000 0.98140  0.73151  0.55429  Biso   1.000  H
  C997     1.0000 0.04288  0.68009  0.53641  Biso   1.000  C
  H1149    1.0000 0.94569  0.98140  0.76851  Biso   1.000  H
  C998     1.0000 0.96361  0.04288  0.81993  Biso   1.000  C
  C999     1.0000 0.73007  0.97231  0.48860  Biso   1.000  C
  H1150    1.0000 0.73151  0.05431  0.48138  Biso   1.000  H
  C1000    1.0000 0.68009  0.03639  0.54290  Biso   1.000  C
  H1151    1.0000 0.07338  0.94281  0.82001  Biso   1.000  H
  H1152    1.0000 0.01138  0.92622  0.82021  Biso   1.000  H
  C1001    1.0000 0.02781  0.99010  0.87035  Biso   1.000  C
  C1002    1.0000 0.95712  0.68009  0.46359  Biso   1.000  C
  H1153    1.0000 0.01860  0.73151  0.44571  Biso   1.000  H
  H1154    1.0000 0.05719  0.68001  0.57340  Biso   1.000  H
  H1155    1.0000 0.07378  0.67981  0.51140  Biso   1.000  H
  C1003    1.0000 0.00990  0.62967  0.52779  Biso   1.000  C
  H1156    1.0000 0.92662  0.05719  0.82001  Biso   1.000  H
  H1157    1.0000 0.98862  0.07378  0.82021  Biso   1.000  H
  C1004    1.0000 0.97219  0.00990  0.87035  Biso   1.000  C
  H1158    1.0000 0.73151  0.94569  0.51862  Biso   1.000  H
  C1005    1.0000 0.68009  0.96361  0.45710  Biso   1.000  C
  C1006    1.0000 0.62967  0.02781  0.50992  Biso   1.000  C
  H1159    1.0000 0.68001  0.07338  0.55721  Biso   1.000  H
  H1160    1.0000 0.67981  0.01138  0.57380  Biso   1.000  H
  H1161    1.0000 0.05310  0.02060  0.87111  Biso   1.000  H
  H1162    1.0000 0.03419  0.96770  0.90249  Biso   1.000  H
  H1163    1.0000 0.94281  0.68001  0.42660  Biso   1.000  H
  H1164    1.0000 0.92622  0.67981  0.48860  Biso   1.000  H
  C1007    1.0000 0.99010  0.62967  0.47221  Biso   1.000  C
  H1165    1.0000 0.97940  0.62891  0.55308  Biso   1.000  H
  H1166    1.0000 0.03230  0.59749  0.53421  Biso   1.000  H
  H1167    1.0000 0.94690  0.97940  0.87111  Biso   1.000  H
  H1168    1.0000 0.96581  0.03230  0.90249  Biso   1.000  H
  H1169    1.0000 0.68001  0.92662  0.44279  Biso   1.000  H
  H1170    1.0000 0.67981  0.98862  0.42620  Biso   1.000  H
  C1008    1.0000 0.62967  0.97219  0.49008  Biso   1.000  C
  H1171    1.0000 0.59749  0.03419  0.53228  Biso   1.000  H
  H1172    1.0000 0.62891  0.05310  0.47942  Biso   1.000  H
  H1173    1.0000 0.96770  0.59749  0.46579  Biso   1.000  H
  H1174    1.0000 0.02060  0.62891  0.44692  Biso   1.000  H
  H1175    1.0000 0.59749  0.96581  0.46772  Biso   1.000  H
  H1176    1.0000 0.62891  0.94690  0.52058  Biso   1.000  H
  C1009    1.0000 0.11599  0.13330  0.44139  Biso   1.000  C
  C1010    1.0000 0.14677  0.08881  0.42856  Biso   1.000  C
  H1177    1.0000 0.12561  0.15478  0.47128  Biso   1.000  H
  C1011    1.0000 0.07146  0.14677  0.41117  Biso   1.000  C
  C1012    1.0000 0.13330  0.05859  0.38403  Biso   1.000  C
  C1013    1.0000 0.19290  0.07479  0.46291  Biso   1.000  C
  C1014    1.0000 0.05859  0.11599  0.36668  Biso   1.000  C
  C1015    1.0000 0.03711  0.19290  0.42523  Biso   1.000  C
  H1178    1.0000 0.15478  0.02870  0.37441  Biso   1.000  H
  C1016    1.0000 0.08881  0.07146  0.35321  Biso   1.000  C
  N169     1.0000 0.22356  0.03535  0.45409  Biso   1.000  N
  H1179    1.0000 0.19999  0.09659  0.49329  Biso   1.000  H
  H1180    1.0000 0.02870  0.12561  0.34520  Biso   1.000  H
  N170     1.0000 0.04589  0.22356  0.46467  Biso   1.000  N
  H1181    1.0000 0.00669  0.19999  0.40339  Biso   1.000  H
  C1017    1.0000 0.07479  0.03711  0.30708  Biso   1.000  C
  C1018    1.0000 0.26993  0.02769  0.48860  Biso   1.000  C
  C1019    1.0000 0.01138  0.26993  0.47229  Biso   1.000  C
  N171     1.0000 0.03535  0.04589  0.27646  Biso   1.000  N
  H1182    1.0000 0.09659  0.00669  0.29999  Biso   1.000  H
  H1183    1.0000 0.26849  0.05431  0.51862  Biso   1.000  H
  C1020    1.0000 0.31991  0.03639  0.45710  Biso   1.000  C
  C1021    1.0000 0.26993  0.97231  0.51140  Biso   1.000  C
  C1022    1.0000 0.04288  0.31991  0.46359  Biso   1.000  C
  H1184    1.0000 0.98140  0.26849  0.44571  Biso   1.000  H
  C1023    1.0000 0.98862  0.26993  0.52771  Biso   1.000  C
  C1024    1.0000 0.02769  0.01138  0.23009  Biso   1.000  C
  H1185    1.0000 0.31999  0.07338  0.44279  Biso   1.000  H
  H1186    1.0000 0.32019  0.01138  0.42620  Biso   1.000  H
  C1025    1.0000 0.37033  0.02781  0.49008  Biso   1.000  C
  N172     1.0000 0.22356  0.96465  0.54591  Biso   1.000  N
  H1187    1.0000 0.26849  0.94569  0.48138  Biso   1.000  H
  C1026    1.0000 0.31991  0.96361  0.54290  Biso   1.000  C
  H1188    1.0000 0.05719  0.31999  0.42660  Biso   1.000  H
  H1189    1.0000 0.07378  0.32019  0.48860  Biso   1.000  H
  C1027    1.0000 0.00990  0.37033  0.47221  Biso   1.000  C
  H1190    1.0000 0.01860  0.26849  0.55429  Biso   1.000  H
  N173     1.0000 0.95411  0.22356  0.53533  Biso   1.000  N
  C1028    1.0000 0.95712  0.31991  0.53641  Biso   1.000  C
  C1029    1.0000 0.03639  0.04288  0.18007  Biso   1.000  C
  C1030    1.0000 0.97231  0.98862  0.23009  Biso   1.000  C
  H1191    1.0000 0.05431  0.98140  0.23149  Biso   1.000  H
  H1192    1.0000 0.40251  0.03419  0.46772  Biso   1.000  H
  H1193    1.0000 0.37109  0.05310  0.52058  Biso   1.000  H
  C1031    1.0000 0.37033  0.97219  0.50992  Biso   1.000  C
  C1032    1.0000 0.19290  0.92521  0.53709  Biso   1.000  C
  H1194    1.0000 0.31999  0.92662  0.55721  Biso   1.000  H
  H1195    1.0000 0.32019  0.98862  0.57380  Biso   1.000  H
  H1196    1.0000 0.03230  0.40251  0.46579  Biso   1.000  H
  H1197    1.0000 0.97940  0.37109  0.44692  Biso   1.000  H
  C1033    1.0000 0.99010  0.37033  0.52779  Biso   1.000  C
  C1034    1.0000 0.96289  0.19290  0.57477  Biso   1.000  C
  H1198    1.0000 0.94281  0.31999  0.57340  Biso   1.000  H
  H1199    1.0000 0.92622  0.32019  0.51140  Biso   1.000  H
  H1200    1.0000 0.07338  0.05719  0.17999  Biso   1.000  H
  H1201    1.0000 0.01138  0.07378  0.17979  Biso   1.000  H
  C1035    1.0000 0.02781  0.00990  0.12965  Biso   1.000  C
  N174     1.0000 0.96465  0.95411  0.27646  Biso   1.000  N
  C1036    1.0000 0.96361  0.95712  0.18007  Biso   1.000  C
  H1202    1.0000 0.94569  0.01860  0.23149  Biso   1.000  H
  H1203    1.0000 0.40251  0.96581  0.53228  Biso   1.000  H
  H1204    1.0000 0.37109  0.94690  0.47942  Biso   1.000  H
  C1037    1.0000 0.14677  0.91119  0.57144  Biso   1.000  C
  H1205    1.0000 0.19999  0.90341  0.50671  Biso   1.000  H
  H1206    1.0000 0.02060  0.37109  0.55308  Biso   1.000  H
  H1207    1.0000 0.96770  0.40251  0.53421  Biso   1.000  H
  C1038    1.0000 0.92854  0.14677  0.58883  Biso   1.000  C
  H1208    1.0000 0.99331  0.19999  0.59661  Biso   1.000  H
  H1209    1.0000 0.03419  0.03230  0.09751  Biso   1.000  H
  C1039    1.0000 0.97219  0.99010  0.12965  Biso   1.000  C
  H1210    1.0000 0.05310  0.97940  0.12889  Biso   1.000  H
  C1040    1.0000 0.92521  0.96289  0.30708  Biso   1.000  C
  H1211    1.0000 0.92662  0.94281  0.17999  Biso   1.000  H
  H1212    1.0000 0.98862  0.92622  0.17979  Biso   1.000  H
  C1041    1.0000 0.13330  0.94141  0.61597  Biso   1.000  C
  C1042    1.0000 0.11599  0.86670  0.55861  Biso   1.000  C
  C1043    1.0000 0.94141  0.11599  0.63332  Biso   1.000  C
  C1044    1.0000 0.88401  0.13330  0.55861  Biso   1.000  C
  H1213    1.0000 0.96581  0.96770  0.09751  Biso   1.000  H
  H1214    1.0000 0.94690  0.02060  0.12889  Biso   1.000  H
  C1045    1.0000 0.91119  0.92854  0.35321  Biso   1.000  C
  H1215    1.0000 0.90341  0.99331  0.29999  Biso   1.000  H
  H1216    1.0000 0.15478  0.97130  0.62559  Biso   1.000  H
  C1046    1.0000 0.08881  0.92854  0.64679  Biso   1.000  C
  H1217    1.0000 0.12561  0.84522  0.52872  Biso   1.000  H
  C1047    1.0000 0.07146  0.85323  0.58883  Biso   1.000  C
  H1218    1.0000 0.97130  0.12561  0.65480  Biso   1.000  H
  C1048    1.0000 0.91119  0.07146  0.64679  Biso   1.000  C
  H1219    1.0000 0.87439  0.15478  0.52872  Biso   1.000  H
  C1049    1.0000 0.85323  0.08881  0.57144  Biso   1.000  C
  C1050    1.0000 0.94141  0.88401  0.36668  Biso   1.000  C
  C1051    1.0000 0.86670  0.94141  0.38403  Biso   1.000  C
  C1052    1.0000 0.05859  0.88401  0.63332  Biso   1.000  C
  C1053    1.0000 0.07479  0.96289  0.69292  Biso   1.000  C
  C1054    1.0000 0.03711  0.80710  0.57477  Biso   1.000  C
  C1055    1.0000 0.92521  0.03711  0.69292  Biso   1.000  C
  C1056    1.0000 0.86670  0.05859  0.61597  Biso   1.000  C
  C1057    1.0000 0.80710  0.07479  0.53709  Biso   1.000  C
  C1058    1.0000 0.92854  0.85323  0.41117  Biso   1.000  C
  H1220    1.0000 0.97130  0.87439  0.34520  Biso   1.000  H
  H1221    1.0000 0.84522  0.97130  0.37441  Biso   1.000  H
  C1059    1.0000 0.85323  0.91119  0.42856  Biso   1.000  C
  H1222    1.0000 0.02870  0.87439  0.65480  Biso   1.000  H
  N175     1.0000 0.03535  0.95411  0.72354  Biso   1.000  N
  H1223    1.0000 0.09659  0.99331  0.70001  Biso   1.000  H
  N176     1.0000 0.04589  0.77644  0.53533  Biso   1.000  N
  H1224    1.0000 0.00669  0.80001  0.59661  Biso   1.000  H
  N177     1.0000 0.96465  0.04589  0.72354  Biso   1.000  N
  H1225    1.0000 0.90341  0.00669  0.70001  Biso   1.000  H
  H1226    1.0000 0.84522  0.02870  0.62559  Biso   1.000  H
  N178     1.0000 0.77644  0.03535  0.54591  Biso   1.000  N
  H1227    1.0000 0.80001  0.09659  0.50671  Biso   1.000  H
  C1060    1.0000 0.88401  0.86670  0.44139  Biso   1.000  C
  C1061    1.0000 0.96289  0.80710  0.42523  Biso   1.000  C
  C1062    1.0000 0.80710  0.92521  0.46291  Biso   1.000  C
  C1063    1.0000 0.02769  0.98862  0.76991  Biso   1.000  C
  C1064    1.0000 0.01138  0.73007  0.52771  Biso   1.000  C
  C1065    1.0000 0.97231  0.01138  0.76991  Biso   1.000  C
  C1066    1.0000 0.73007  0.02769  0.51140  Biso   1.000  C
  H1228    1.0000 0.87439  0.84522  0.47128  Biso   1.000  H
  N179     1.0000 0.95411  0.77644  0.46467  Biso   1.000  N
  H1229    1.0000 0.99331  0.80001  0.40339  Biso   1.000  H
  N180     1.0000 0.77644  0.96465  0.45409  Biso   1.000  N
  H1230    1.0000 0.80001  0.90341  0.49329  Biso   1.000  H
  H1231    1.0000 0.05431  0.01860  0.76851  Biso   1.000  H
  C1067    1.0000 0.03639  0.95712  0.81993  Biso   1.000  C
  C1068    1.0000 0.98862  0.73007  0.47229  Biso   1.000  C
  H1232    1.0000 0.98140  0.73151  0.55429  Biso   1.000  H
  C1069    1.0000 0.04288  0.68009  0.53641  Biso   1.000  C
  H1233    1.0000 0.94569  0.98140  0.76851  Biso   1.000  H
  C1070    1.0000 0.96361  0.04288  0.81993  Biso   1.000  C
  C1071    1.0000 0.73007  0.97231  0.48860  Biso   1.000  C
  H1234    1.0000 0.73151  0.05431  0.48138  Biso   1.000  H
  C1072    1.0000 0.68009  0.03639  0.54290  Biso   1.000  C
  H1235    1.0000 0.07338  0.94281  0.82001  Biso   1.000  H
  H1236    1.0000 0.01138  0.92622  0.82021  Biso   1.000  H
  C1073    1.0000 0.02781  0.99010  0.87035  Biso   1.000  C
  C1074    1.0000 0.95712  0.68009  0.46359  Biso   1.000  C
  H1237    1.0000 0.01860  0.73151  0.44571  Biso   1.000  H
  H1238    1.0000 0.05719  0.68001  0.57340  Biso   1.000  H
  H1239    1.0000 0.07378  0.67981  0.51140  Biso   1.000  H
  C1075    1.0000 0.00990  0.62967  0.52779  Biso   1.000  C
  H1240    1.0000 0.92662  0.05719  0.82001  Biso   1.000  H
  H1241    1.0000 0.98862  0.07378  0.82021  Biso   1.000  H
  C1076    1.0000 0.97219  0.00990  0.87035  Biso   1.000  C
  H1242    1.0000 0.73151  0.94569  0.51862  Biso   1.000  H
  C1077    1.0000 0.68009  0.96361  0.45710  Biso   1.000  C
  C1078    1.0000 0.62967  0.02781  0.50992  Biso   1.000  C
  H1243    1.0000 0.68001  0.07338  0.55721  Biso   1.000  H
  H1244    1.0000 0.67981  0.01138  0.57380  Biso   1.000  H
  H1245    1.0000 0.05310  0.02060  0.87111  Biso   1.000  H
  H1246    1.0000 0.03419  0.96770  0.90249  Biso   1.000  H
  H1247    1.0000 0.94281  0.68001  0.42660  Biso   1.000  H
  H1248    1.0000 0.92622  0.67981  0.48860  Biso   1.000  H
  C1079    1.0000 0.99010  0.62967  0.47221  Biso   1.000  C
  H1249    1.0000 0.97940  0.62891  0.55308  Biso   1.000  H
  H1250    1.0000 0.03230  0.59749  0.53421  Biso   1.000  H
  H1251    1.0000 0.94690  0.97940  0.87111  Biso   1.000  H
  H1252    1.0000 0.96581  0.03230  0.90249  Biso   1.000  H
  H1253    1.0000 0.68001  0.92662  0.44279  Biso   1.000  H
  H1254    1.0000 0.67981  0.98862  0.42620  Biso   1.000  H
  C1080    1.0000 0.62967  0.97219  0.49008  Biso   1.000  C
  H1255    1.0000 0.59749  0.03419  0.53228  Biso   1.000  H
  H1256    1.0000 0.62891  0.05310  0.47942  Biso   1.000  H
  H1257    1.0000 0.96770  0.59749  0.46579  Biso   1.000  H
  H1258    1.0000 0.02060  0.62891  0.44692  Biso   1.000  H
  H1259    1.0000 0.59749  0.96581  0.46772  Biso   1.000  H
  H1260    1.0000 0.62891  0.94690  0.52058  Biso   1.000  H
  C1081    1.0000 0.11599  0.13330  0.44139  Biso   1.000  C
  C1082    1.0000 0.14677  0.08881  0.42856  Biso   1.000  C
  H1261    1.0000 0.12561  0.15478  0.47128  Biso   1.000  H
  C1083    1.0000 0.07146  0.14677  0.41117  Biso   1.000  C
  C1084    1.0000 0.13330  0.05859  0.38403  Biso   1.000  C
  C1085    1.0000 0.19290  0.07479  0.46291  Biso   1.000  C
  C1086    1.0000 0.05859  0.11599  0.36668  Biso   1.000  C
  C1087    1.0000 0.03711  0.19290  0.42523  Biso   1.000  C
  H1262    1.0000 0.15478  0.02870  0.37441  Biso   1.000  H
  C1088    1.0000 0.08881  0.07146  0.35321  Biso   1.000  C
  N181     1.0000 0.22356  0.03535  0.45409  Biso   1.000  N
  H1263    1.0000 0.19999  0.09659  0.49329  Biso   1.000  H
  H1264    1.0000 0.02870  0.12561  0.34520  Biso   1.000  H
  N182     1.0000 0.04589  0.22356  0.46467  Biso   1.000  N
  H1265    1.0000 0.00669  0.19999  0.40339  Biso   1.000  H
  C1089    1.0000 0.07479  0.03711  0.30708  Biso   1.000  C
  C1090    1.0000 0.26993  0.02769  0.48860  Biso   1.000  C
  C1091    1.0000 0.01138  0.26993  0.47229  Biso   1.000  C
  N183     1.0000 0.03535  0.04589  0.27646  Biso   1.000  N
  H1266    1.0000 0.09659  0.00669  0.29999  Biso   1.000  H
  H1267    1.0000 0.26849  0.05431  0.51862  Biso   1.000  H
  C1092    1.0000 0.31991  0.03639  0.45710  Biso   1.000  C
  C1093    1.0000 0.26993  0.97231  0.51140  Biso   1.000  C
  C1094    1.0000 0.04288  0.31991  0.46359  Biso   1.000  C
  H1268    1.0000 0.98140  0.26849  0.44571  Biso   1.000  H
  C1095    1.0000 0.98862  0.26993  0.52771  Biso   1.000  C
  C1096    1.0000 0.02769  0.01138  0.23009  Biso   1.000  C
  H1269    1.0000 0.31999  0.07338  0.44279  Biso   1.000  H
  H1270    1.0000 0.32019  0.01138  0.42620  Biso   1.000  H
  C1097    1.0000 0.37033  0.02781  0.49008  Biso   1.000  C
  N184     1.0000 0.22356  0.96465  0.54591  Biso   1.000  N
  H1271    1.0000 0.26849  0.94569  0.48138  Biso   1.000  H
  C1098    1.0000 0.31991  0.96361  0.54290  Biso   1.000  C
  H1272    1.0000 0.05719  0.31999  0.42660  Biso   1.000  H
  H1273    1.0000 0.07378  0.32019  0.48860  Biso   1.000  H
  C1099    1.0000 0.00990  0.37033  0.47221  Biso   1.000  C
  H1274    1.0000 0.01860  0.26849  0.55429  Biso   1.000  H
  N185     1.0000 0.95411  0.22356  0.53533  Biso   1.000  N
  C1100    1.0000 0.95712  0.31991  0.53641  Biso   1.000  C
  C1101    1.0000 0.03639  0.04288  0.18007  Biso   1.000  C
  C1102    1.0000 0.97231  0.98862  0.23009  Biso   1.000  C
  H1275    1.0000 0.05431  0.98140  0.23149  Biso   1.000  H
  H1276    1.0000 0.40251  0.03419  0.46772  Biso   1.000  H
  H1277    1.0000 0.37109  0.05310  0.52058  Biso   1.000  H
  C1103    1.0000 0.37033  0.97219  0.50992  Biso   1.000  C
  C1104    1.0000 0.19290  0.92521  0.53709  Biso   1.000  C
  H1278    1.0000 0.31999  0.92662  0.55721  Biso   1.000  H
  H1279    1.0000 0.32019  0.98862  0.57380  Biso   1.000  H
  H1280    1.0000 0.03230  0.40251  0.46579  Biso   1.000  H
  H1281    1.0000 0.97940  0.37109  0.44692  Biso   1.000  H
  C1105    1.0000 0.99010  0.37033  0.52779  Biso   1.000  C
  C1106    1.0000 0.96289  0.19290  0.57477  Biso   1.000  C
  H1282    1.0000 0.94281  0.31999  0.57340  Biso   1.000  H
  H1283    1.0000 0.92622  0.32019  0.51140  Biso   1.000  H
  H1284    1.0000 0.07338  0.05719  0.17999  Biso   1.000  H
  H1285    1.0000 0.01138  0.07378  0.17979  Biso   1.000  H
  C1107    1.0000 0.02781  0.00990  0.12965  Biso   1.000  C
  N186     1.0000 0.96465  0.95411  0.27646  Biso   1.000  N
  C1108    1.0000 0.96361  0.95712  0.18007  Biso   1.000  C
  H1286    1.0000 0.94569  0.01860  0.23149  Biso   1.000  H
  H1287    1.0000 0.40251  0.96581  0.53228  Biso   1.000  H
  H1288    1.0000 0.37109  0.94690  0.47942  Biso   1.000  H
  C1109    1.0000 0.14677  0.91119  0.57144  Biso   1.000  C
  H1289    1.0000 0.19999  0.90341  0.50671  Biso   1.000  H
  H1290    1.0000 0.02060  0.37109  0.55308  Biso   1.000  H
  H1291    1.0000 0.96770  0.40251  0.53421  Biso   1.000  H
  C1110    1.0000 0.92854  0.14677  0.58883  Biso   1.000  C
  H1292    1.0000 0.99331  0.19999  0.59661  Biso   1.000  H
  H1293    1.0000 0.03419  0.03230  0.09751  Biso   1.000  H
  C1111    1.0000 0.97219  0.99010  0.12965  Biso   1.000  C
  H1294    1.0000 0.05310  0.97940  0.12889  Biso   1.000  H
  C1112    1.0000 0.92521  0.96289  0.30708  Biso   1.000  C
  H1295    1.0000 0.92662  0.94281  0.17999  Biso   1.000  H
  H1296    1.0000 0.98862  0.92622  0.17979  Biso   1.000  H
  C1113    1.0000 0.13330  0.94141  0.61597  Biso   1.000  C
  C1114    1.0000 0.11599  0.86670  0.55861  Biso   1.000  C
  C1115    1.0000 0.94141  0.11599  0.63332  Biso   1.000  C
  C1116    1.0000 0.88401  0.13330  0.55861  Biso   1.000  C
  H1297    1.0000 0.96581  0.96770  0.09751  Biso   1.000  H
  H1298    1.0000 0.94690  0.02060  0.12889  Biso   1.000  H
  C1117    1.0000 0.91119  0.92854  0.35321  Biso   1.000  C
  H1299    1.0000 0.90341  0.99331  0.29999  Biso   1.000  H
  H1300    1.0000 0.15478  0.97130  0.62559  Biso   1.000  H
  C1118    1.0000 0.08881  0.92854  0.64679  Biso   1.000  C
  H1301    1.0000 0.12561  0.84522  0.52872  Biso   1.000  H
  C1119    1.0000 0.07146  0.85323  0.58883  Biso   1.000  C
  H1302    1.0000 0.97130  0.12561  0.65480  Biso   1.000  H
  C1120    1.0000 0.91119  0.07146  0.64679  Biso   1.000  C
  H1303    1.0000 0.87439  0.15478  0.52872  Biso   1.000  H
  C1121    1.0000 0.85323  0.08881  0.57144  Biso   1.000  C
  C1122    1.0000 0.94141  0.88401  0.36668  Biso   1.000  C
  C1123    1.0000 0.86670  0.94141  0.38403  Biso   1.000  C
  C1124    1.0000 0.05859  0.88401  0.63332  Biso   1.000  C
  C1125    1.0000 0.07479  0.96289  0.69292  Biso   1.000  C
  C1126    1.0000 0.03711  0.80710  0.57477  Biso   1.000  C
  C1127    1.0000 0.92521  0.03711  0.69292  Biso   1.000  C
  C1128    1.0000 0.86670  0.05859  0.61597  Biso   1.000  C
  C1129    1.0000 0.80710  0.07479  0.53709  Biso   1.000  C
  C1130    1.0000 0.92854  0.85323  0.41117  Biso   1.000  C
  H1304    1.0000 0.97130  0.87439  0.34520  Biso   1.000  H
  H1305    1.0000 0.84522  0.97130  0.37441  Biso   1.000  H
  C1131    1.0000 0.85323  0.91119  0.42856  Biso   1.000  C
  H1306    1.0000 0.02870  0.87439  0.65480  Biso   1.000  H
  N187     1.0000 0.03535  0.95411  0.72354  Biso   1.000  N
  H1307    1.0000 0.09659  0.99331  0.70001  Biso   1.000  H
  N188     1.0000 0.04589  0.77644  0.53533  Biso   1.000  N
  H1308    1.0000 0.00669  0.80001  0.59661  Biso   1.000  H
  N189     1.0000 0.96465  0.04589  0.72354  Biso   1.000  N
  H1309    1.0000 0.90341  0.00669  0.70001  Biso   1.000  H
  H1310    1.0000 0.84522  0.02870  0.62559  Biso   1.000  H
  N190     1.0000 0.77644  0.03535  0.54591  Biso   1.000  N
  H1311    1.0000 0.80001  0.09659  0.50671  Biso   1.000  H
  C1132    1.0000 0.88401  0.86670  0.44139  Biso   1.000  C
  C1133    1.0000 0.96289  0.80710  0.42523  Biso   1.000  C
  C1134    1.0000 0.80710  0.92521  0.46291  Biso   1.000  C
  C1135    1.0000 0.02769  0.98862  0.76991  Biso   1.000  C
  C1136    1.0000 0.01138  0.73007  0.52771  Biso   1.000  C
  C1137    1.0000 0.97231  0.01138  0.76991  Biso   1.000  C
  C1138    1.0000 0.73007  0.02769  0.51140  Biso   1.000  C
  H1312    1.0000 0.87439  0.84522  0.47128  Biso   1.000  H
  N191     1.0000 0.95411  0.77644  0.46467  Biso   1.000  N
  H1313    1.0000 0.99331  0.80001  0.40339  Biso   1.000  H
  N192     1.0000 0.77644  0.96465  0.45409  Biso   1.000  N
  H1314    1.0000 0.80001  0.90341  0.49329  Biso   1.000  H
  H1315    1.0000 0.05431  0.01860  0.76851  Biso   1.000  H
  C1139    1.0000 0.03639  0.95712  0.81993  Biso   1.000  C
  C1140    1.0000 0.98862  0.73007  0.47229  Biso   1.000  C
  H1316    1.0000 0.98140  0.73151  0.55429  Biso   1.000  H
  C1141    1.0000 0.04288  0.68009  0.53641  Biso   1.000  C
  H1317    1.0000 0.94569  0.98140  0.76851  Biso   1.000  H
  C1142    1.0000 0.96361  0.04288  0.81993  Biso   1.000  C
  C1143    1.0000 0.73007  0.97231  0.48860  Biso   1.000  C
  H1318    1.0000 0.73151  0.05431  0.48138  Biso   1.000  H
  C1144    1.0000 0.68009  0.03639  0.54290  Biso   1.000  C
  H1319    1.0000 0.07338  0.94281  0.82001  Biso   1.000  H
  H1320    1.0000 0.01138  0.92622  0.82021  Biso   1.000  H
  C1145    1.0000 0.02781  0.99010  0.87035  Biso   1.000  C
  C1146    1.0000 0.95712  0.68009  0.46359  Biso   1.000  C
  H1321    1.0000 0.01860  0.73151  0.44571  Biso   1.000  H
  H1322    1.0000 0.05719  0.68001  0.57340  Biso   1.000  H
  H1323    1.0000 0.07378  0.67981  0.51140  Biso   1.000  H
  C1147    1.0000 0.00990  0.62967  0.52779  Biso   1.000  C
  H1324    1.0000 0.92662  0.05719  0.82001  Biso   1.000  H
  H1325    1.0000 0.98862  0.07378  0.82021  Biso   1.000  H
  C1148    1.0000 0.97219  0.00990  0.87035  Biso   1.000  C
  H1326    1.0000 0.73151  0.94569  0.51862  Biso   1.000  H
  C1149    1.0000 0.68009  0.96361  0.45710  Biso   1.000  C
  C1150    1.0000 0.62967  0.02781  0.50992  Biso   1.000  C
  H1327    1.0000 0.68001  0.07338  0.55721  Biso   1.000  H
  H1328    1.0000 0.67981  0.01138  0.57380  Biso   1.000  H
  H1329    1.0000 0.05310  0.02060  0.87111  Biso   1.000  H
  H1330    1.0000 0.03419  0.96770  0.90249  Biso   1.000  H
  H1331    1.0000 0.94281  0.68001  0.42660  Biso   1.000  H
  H1332    1.0000 0.92622  0.67981  0.48860  Biso   1.000  H
  C1151    1.0000 0.99010  0.62967  0.47221  Biso   1.000  C
  H1333    1.0000 0.97940  0.62891  0.55308  Biso   1.000  H
  H1334    1.0000 0.03230  0.59749  0.53421  Biso   1.000  H
  H1335    1.0000 0.94690  0.97940  0.87111  Biso   1.000  H
  H1336    1.0000 0.96581  0.03230  0.90249  Biso   1.000  H
  H1337    1.0000 0.68001  0.92662  0.44279  Biso   1.000  H
  H1338    1.0000 0.67981  0.98862  0.42620  Biso   1.000  H
  C1152    1.0000 0.62967  0.97219  0.49008  Biso   1.000  C
  H1339    1.0000 0.59749  0.03419  0.53228  Biso   1.000  H
  H1340    1.0000 0.62891  0.05310  0.47942  Biso   1.000  H
  H1341    1.0000 0.96770  0.59749  0.46579  Biso   1.000  H
  H1342    1.0000 0.02060  0.62891  0.44692  Biso   1.000  H
  H1343    1.0000 0.59749  0.96581  0.46772  Biso   1.000  H
  H1344    1.0000 0.62891  0.94690  0.52058  Biso   1.000  H
  C1153    1.0000 0.75989  0.72222  0.37966  Biso   1.000  C
  C1154    1.0000 0.74009  0.77780  0.37966  Biso   1.000  C
  C1155    1.0000 0.79291  0.71360  0.43008  Biso   1.000  C
  H1345    1.0000 0.78229  0.71580  0.34748  Biso   1.000  H
  H1346    1.0000 0.72939  0.69689  0.37890  Biso   1.000  H
  C1156    1.0000 0.70711  0.78638  0.43008  Biso   1.000  C
  H1347    1.0000 0.71769  0.78422  0.34748  Biso   1.000  H
  H1348    1.0000 0.77059  0.80309  0.37890  Biso   1.000  H
  C1157    1.0000 0.76137  0.72230  0.48006  Biso   1.000  C
  H1349    1.0000 0.80718  0.67661  0.43000  Biso   1.000  H
  H1350    1.0000 0.82381  0.73861  0.42980  Biso   1.000  H
  C1158    1.0000 0.73861  0.77772  0.48006  Biso   1.000  C
  H1351    1.0000 0.69280  0.82341  0.43000  Biso   1.000  H
  H1352    1.0000 0.67621  0.76141  0.42980  Biso   1.000  H
  N193     1.0000 0.79592  0.71464  0.52643  Biso   1.000  N
  H1353    1.0000 0.73139  0.69568  0.48150  Biso   1.000  H
  N194     1.0000 0.70410  0.78534  0.52643  Biso   1.000  N
  H1354    1.0000 0.76859  0.80430  0.48150  Biso   1.000  H
  C1159    1.0000 0.78710  0.67520  0.55709  Biso   1.000  C
  C1160    1.0000 0.71292  0.82478  0.55709  Biso   1.000  C
  C1161    1.0000 0.82145  0.66118  0.60322  Biso   1.000  C
  H1355    1.0000 0.75668  0.65340  0.55000  Biso   1.000  H
  C1162    1.0000 0.67857  0.83884  0.60322  Biso   1.000  C
  H1356    1.0000 0.74330  0.84662  0.55000  Biso   1.000  H
  C1163    1.0000 0.86598  0.69140  0.61669  Biso   1.000  C
  C1164    1.0000 0.80862  0.61669  0.63400  Biso   1.000  C
  C1165    1.0000 0.69140  0.88333  0.63400  Biso   1.000  C
  C1166    1.0000 0.63400  0.80862  0.61669  Biso   1.000  C
  C1167    1.0000 0.89680  0.67857  0.66118  Biso   1.000  C
  H1357    1.0000 0.87560  0.72129  0.59521  Biso   1.000  H
  H1358    1.0000 0.77869  0.59521  0.62438  Biso   1.000  H
  C1168    1.0000 0.83884  0.60322  0.67857  Biso   1.000  C
  H1359    1.0000 0.72129  0.90481  0.62438  Biso   1.000  H
  C1169    1.0000 0.66118  0.89680  0.67857  Biso   1.000  C
  C1170    1.0000 0.60322  0.82145  0.66118  Biso   1.000  C
  H1360    1.0000 0.62438  0.77869  0.59521  Biso   1.000  H
  C1171    1.0000 0.88333  0.63400  0.69140  Biso   1.000  C
  C1172    1.0000 0.94293  0.71292  0.67520  Biso   1.000  C
  C1173    1.0000 0.82478  0.55709  0.71292  Biso   1.000  C
  C1174    1.0000 0.67520  0.94293  0.71292  Biso   1.000  C
  C1175    1.0000 0.61669  0.86598  0.69140  Biso   1.000  C
  C1176    1.0000 0.55709  0.78710  0.67520  Biso   1.000  C
  H1361    1.0000 0.90481  0.62438  0.72129  Biso   1.000  H
  N195     1.0000 0.97355  0.70410  0.71464  Biso   1.000  N
  H1362    1.0000 0.94998  0.74330  0.65340  Biso   1.000  H
  N196     1.0000 0.78534  0.52643  0.70410  Biso   1.000  N
  H1363    1.0000 0.84662  0.55000  0.74330  Biso   1.000  H
  N197     1.0000 0.71464  0.97355  0.70410  Biso   1.000  N
  H1364    1.0000 0.65340  0.94998  0.74330  Biso   1.000  H
  H1365    1.0000 0.59521  0.87560  0.72129  Biso   1.000  H
  N198     1.0000 0.52643  0.79592  0.71464  Biso   1.000  N
  H1366    1.0000 0.55000  0.75668  0.65340  Biso   1.000  H
  C1177    1.0000 0.01992  0.73861  0.72230  Biso   1.000  C
  C1178    1.0000 0.77772  0.48006  0.73861  Biso   1.000  C
  C1179    1.0000 0.72230  0.01992  0.73861  Biso   1.000  C
  C1180    1.0000 0.48006  0.76137  0.72230  Biso   1.000  C
  C1181    1.0000 0.01992  0.76137  0.77772  Biso   1.000  C
  H1367    1.0000 0.01852  0.76859  0.69568  Biso   1.000  H
  C1182    1.0000 0.06994  0.70711  0.71360  Biso   1.000  C
  C1183    1.0000 0.72230  0.48006  0.76137  Biso   1.000  C
  H1368    1.0000 0.80430  0.48150  0.76859  Biso   1.000  H
  C1184    1.0000 0.78638  0.43008  0.70711  Biso   1.000  C
  C1185    1.0000 0.77772  0.01992  0.76137  Biso   1.000  C
  H1369    1.0000 0.69568  0.01852  0.76859  Biso   1.000  H
  C1186    1.0000 0.71360  0.06994  0.70711  Biso   1.000  C
  H1370    1.0000 0.48150  0.73139  0.69568  Biso   1.000  H
  C1187    1.0000 0.43008  0.79291  0.71360  Biso   1.000  C
  C1188    1.0000 0.48006  0.73861  0.77772  Biso   1.000  C
  N199     1.0000 0.97355  0.79592  0.78534  Biso   1.000  N
  H1371    1.0000 0.01852  0.73139  0.80430  Biso   1.000  H
  C1189    1.0000 0.06994  0.79291  0.78638  Biso   1.000  C
  H1372    1.0000 0.07002  0.69280  0.67661  Biso   1.000  H
  H1373    1.0000 0.07022  0.67621  0.73861  Biso   1.000  H
  C1190    1.0000 0.12032  0.74009  0.72222  Biso   1.000  C
  N200     1.0000 0.71464  0.52643  0.79592  Biso   1.000  N
  H1374    1.0000 0.69568  0.48150  0.73139  Biso   1.000  H
  C1191    1.0000 0.71360  0.43008  0.79291  Biso   1.000  C
  H1375    1.0000 0.82341  0.43000  0.69280  Biso   1.000  H
  H1376    1.0000 0.76141  0.42980  0.67621  Biso   1.000  H
  C1192    1.0000 0.77780  0.37966  0.74009  Biso   1.000  C
  N201     1.0000 0.78534  0.97355  0.79592  Biso   1.000  N
  H1377    1.0000 0.80430  0.01852  0.73139  Biso   1.000  H
  C1193    1.0000 0.78638  0.06994  0.79291  Biso   1.000  C
  H1378    1.0000 0.67661  0.07002  0.69280  Biso   1.000  H
  H1379    1.0000 0.73861  0.07022  0.67621  Biso   1.000  H
  C1194    1.0000 0.72222  0.12032  0.74009  Biso   1.000  C
  H1380    1.0000 0.43000  0.80718  0.67661  Biso   1.000  H
  H1381    1.0000 0.42980  0.82381  0.73861  Biso   1.000  H
  C1195    1.0000 0.37966  0.75989  0.72222  Biso   1.000  C
  N202     1.0000 0.52643  0.70410  0.78534  Biso   1.000  N
  H1382    1.0000 0.48150  0.76859  0.80430  Biso   1.000  H
  C1196    1.0000 0.43008  0.70711  0.78638  Biso   1.000  C
  C1197    1.0000 0.94293  0.78710  0.82478  Biso   1.000  C
  H1383    1.0000 0.07002  0.80718  0.82341  Biso   1.000  H
  H1384    1.0000 0.07022  0.82381  0.76141  Biso   1.000  H
  C1198    1.0000 0.12032  0.75989  0.77780  Biso   1.000  C
  H1385    1.0000 0.15250  0.71769  0.71580  Biso   1.000  H
  H1386    1.0000 0.12112  0.77059  0.69689  Biso   1.000  H
  C1199    1.0000 0.67520  0.55709  0.78710  Biso   1.000  C
  H1387    1.0000 0.67661  0.43000  0.80718  Biso   1.000  H
  H1388    1.0000 0.73861  0.42980  0.82381  Biso   1.000  H
  C1200    1.0000 0.72222  0.37966  0.75989  Biso   1.000  C
  H1389    1.0000 0.78422  0.34748  0.71769  Biso   1.000  H
  H1390    1.0000 0.80309  0.37890  0.77059  Biso   1.000  H
  C1201    1.0000 0.82478  0.94293  0.78710  Biso   1.000  C
  H1391    1.0000 0.82341  0.07002  0.80718  Biso   1.000  H
  H1392    1.0000 0.76141  0.07022  0.82381  Biso   1.000  H
  C1202    1.0000 0.77780  0.12032  0.75989  Biso   1.000  C
  H1393    1.0000 0.71580  0.15250  0.71769  Biso   1.000  H
  H1394    1.0000 0.69689  0.12112  0.77059  Biso   1.000  H
  H1395    1.0000 0.34748  0.78229  0.71580  Biso   1.000  H
  H1396    1.0000 0.37890  0.72939  0.69689  Biso   1.000  H
  C1203    1.0000 0.37966  0.74009  0.77780  Biso   1.000  C
  C1204    1.0000 0.55709  0.71292  0.82478  Biso   1.000  C
  H1397    1.0000 0.43000  0.69280  0.82341  Biso   1.000  H
  H1398    1.0000 0.42980  0.67621  0.76141  Biso   1.000  H
  C1205    1.0000 0.89680  0.82145  0.83884  Biso   1.000  C
  H1399    1.0000 0.94998  0.75668  0.84662  Biso   1.000  H
  H1400    1.0000 0.15250  0.78229  0.78422  Biso   1.000  H
  H1401    1.0000 0.12112  0.72939  0.80309  Biso   1.000  H
  C1206    1.0000 0.66118  0.60322  0.82145  Biso   1.000  C
  H1402    1.0000 0.65340  0.55000  0.75668  Biso   1.000  H
  H1403    1.0000 0.71580  0.34748  0.78229  Biso   1.000  H
  H1404    1.0000 0.69689  0.37890  0.72939  Biso   1.000  H
  C1207    1.0000 0.83884  0.89680  0.82145  Biso   1.000  C
  H1405    1.0000 0.84662  0.94998  0.75668  Biso   1.000  H
  H1406    1.0000 0.78422  0.15250  0.78229  Biso   1.000  H
  H1407    1.0000 0.80309  0.12112  0.72939  Biso   1.000  H
  H1408    1.0000 0.34748  0.71769  0.78422  Biso   1.000  H
  H1409    1.0000 0.37890  0.77059  0.80309  Biso   1.000  H
  C1208    1.0000 0.60322  0.67857  0.83884  Biso   1.000  C
  H1410    1.0000 0.55000  0.74330  0.84662  Biso   1.000  H
  C1209    1.0000 0.86598  0.80862  0.88333  Biso   1.000  C
  C1210    1.0000 0.88333  0.86598  0.80862  Biso   1.000  C
  C1211    1.0000 0.61669  0.63400  0.80862  Biso   1.000  C
  C1212    1.0000 0.69140  0.61669  0.86598  Biso   1.000  C
  C1213    1.0000 0.80862  0.88333  0.86598  Biso   1.000  C
  C1214    1.0000 0.63400  0.69140  0.88333  Biso   1.000  C
  H1411    1.0000 0.87560  0.77869  0.90481  Biso   1.000  H
  C1215    1.0000 0.82145  0.83884  0.89680  Biso   1.000  C
  H1412    1.0000 0.90481  0.87560  0.77869  Biso   1.000  H
  H1413    1.0000 0.59521  0.62438  0.77869  Biso   1.000  H
  C1216    1.0000 0.67857  0.66118  0.89680  Biso   1.000  C
  H1414    1.0000 0.72129  0.59521  0.87560  Biso   1.000  H
  H1415    1.0000 0.77869  0.90481  0.87560  Biso   1.000  H
  H1416    1.0000 0.62438  0.72129  0.90481  Biso   1.000  H
  C1217    1.0000 0.78710  0.82478  0.94293  Biso   1.000  C
  C1218    1.0000 0.71292  0.67520  0.94293  Biso   1.000  C
  N203     1.0000 0.79592  0.78534  0.97355  Biso   1.000  N
  H1417    1.0000 0.75668  0.84662  0.94998  Biso   1.000  H
  N204     1.0000 0.70410  0.71464  0.97355  Biso   1.000  N
  H1418    1.0000 0.74330  0.65340  0.94998  Biso   1.000  H
  C1219    1.0000 0.76137  0.77772  0.01992  Biso   1.000  C
  C1220    1.0000 0.73861  0.72230  0.01992  Biso   1.000  C
  H1419    1.0000 0.73139  0.80430  0.01852  Biso   1.000  H
  C1221    1.0000 0.79291  0.78638  0.06994  Biso   1.000  C
  H1420    1.0000 0.76859  0.69568  0.01852  Biso   1.000  H
  C1222    1.0000 0.70711  0.71360  0.06994  Biso   1.000  C
  H1421    1.0000 0.80718  0.82341  0.07002  Biso   1.000  H
  H1422    1.0000 0.82381  0.76141  0.07022  Biso   1.000  H
  C1223    1.0000 0.75989  0.77780  0.12032  Biso   1.000  C
  H1423    1.0000 0.69280  0.67661  0.07002  Biso   1.000  H
  H1424    1.0000 0.67621  0.73861  0.07022  Biso   1.000  H
  C1224    1.0000 0.74009  0.72222  0.12032  Biso   1.000  C
  H1425    1.0000 0.78229  0.78422  0.15250  Biso   1.000  H
  H1426    1.0000 0.72939  0.80309  0.12112  Biso   1.000  H
  H1427    1.0000 0.71769  0.71580  0.15250  Biso   1.000  H
  H1428    1.0000 0.77059  0.69689  0.12112  Biso   1.000  H
