data_image0
_cell_length_a       24.88
_cell_length_b       24.88
_cell_length_c       24.88
_cell_angle_alpha    90
_cell_angle_beta     90
_cell_angle_gamma    90

_symmetry_space_group_name_H-M    "P 1"
_symmetry_int_tables_number       1

loop_
  _symmetry_equiv_pos_as_xyz
  'x, y, z'

loop_
  _atom_site_label
  _atom_site_occupancy
  _atom_site_fract_x
  _atom_site_fract_y
  _atom_site_fract_z
  _atom_site_thermal_displace_type
  _atom_site_B_iso_or_equiv
  _atom_site_type_symbol
  C1       1.0000 0.51001  0.37106  0.47251  Biso   1.000  C
  C2       1.0000 0.54349  0.31977  0.46431  Biso   1.000  C
  C3       1.0000 0.48999  0.37106  0.52749  Biso   1.000  C
  H1       1.0000 0.53199  0.40261  0.46620  Biso   1.000  H
  H2       1.0000 0.48010  0.37170  0.44739  Biso   1.000  H
  C4       1.0000 0.51109  0.26973  0.47235  Biso   1.000  C
  H3       1.0000 0.55832  0.31982  0.42822  Biso   1.000  H
  H4       1.0000 0.57331  0.31990  0.48951  Biso   1.000  H
  C5       1.0000 0.45651  0.31977  0.53569  Biso   1.000  C
  H5       1.0000 0.46801  0.40261  0.53380  Biso   1.000  H
  H6       1.0000 0.51990  0.37170  0.55261  Biso   1.000  H
  N1       1.0000 0.54590  0.22416  0.46531  Biso   1.000  N
  C6       1.0000 0.48891  0.26973  0.52765  Biso   1.000  C
  H7       1.0000 0.48171  0.26841  0.44610  Biso   1.000  H
  H8       1.0000 0.44168  0.31982  0.57178  Biso   1.000  H
  H9       1.0000 0.42669  0.31990  0.51049  Biso   1.000  H
  C7       1.0000 0.53742  0.19281  0.42609  Biso   1.000  C
  N2       1.0000 0.45410  0.22416  0.53469  Biso   1.000  N
  H10      1.0000 0.51829  0.26841  0.55390  Biso   1.000  H
  C8       1.0000 0.57110  0.14582  0.41057  Biso   1.000  C
  H11      1.0000 0.50740  0.19980  0.40498  Biso   1.000  H
  C9       1.0000 0.46258  0.19281  0.57391  Biso   1.000  C
  C10      1.0000 0.61543  0.13316  0.44200  Biso   1.000  C
  C11      1.0000 0.55800  0.11543  0.36684  Biso   1.000  C
  C12      1.0000 0.42890  0.14582  0.58943  Biso   1.000  C
  H12      1.0000 0.49260  0.19980  0.59502  Biso   1.000  H
  H13      1.0000 0.62432  0.15418  0.47158  Biso   1.000  H
  C13      1.0000 0.64582  0.08943  0.42890  Biso   1.000  C
  H14      1.0000 0.52842  0.12432  0.34582  Biso   1.000  H
  C14      1.0000 0.58943  0.07110  0.35418  Biso   1.000  C
  C15      1.0000 0.38457  0.13316  0.55800  Biso   1.000  C
  C16      1.0000 0.44200  0.11543  0.63316  Biso   1.000  C
  C17      1.0000 0.63316  0.05800  0.38457  Biso   1.000  C
  C18      1.0000 0.69281  0.07391  0.46258  Biso   1.000  C
  C19      1.0000 0.57391  0.03742  0.30719  Biso   1.000  C
  H15      1.0000 0.37568  0.15418  0.52842  Biso   1.000  H
  C20      1.0000 0.35418  0.08943  0.57110  Biso   1.000  C
  H16      1.0000 0.47158  0.12432  0.65418  Biso   1.000  H
  C21      1.0000 0.41057  0.07110  0.64582  Biso   1.000  C
  H17      1.0000 0.65418  0.02842  0.37568  Biso   1.000  H
  N3       1.0000 0.72416  0.03469  0.45410  Biso   1.000  N
  H18      1.0000 0.69980  0.09502  0.49260  Biso   1.000  H
  N4       1.0000 0.53469  0.04590  0.27584  Biso   1.000  N
  H19      1.0000 0.59502  0.00740  0.30020  Biso   1.000  H
  C22      1.0000 0.36684  0.05800  0.61543  Biso   1.000  C
  C23      1.0000 0.30719  0.07391  0.53742  Biso   1.000  C
  C24      1.0000 0.42609  0.03742  0.69281  Biso   1.000  C
  C25      1.0000 0.76973  0.02765  0.48891  Biso   1.000  C
  C26      1.0000 0.52765  0.01109  0.23027  Biso   1.000  C
  H20      1.0000 0.34582  0.02842  0.62432  Biso   1.000  H
  N5       1.0000 0.27584  0.03469  0.54590  Biso   1.000  N
  H21      1.0000 0.30020  0.09502  0.50740  Biso   1.000  H
  N6       1.0000 0.46531  0.04590  0.72416  Biso   1.000  N
  H22      1.0000 0.40498  0.00740  0.69980  Biso   1.000  H
  H23      1.0000 0.76841  0.05390  0.51829  Biso   1.000  H
  C27      1.0000 0.81977  0.03569  0.45651  Biso   1.000  C
  C28      1.0000 0.76973  0.97235  0.51109  Biso   1.000  C
  C29      1.0000 0.53569  0.04349  0.18023  Biso   1.000  C
  C30      1.0000 0.47235  0.98891  0.23027  Biso   1.000  C
  H24      1.0000 0.55390  0.98171  0.23159  Biso   1.000  H
  C31      1.0000 0.23027  0.02765  0.51109  Biso   1.000  C
  C32      1.0000 0.47235  0.01109  0.76973  Biso   1.000  C
  H25      1.0000 0.81982  0.07178  0.44168  Biso   1.000  H
  H26      1.0000 0.81990  0.01049  0.42669  Biso   1.000  H
  C33      1.0000 0.87106  0.02749  0.48999  Biso   1.000  C
  N7       1.0000 0.72416  0.96531  0.54590  Biso   1.000  N
  H27      1.0000 0.76841  0.94610  0.48171  Biso   1.000  H
  C34      1.0000 0.81977  0.96431  0.54349  Biso   1.000  C
  H28      1.0000 0.57178  0.05832  0.18018  Biso   1.000  H
  H29      1.0000 0.51049  0.07331  0.18010  Biso   1.000  H
  C35      1.0000 0.52749  0.01001  0.12894  Biso   1.000  C
  H30      1.0000 0.44610  0.01829  0.23159  Biso   1.000  H
  N8       1.0000 0.46531  0.95410  0.27584  Biso   1.000  N
  C36      1.0000 0.46431  0.95651  0.18023  Biso   1.000  C
  H31      1.0000 0.23159  0.05390  0.48171  Biso   1.000  H
  C37      1.0000 0.18023  0.03569  0.54349  Biso   1.000  C
  C38      1.0000 0.23027  0.97235  0.48891  Biso   1.000  C
  C39      1.0000 0.46431  0.04349  0.81977  Biso   1.000  C
  C40      1.0000 0.52765  0.98891  0.76973  Biso   1.000  C
  H32      1.0000 0.44610  0.98171  0.76841  Biso   1.000  H
  H33      1.0000 0.90261  0.03380  0.46801  Biso   1.000  H
  H34      1.0000 0.87170  0.05261  0.51990  Biso   1.000  H
  C41      1.0000 0.87106  0.97251  0.51001  Biso   1.000  C
  C42      1.0000 0.69281  0.92609  0.53742  Biso   1.000  C
  H35      1.0000 0.81982  0.92822  0.55832  Biso   1.000  H
  H36      1.0000 0.81990  0.98951  0.57331  Biso   1.000  H
  H37      1.0000 0.53380  0.03199  0.09739  Biso   1.000  H
  C43      1.0000 0.47251  0.98999  0.12894  Biso   1.000  C
  H38      1.0000 0.55261  0.98010  0.12830  Biso   1.000  H
  C44      1.0000 0.42609  0.96258  0.30719  Biso   1.000  C
  H39      1.0000 0.42822  0.94168  0.18018  Biso   1.000  H
  H40      1.0000 0.48951  0.92669  0.18010  Biso   1.000  H
  H41      1.0000 0.18018  0.07178  0.55832  Biso   1.000  H
  H42      1.0000 0.18010  0.01049  0.57331  Biso   1.000  H
  C45      1.0000 0.12894  0.02749  0.51001  Biso   1.000  C
  N9       1.0000 0.27584  0.96531  0.45410  Biso   1.000  N
  H43      1.0000 0.23159  0.94610  0.51829  Biso   1.000  H
  C46      1.0000 0.18023  0.96431  0.45651  Biso   1.000  C
  H44      1.0000 0.42822  0.05832  0.81982  Biso   1.000  H
  H45      1.0000 0.48951  0.07331  0.81990  Biso   1.000  H
  C47      1.0000 0.47251  0.01001  0.87106  Biso   1.000  C
  H46      1.0000 0.55390  0.01829  0.76841  Biso   1.000  H
  N10      1.0000 0.53469  0.95410  0.72416  Biso   1.000  N
  C48      1.0000 0.53569  0.95651  0.81977  Biso   1.000  C
  H47      1.0000 0.90261  0.96620  0.53199  Biso   1.000  H
  H48      1.0000 0.87170  0.94739  0.48010  Biso   1.000  H
  C49      1.0000 0.64582  0.91057  0.57110  Biso   1.000  C
  H49      1.0000 0.69980  0.90498  0.50740  Biso   1.000  H
  H50      1.0000 0.44739  0.01990  0.12830  Biso   1.000  H
  H51      1.0000 0.46620  0.96801  0.09739  Biso   1.000  H
  C50      1.0000 0.41057  0.92890  0.35418  Biso   1.000  C
  H52      1.0000 0.40498  0.99260  0.30020  Biso   1.000  H
  H53      1.0000 0.09739  0.03380  0.53199  Biso   1.000  H
  H54      1.0000 0.12830  0.05261  0.48010  Biso   1.000  H
  C51      1.0000 0.12894  0.97251  0.48999  Biso   1.000  C
  C52      1.0000 0.30719  0.92609  0.46258  Biso   1.000  C
  H55      1.0000 0.18018  0.92822  0.44168  Biso   1.000  H
  H56      1.0000 0.18010  0.98951  0.42669  Biso   1.000  H
  H57      1.0000 0.46620  0.03199  0.90261  Biso   1.000  H
  C53      1.0000 0.52749  0.98999  0.87106  Biso   1.000  C
  H58      1.0000 0.44739  0.98010  0.87170  Biso   1.000  H
  C54      1.0000 0.57391  0.96258  0.69281  Biso   1.000  C
  H59      1.0000 0.57178  0.94168  0.81982  Biso   1.000  H
  H60      1.0000 0.51049  0.92669  0.81990  Biso   1.000  H
  C55      1.0000 0.61543  0.86684  0.55800  Biso   1.000  C
  C56      1.0000 0.63316  0.94200  0.61543  Biso   1.000  C
  C57      1.0000 0.44200  0.88457  0.36684  Biso   1.000  C
  C58      1.0000 0.36684  0.94200  0.38457  Biso   1.000  C
  H61      1.0000 0.09739  0.96620  0.46801  Biso   1.000  H
  H62      1.0000 0.12830  0.94739  0.51990  Biso   1.000  H
  C59      1.0000 0.35418  0.91057  0.42890  Biso   1.000  C
  H63      1.0000 0.30020  0.90498  0.49260  Biso   1.000  H
  H64      1.0000 0.55261  0.01990  0.87170  Biso   1.000  H
  H65      1.0000 0.53380  0.96801  0.90261  Biso   1.000  H
  C60      1.0000 0.58943  0.92890  0.64582  Biso   1.000  C
  H66      1.0000 0.59502  0.99260  0.69980  Biso   1.000  H
  H67      1.0000 0.62432  0.84582  0.52842  Biso   1.000  H
  C61      1.0000 0.57110  0.85418  0.58943  Biso   1.000  C
  H68      1.0000 0.65418  0.97158  0.62432  Biso   1.000  H
  H69      1.0000 0.47158  0.87568  0.34582  Biso   1.000  H
  C62      1.0000 0.42890  0.85418  0.41057  Biso   1.000  C
  H70      1.0000 0.34582  0.97158  0.37568  Biso   1.000  H
  C63      1.0000 0.38457  0.86684  0.44200  Biso   1.000  C
  C64      1.0000 0.55800  0.88457  0.63316  Biso   1.000  C
  C65      1.0000 0.53742  0.80719  0.57391  Biso   1.000  C
  C66      1.0000 0.46258  0.80719  0.42609  Biso   1.000  C
  H71      1.0000 0.37568  0.84582  0.47158  Biso   1.000  H
  H72      1.0000 0.52842  0.87568  0.65418  Biso   1.000  H
  N11      1.0000 0.54590  0.77584  0.53469  Biso   1.000  N
  H73      1.0000 0.50740  0.80020  0.59502  Biso   1.000  H
  N12      1.0000 0.45410  0.77584  0.46531  Biso   1.000  N
  H74      1.0000 0.49260  0.80020  0.40498  Biso   1.000  H
  C67      1.0000 0.51109  0.73027  0.52765  Biso   1.000  C
  C68      1.0000 0.48891  0.73027  0.47235  Biso   1.000  C
  H75      1.0000 0.48171  0.73159  0.55390  Biso   1.000  H
  C69      1.0000 0.54349  0.68023  0.53569  Biso   1.000  C
  H76      1.0000 0.51829  0.73159  0.44610  Biso   1.000  H
  C70      1.0000 0.45651  0.68023  0.46431  Biso   1.000  C
  H77      1.0000 0.55832  0.68018  0.57178  Biso   1.000  H
  H78      1.0000 0.57331  0.68010  0.51049  Biso   1.000  H
  C71      1.0000 0.51001  0.62894  0.52749  Biso   1.000  C
  H79      1.0000 0.44168  0.68018  0.42822  Biso   1.000  H
  H80      1.0000 0.42669  0.68010  0.48951  Biso   1.000  H
  C72      1.0000 0.48999  0.62894  0.47251  Biso   1.000  C
  H81      1.0000 0.53199  0.59739  0.53380  Biso   1.000  H
  H82      1.0000 0.48010  0.62830  0.55261  Biso   1.000  H
  H83      1.0000 0.46801  0.59739  0.46620  Biso   1.000  H
  H84      1.0000 0.51990  0.62830  0.44739  Biso   1.000  H
  C73      1.0000 0.47251  0.51001  0.37106  Biso   1.000  C
  C74      1.0000 0.46431  0.54349  0.31977  Biso   1.000  C
  C75      1.0000 0.52749  0.48999  0.37106  Biso   1.000  C
  H85      1.0000 0.46620  0.53199  0.40261  Biso   1.000  H
  H86      1.0000 0.44739  0.48010  0.37170  Biso   1.000  H
  C76      1.0000 0.47235  0.51109  0.26973  Biso   1.000  C
  H87      1.0000 0.42822  0.55832  0.31982  Biso   1.000  H
  H88      1.0000 0.48951  0.57331  0.31990  Biso   1.000  H
  C77      1.0000 0.53569  0.45651  0.31977  Biso   1.000  C
  H89      1.0000 0.53380  0.46801  0.40261  Biso   1.000  H
  H90      1.0000 0.55261  0.51990  0.37170  Biso   1.000  H
  C78      1.0000 0.52765  0.48891  0.26973  Biso   1.000  C
  N13      1.0000 0.46531  0.54590  0.22416  Biso   1.000  N
  H91      1.0000 0.44610  0.48171  0.26841  Biso   1.000  H
  H92      1.0000 0.57178  0.44168  0.31982  Biso   1.000  H
  H93      1.0000 0.51049  0.42669  0.31990  Biso   1.000  H
  N14      1.0000 0.53469  0.45410  0.22416  Biso   1.000  N
  H94      1.0000 0.55390  0.51829  0.26841  Biso   1.000  H
  C79      1.0000 0.42609  0.53742  0.19281  Biso   1.000  C
  C80      1.0000 0.57391  0.46258  0.19281  Biso   1.000  C
  C81      1.0000 0.41057  0.57110  0.14582  Biso   1.000  C
  H95      1.0000 0.40498  0.50740  0.19980  Biso   1.000  H
  C82      1.0000 0.58943  0.42890  0.14582  Biso   1.000  C
  H96      1.0000 0.59502  0.49260  0.19980  Biso   1.000  H
  C83      1.0000 0.44200  0.61543  0.13316  Biso   1.000  C
  C84      1.0000 0.36684  0.55800  0.11543  Biso   1.000  C
  C85      1.0000 0.55800  0.38457  0.13316  Biso   1.000  C
  C86      1.0000 0.63316  0.44200  0.11543  Biso   1.000  C
  H97      1.0000 0.47158  0.62432  0.15418  Biso   1.000  H
  C87      1.0000 0.42890  0.64582  0.08943  Biso   1.000  C
  H98      1.0000 0.34582  0.52842  0.12432  Biso   1.000  H
  C88      1.0000 0.35418  0.58943  0.07110  Biso   1.000  C
  C89      1.0000 0.57110  0.35418  0.08943  Biso   1.000  C
  H99      1.0000 0.52842  0.37568  0.15418  Biso   1.000  H
  C90      1.0000 0.64582  0.41057  0.07110  Biso   1.000  C
  H100     1.0000 0.65418  0.47158  0.12432  Biso   1.000  H
  C91      1.0000 0.38457  0.63316  0.05800  Biso   1.000  C
  C92      1.0000 0.46258  0.69281  0.07391  Biso   1.000  C
  C93      1.0000 0.30719  0.57391  0.03742  Biso   1.000  C
  C94      1.0000 0.53742  0.30719  0.07391  Biso   1.000  C
  C95      1.0000 0.61543  0.36684  0.05800  Biso   1.000  C
  C96      1.0000 0.69281  0.42609  0.03742  Biso   1.000  C
  H101     1.0000 0.37568  0.65418  0.02842  Biso   1.000  H
  N15      1.0000 0.45410  0.72416  0.03469  Biso   1.000  N
  H102     1.0000 0.49260  0.69980  0.09502  Biso   1.000  H
  N16      1.0000 0.27584  0.53469  0.04590  Biso   1.000  N
  H103     1.0000 0.30020  0.59502  0.00740  Biso   1.000  H
  N17      1.0000 0.54590  0.27584  0.03469  Biso   1.000  N
  H104     1.0000 0.50740  0.30020  0.09502  Biso   1.000  H
  H105     1.0000 0.62432  0.34582  0.02842  Biso   1.000  H
  N18      1.0000 0.72416  0.46531  0.04590  Biso   1.000  N
  H106     1.0000 0.69980  0.40498  0.00740  Biso   1.000  H
  C97      1.0000 0.48891  0.76973  0.02765  Biso   1.000  C
  C98      1.0000 0.23027  0.52765  0.01109  Biso   1.000  C
  C99      1.0000 0.51109  0.23027  0.02765  Biso   1.000  C
  C100     1.0000 0.76973  0.47235  0.01109  Biso   1.000  C
  C101     1.0000 0.51109  0.76973  0.97235  Biso   1.000  C
  H107     1.0000 0.51829  0.76841  0.05390  Biso   1.000  H
  C102     1.0000 0.45651  0.81977  0.03569  Biso   1.000  C
  C103     1.0000 0.23027  0.47235  0.98891  Biso   1.000  C
  C104     1.0000 0.18023  0.53569  0.04349  Biso   1.000  C
  H108     1.0000 0.23159  0.55390  0.98171  Biso   1.000  H
  H109     1.0000 0.48171  0.23159  0.05390  Biso   1.000  H
  C105     1.0000 0.54349  0.18023  0.03569  Biso   1.000  C
  C106     1.0000 0.48891  0.23027  0.97235  Biso   1.000  C
  C107     1.0000 0.81977  0.46431  0.04349  Biso   1.000  C
  C108     1.0000 0.76973  0.52765  0.98891  Biso   1.000  C
  H110     1.0000 0.76841  0.44610  0.98171  Biso   1.000  H
  N19      1.0000 0.54590  0.72416  0.96531  Biso   1.000  N
  H111     1.0000 0.48171  0.76841  0.94610  Biso   1.000  H
  C109     1.0000 0.54349  0.81977  0.96431  Biso   1.000  C
  H112     1.0000 0.44168  0.81982  0.07178  Biso   1.000  H
  H113     1.0000 0.42669  0.81990  0.01049  Biso   1.000  H
  C110     1.0000 0.48999  0.87106  0.02749  Biso   1.000  C
  N20      1.0000 0.27584  0.46531  0.95410  Biso   1.000  N
  H114     1.0000 0.23159  0.44610  0.01829  Biso   1.000  H
  C111     1.0000 0.18023  0.46431  0.95651  Biso   1.000  C
  H115     1.0000 0.18018  0.57178  0.05832  Biso   1.000  H
  H116     1.0000 0.18010  0.51049  0.07331  Biso   1.000  H
  C112     1.0000 0.12894  0.52749  0.01001  Biso   1.000  C
  H117     1.0000 0.55832  0.18018  0.07178  Biso   1.000  H
  H118     1.0000 0.57331  0.18010  0.01049  Biso   1.000  H
  C113     1.0000 0.51001  0.12894  0.02749  Biso   1.000  C
  N21      1.0000 0.45410  0.27584  0.96531  Biso   1.000  N
  H119     1.0000 0.51829  0.23159  0.94610  Biso   1.000  H
  C114     1.0000 0.45651  0.18023  0.96431  Biso   1.000  C
  H120     1.0000 0.81982  0.42822  0.05832  Biso   1.000  H
  H121     1.0000 0.81990  0.48951  0.07331  Biso   1.000  H
  C115     1.0000 0.87106  0.47251  0.01001  Biso   1.000  C
  H122     1.0000 0.76841  0.55390  0.01829  Biso   1.000  H
  N22      1.0000 0.72416  0.53469  0.95410  Biso   1.000  N
  C116     1.0000 0.81977  0.53569  0.95651  Biso   1.000  C
  C117     1.0000 0.53742  0.69281  0.92609  Biso   1.000  C
  H123     1.0000 0.55832  0.81982  0.92822  Biso   1.000  H
  H124     1.0000 0.57331  0.81990  0.98951  Biso   1.000  H
  C118     1.0000 0.51001  0.87106  0.97251  Biso   1.000  C
  H125     1.0000 0.46801  0.90261  0.03380  Biso   1.000  H
  H126     1.0000 0.51990  0.87170  0.05261  Biso   1.000  H
  C119     1.0000 0.30719  0.42609  0.96258  Biso   1.000  C
  H127     1.0000 0.18018  0.42822  0.94168  Biso   1.000  H
  H128     1.0000 0.18010  0.48951  0.92669  Biso   1.000  H
  C120     1.0000 0.12894  0.47251  0.98999  Biso   1.000  C
  H129     1.0000 0.09739  0.53380  0.03199  Biso   1.000  H
  H130     1.0000 0.12830  0.55261  0.98010  Biso   1.000  H
  H131     1.0000 0.53199  0.09739  0.03380  Biso   1.000  H
  H132     1.0000 0.48010  0.12830  0.05261  Biso   1.000  H
  C121     1.0000 0.48999  0.12894  0.97251  Biso   1.000  C
  C122     1.0000 0.46258  0.30719  0.92609  Biso   1.000  C
  H133     1.0000 0.44168  0.18018  0.92822  Biso   1.000  H
  H134     1.0000 0.42669  0.18010  0.98951  Biso   1.000  H
  H135     1.0000 0.90261  0.46620  0.03199  Biso   1.000  H
  C123     1.0000 0.87106  0.52749  0.98999  Biso   1.000  C
  H136     1.0000 0.87170  0.44739  0.98010  Biso   1.000  H
  C124     1.0000 0.69281  0.57391  0.96258  Biso   1.000  C
  H137     1.0000 0.81982  0.57178  0.94168  Biso   1.000  H
  H138     1.0000 0.81990  0.51049  0.92669  Biso   1.000  H
  C125     1.0000 0.57110  0.64582  0.91057  Biso   1.000  C
  H139     1.0000 0.50740  0.69980  0.90498  Biso   1.000  H
  H140     1.0000 0.53199  0.90261  0.96620  Biso   1.000  H
  H141     1.0000 0.48010  0.87170  0.94739  Biso   1.000  H
  C126     1.0000 0.35418  0.41057  0.92890  Biso   1.000  C
  H142     1.0000 0.30020  0.40498  0.99260  Biso   1.000  H
  H143     1.0000 0.12830  0.44739  0.01990  Biso   1.000  H
  H144     1.0000 0.09739  0.46620  0.96801  Biso   1.000  H
  H145     1.0000 0.46801  0.09739  0.96620  Biso   1.000  H
  H146     1.0000 0.51990  0.12830  0.94739  Biso   1.000  H
  C127     1.0000 0.42890  0.35418  0.91057  Biso   1.000  C
  H147     1.0000 0.49260  0.30020  0.90498  Biso   1.000  H
  H148     1.0000 0.87170  0.55261  0.01990  Biso   1.000  H
  H149     1.0000 0.90261  0.53380  0.96801  Biso   1.000  H
  C128     1.0000 0.64582  0.58943  0.92890  Biso   1.000  C
  H150     1.0000 0.69980  0.59502  0.99260  Biso   1.000  H
  C129     1.0000 0.61543  0.63316  0.94200  Biso   1.000  C
  C130     1.0000 0.55800  0.61543  0.86684  Biso   1.000  C
  C131     1.0000 0.38457  0.36684  0.94200  Biso   1.000  C
  C132     1.0000 0.36684  0.44200  0.88457  Biso   1.000  C
  C133     1.0000 0.44200  0.38457  0.86684  Biso   1.000  C
  C134     1.0000 0.63316  0.55800  0.88457  Biso   1.000  C
  H151     1.0000 0.62432  0.65418  0.97158  Biso   1.000  H
  C135     1.0000 0.58943  0.57110  0.85418  Biso   1.000  C
  H152     1.0000 0.52842  0.62432  0.84582  Biso   1.000  H
  H153     1.0000 0.37568  0.34582  0.97158  Biso   1.000  H
  C136     1.0000 0.41057  0.42890  0.85418  Biso   1.000  C
  H154     1.0000 0.34582  0.47158  0.87568  Biso   1.000  H
  H155     1.0000 0.47158  0.37568  0.84582  Biso   1.000  H
  H156     1.0000 0.65418  0.52842  0.87568  Biso   1.000  H
  C137     1.0000 0.57391  0.53742  0.80719  Biso   1.000  C
  C138     1.0000 0.42609  0.46258  0.80719  Biso   1.000  C
  N23      1.0000 0.53469  0.54590  0.77584  Biso   1.000  N
  H157     1.0000 0.59502  0.50740  0.80020  Biso   1.000  H
  N24      1.0000 0.46531  0.45410  0.77584  Biso   1.000  N
  H158     1.0000 0.40498  0.49260  0.80020  Biso   1.000  H
  C139     1.0000 0.52765  0.51109  0.73027  Biso   1.000  C
  C140     1.0000 0.47235  0.48891  0.73027  Biso   1.000  C
  H159     1.0000 0.55390  0.48171  0.73159  Biso   1.000  H
  C141     1.0000 0.53569  0.54349  0.68023  Biso   1.000  C
  H160     1.0000 0.44610  0.51829  0.73159  Biso   1.000  H
  C142     1.0000 0.46431  0.45651  0.68023  Biso   1.000  C
  H161     1.0000 0.57178  0.55832  0.68018  Biso   1.000  H
  H162     1.0000 0.51049  0.57331  0.68010  Biso   1.000  H
  C143     1.0000 0.52749  0.51001  0.62894  Biso   1.000  C
  H163     1.0000 0.42822  0.44168  0.68018  Biso   1.000  H
  H164     1.0000 0.48951  0.42669  0.68010  Biso   1.000  H
  C144     1.0000 0.47251  0.48999  0.62894  Biso   1.000  C
  H165     1.0000 0.53380  0.53199  0.59739  Biso   1.000  H
  H166     1.0000 0.55261  0.48010  0.62830  Biso   1.000  H
  H167     1.0000 0.46620  0.46801  0.59739  Biso   1.000  H
  H168     1.0000 0.44739  0.51990  0.62830  Biso   1.000  H
  C145     1.0000 0.37106  0.47251  0.51001  Biso   1.000  C
  C146     1.0000 0.31977  0.46431  0.54349  Biso   1.000  C
  C147     1.0000 0.37106  0.52749  0.48999  Biso   1.000  C
  H169     1.0000 0.40261  0.46620  0.53199  Biso   1.000  H
  H170     1.0000 0.37170  0.44739  0.48010  Biso   1.000  H
  C148     1.0000 0.26973  0.47235  0.51109  Biso   1.000  C
  H171     1.0000 0.31982  0.42822  0.55832  Biso   1.000  H
  H172     1.0000 0.31990  0.48951  0.57331  Biso   1.000  H
  C149     1.0000 0.31977  0.53569  0.45651  Biso   1.000  C
  H173     1.0000 0.40261  0.53380  0.46801  Biso   1.000  H
  H174     1.0000 0.37170  0.55261  0.51990  Biso   1.000  H
  N25      1.0000 0.22416  0.46531  0.54590  Biso   1.000  N
  C150     1.0000 0.26973  0.52765  0.48891  Biso   1.000  C
  H175     1.0000 0.26841  0.44610  0.48171  Biso   1.000  H
  H176     1.0000 0.31982  0.57178  0.44168  Biso   1.000  H
  H177     1.0000 0.31990  0.51049  0.42669  Biso   1.000  H
  C151     1.0000 0.19281  0.42609  0.53742  Biso   1.000  C
  N26      1.0000 0.22416  0.53469  0.45410  Biso   1.000  N
  H178     1.0000 0.26841  0.55390  0.51829  Biso   1.000  H
  C152     1.0000 0.14582  0.41057  0.57110  Biso   1.000  C
  H179     1.0000 0.19980  0.40498  0.50740  Biso   1.000  H
  C153     1.0000 0.19281  0.57391  0.46258  Biso   1.000  C
  C154     1.0000 0.13316  0.44200  0.61543  Biso   1.000  C
  C155     1.0000 0.11543  0.36684  0.55800  Biso   1.000  C
  C156     1.0000 0.14582  0.58943  0.42890  Biso   1.000  C
  H180     1.0000 0.19980  0.59502  0.49260  Biso   1.000  H
  H181     1.0000 0.15418  0.47158  0.62432  Biso   1.000  H
  C157     1.0000 0.08943  0.42890  0.64582  Biso   1.000  C
  H182     1.0000 0.12432  0.34582  0.52842  Biso   1.000  H
  C158     1.0000 0.07110  0.35418  0.58943  Biso   1.000  C
  C159     1.0000 0.13316  0.55800  0.38457  Biso   1.000  C
  C160     1.0000 0.11543  0.63316  0.44200  Biso   1.000  C
  C161     1.0000 0.05800  0.38457  0.63316  Biso   1.000  C
  C162     1.0000 0.07391  0.46258  0.69281  Biso   1.000  C
  C163     1.0000 0.03742  0.30719  0.57391  Biso   1.000  C
  H183     1.0000 0.15418  0.52842  0.37568  Biso   1.000  H
  C164     1.0000 0.08943  0.57110  0.35418  Biso   1.000  C
  H184     1.0000 0.12432  0.65418  0.47158  Biso   1.000  H
  C165     1.0000 0.07110  0.64582  0.41057  Biso   1.000  C
  H185     1.0000 0.02842  0.37568  0.65418  Biso   1.000  H
  N27      1.0000 0.03469  0.45410  0.72416  Biso   1.000  N
  H186     1.0000 0.09502  0.49260  0.69980  Biso   1.000  H
  N28      1.0000 0.04590  0.27584  0.53469  Biso   1.000  N
  H187     1.0000 0.00740  0.30020  0.59502  Biso   1.000  H
  C166     1.0000 0.05800  0.61543  0.36684  Biso   1.000  C
  C167     1.0000 0.07391  0.53742  0.30719  Biso   1.000  C
  C168     1.0000 0.03742  0.69281  0.42609  Biso   1.000  C
  C169     1.0000 0.02765  0.48891  0.76973  Biso   1.000  C
  C170     1.0000 0.01109  0.23027  0.52765  Biso   1.000  C
  H188     1.0000 0.02842  0.62432  0.34582  Biso   1.000  H
  N29      1.0000 0.03469  0.54590  0.27584  Biso   1.000  N
  H189     1.0000 0.09502  0.50740  0.30020  Biso   1.000  H
  N30      1.0000 0.04590  0.72416  0.46531  Biso   1.000  N
  H190     1.0000 0.00740  0.69980  0.40498  Biso   1.000  H
  H191     1.0000 0.05390  0.51829  0.76841  Biso   1.000  H
  C171     1.0000 0.03569  0.45651  0.81977  Biso   1.000  C
  C172     1.0000 0.97235  0.51109  0.76973  Biso   1.000  C
  C173     1.0000 0.04349  0.18023  0.53569  Biso   1.000  C
  C174     1.0000 0.98891  0.23027  0.47235  Biso   1.000  C
  H192     1.0000 0.98171  0.23159  0.55390  Biso   1.000  H
  C175     1.0000 0.02765  0.51109  0.23027  Biso   1.000  C
  C176     1.0000 0.01109  0.76973  0.47235  Biso   1.000  C
  H193     1.0000 0.07178  0.44168  0.81982  Biso   1.000  H
  H194     1.0000 0.01049  0.42669  0.81990  Biso   1.000  H
  C177     1.0000 0.02749  0.48999  0.87106  Biso   1.000  C
  N31      1.0000 0.96531  0.54590  0.72416  Biso   1.000  N
  H195     1.0000 0.94610  0.48171  0.76841  Biso   1.000  H
  C178     1.0000 0.96431  0.54349  0.81977  Biso   1.000  C
  H196     1.0000 0.05832  0.18018  0.57178  Biso   1.000  H
  H197     1.0000 0.07331  0.18010  0.51049  Biso   1.000  H
  C179     1.0000 0.01001  0.12894  0.52749  Biso   1.000  C
  H198     1.0000 0.01829  0.23159  0.44610  Biso   1.000  H
  N32      1.0000 0.95410  0.27584  0.46531  Biso   1.000  N
  C180     1.0000 0.95651  0.18023  0.46431  Biso   1.000  C
  H199     1.0000 0.05390  0.48171  0.23159  Biso   1.000  H
  C181     1.0000 0.03569  0.54349  0.18023  Biso   1.000  C
  C182     1.0000 0.97235  0.48891  0.23027  Biso   1.000  C
  C183     1.0000 0.04349  0.81977  0.46431  Biso   1.000  C
  C184     1.0000 0.98891  0.76973  0.52765  Biso   1.000  C
  H200     1.0000 0.98171  0.76841  0.44610  Biso   1.000  H
  H201     1.0000 0.03380  0.46801  0.90261  Biso   1.000  H
  H202     1.0000 0.05261  0.51990  0.87170  Biso   1.000  H
  C185     1.0000 0.97251  0.51001  0.87106  Biso   1.000  C
  C186     1.0000 0.92609  0.53742  0.69281  Biso   1.000  C
  H203     1.0000 0.92822  0.55832  0.81982  Biso   1.000  H
  H204     1.0000 0.98951  0.57331  0.81990  Biso   1.000  H
  H205     1.0000 0.03199  0.09739  0.53380  Biso   1.000  H
  C187     1.0000 0.98999  0.12894  0.47251  Biso   1.000  C
  H206     1.0000 0.98010  0.12830  0.55261  Biso   1.000  H
  C188     1.0000 0.96258  0.30719  0.42609  Biso   1.000  C
  H207     1.0000 0.94168  0.18018  0.42822  Biso   1.000  H
  H208     1.0000 0.92669  0.18010  0.48951  Biso   1.000  H
  H209     1.0000 0.07178  0.55832  0.18018  Biso   1.000  H
  H210     1.0000 0.01049  0.57331  0.18010  Biso   1.000  H
  C189     1.0000 0.02749  0.51001  0.12894  Biso   1.000  C
  N33      1.0000 0.96531  0.45410  0.27584  Biso   1.000  N
  H211     1.0000 0.94610  0.51829  0.23159  Biso   1.000  H
  C190     1.0000 0.96431  0.45651  0.18023  Biso   1.000  C
  H212     1.0000 0.05832  0.81982  0.42822  Biso   1.000  H
  H213     1.0000 0.07331  0.81990  0.48951  Biso   1.000  H
  C191     1.0000 0.01001  0.87106  0.47251  Biso   1.000  C
  H214     1.0000 0.01829  0.76841  0.55390  Biso   1.000  H
  N34      1.0000 0.95410  0.72416  0.53469  Biso   1.000  N
  C192     1.0000 0.95651  0.81977  0.53569  Biso   1.000  C
  H215     1.0000 0.96620  0.53199  0.90261  Biso   1.000  H
  H216     1.0000 0.94739  0.48010  0.87170  Biso   1.000  H
  C193     1.0000 0.91057  0.57110  0.64582  Biso   1.000  C
  H217     1.0000 0.90498  0.50740  0.69980  Biso   1.000  H
  H218     1.0000 0.01990  0.12830  0.44739  Biso   1.000  H
  H219     1.0000 0.96801  0.09739  0.46620  Biso   1.000  H
  C194     1.0000 0.92890  0.35418  0.41057  Biso   1.000  C
  H220     1.0000 0.99260  0.30020  0.40498  Biso   1.000  H
  H221     1.0000 0.03380  0.53199  0.09739  Biso   1.000  H
  H222     1.0000 0.05261  0.48010  0.12830  Biso   1.000  H
  C195     1.0000 0.97251  0.48999  0.12894  Biso   1.000  C
  C196     1.0000 0.92609  0.46258  0.30719  Biso   1.000  C
  H223     1.0000 0.92822  0.44168  0.18018  Biso   1.000  H
  H224     1.0000 0.98951  0.42669  0.18010  Biso   1.000  H
  H225     1.0000 0.03199  0.90261  0.46620  Biso   1.000  H
  C197     1.0000 0.98999  0.87106  0.52749  Biso   1.000  C
  H226     1.0000 0.98010  0.87170  0.44739  Biso   1.000  H
  C198     1.0000 0.96258  0.69281  0.57391  Biso   1.000  C
  H227     1.0000 0.94168  0.81982  0.57178  Biso   1.000  H
  H228     1.0000 0.92669  0.81990  0.51049  Biso   1.000  H
  C199     1.0000 0.86684  0.55800  0.61543  Biso   1.000  C
  C200     1.0000 0.94200  0.61543  0.63316  Biso   1.000  C
  C201     1.0000 0.94200  0.38457  0.36684  Biso   1.000  C
  C202     1.0000 0.88457  0.36684  0.44200  Biso   1.000  C
  H229     1.0000 0.96620  0.46801  0.09739  Biso   1.000  H
  H230     1.0000 0.94739  0.51990  0.12830  Biso   1.000  H
  C203     1.0000 0.91057  0.42890  0.35418  Biso   1.000  C
  H231     1.0000 0.90498  0.49260  0.30020  Biso   1.000  H
  H232     1.0000 0.01990  0.87170  0.55261  Biso   1.000  H
  H233     1.0000 0.96801  0.90261  0.53380  Biso   1.000  H
  C204     1.0000 0.92890  0.64582  0.58943  Biso   1.000  C
  H234     1.0000 0.99260  0.69980  0.59502  Biso   1.000  H
  H235     1.0000 0.84582  0.52842  0.62432  Biso   1.000  H
  C205     1.0000 0.85418  0.58943  0.57110  Biso   1.000  C
  H236     1.0000 0.97158  0.62432  0.65418  Biso   1.000  H
  H237     1.0000 0.97158  0.37568  0.34582  Biso   1.000  H
  H238     1.0000 0.87568  0.34582  0.47158  Biso   1.000  H
  C206     1.0000 0.85418  0.41057  0.42890  Biso   1.000  C
  C207     1.0000 0.86684  0.44200  0.38457  Biso   1.000  C
  C208     1.0000 0.88457  0.63316  0.55800  Biso   1.000  C
  C209     1.0000 0.80719  0.57391  0.53742  Biso   1.000  C
  C210     1.0000 0.80719  0.42609  0.46258  Biso   1.000  C
  H239     1.0000 0.84582  0.47158  0.37568  Biso   1.000  H
  H240     1.0000 0.87568  0.65418  0.52842  Biso   1.000  H
  N35      1.0000 0.77584  0.53469  0.54590  Biso   1.000  N
  H241     1.0000 0.80020  0.59502  0.50740  Biso   1.000  H
  N36      1.0000 0.77584  0.46531  0.45410  Biso   1.000  N
  H242     1.0000 0.80020  0.40498  0.49260  Biso   1.000  H
  C211     1.0000 0.73027  0.52765  0.51109  Biso   1.000  C
  C212     1.0000 0.73027  0.47235  0.48891  Biso   1.000  C
  H243     1.0000 0.73159  0.55390  0.48171  Biso   1.000  H
  C213     1.0000 0.68023  0.53569  0.54349  Biso   1.000  C
  H244     1.0000 0.73159  0.44610  0.51829  Biso   1.000  H
  C214     1.0000 0.68023  0.46431  0.45651  Biso   1.000  C
  H245     1.0000 0.68018  0.57178  0.55832  Biso   1.000  H
  H246     1.0000 0.68010  0.51049  0.57331  Biso   1.000  H
  C215     1.0000 0.62894  0.52749  0.51001  Biso   1.000  C
  H247     1.0000 0.68018  0.42822  0.44168  Biso   1.000  H
  H248     1.0000 0.68010  0.48951  0.42669  Biso   1.000  H
  C216     1.0000 0.62894  0.47251  0.48999  Biso   1.000  C
  H249     1.0000 0.59739  0.53380  0.53199  Biso   1.000  H
  H250     1.0000 0.62830  0.55261  0.48010  Biso   1.000  H
  H251     1.0000 0.59739  0.46620  0.46801  Biso   1.000  H
  H252     1.0000 0.62830  0.44739  0.51990  Biso   1.000  H
  C217     1.0000 0.39582  0.32110  0.33943  Biso   1.000  C
  C218     1.0000 0.38316  0.36543  0.30800  Biso   1.000  C
  C219     1.0000 0.36543  0.30800  0.38316  Biso   1.000  C
  C220     1.0000 0.44281  0.28742  0.32391  Biso   1.000  C
  H253     1.0000 0.40418  0.37432  0.27842  Biso   1.000  H
  C221     1.0000 0.33943  0.39582  0.32110  Biso   1.000  C
  H254     1.0000 0.37432  0.27842  0.40418  Biso   1.000  H
  C222     1.0000 0.32110  0.33943  0.39582  Biso   1.000  C
  N37      1.0000 0.47416  0.29590  0.28469  Biso   1.000  N
  H255     1.0000 0.44980  0.25740  0.34502  Biso   1.000  H
  C223     1.0000 0.30800  0.38316  0.36543  Biso   1.000  C
  C224     1.0000 0.32391  0.44281  0.28742  Biso   1.000  C
  C225     1.0000 0.28742  0.32391  0.44281  Biso   1.000  C
  C226     1.0000 0.51973  0.26109  0.27765  Biso   1.000  C
  H256     1.0000 0.27842  0.40418  0.37432  Biso   1.000  H
  N38      1.0000 0.28469  0.47416  0.29590  Biso   1.000  N
  H257     1.0000 0.34502  0.44980  0.25740  Biso   1.000  H
  N39      1.0000 0.29590  0.28469  0.47416  Biso   1.000  N
  H258     1.0000 0.25740  0.34502  0.44980  Biso   1.000  H
  C227     1.0000 0.51973  0.23891  0.22235  Biso   1.000  C
  H259     1.0000 0.51841  0.23171  0.30390  Biso   1.000  H
  C228     1.0000 0.56977  0.29349  0.28569  Biso   1.000  C
  C229     1.0000 0.27765  0.51973  0.26109  Biso   1.000  C
  C230     1.0000 0.26109  0.27765  0.51973  Biso   1.000  C
  N40      1.0000 0.47416  0.20410  0.21531  Biso   1.000  N
  H260     1.0000 0.51841  0.26829  0.19610  Biso   1.000  H
  C231     1.0000 0.56977  0.20651  0.21431  Biso   1.000  C
  H261     1.0000 0.56982  0.30832  0.32178  Biso   1.000  H
  H262     1.0000 0.56990  0.32331  0.26049  Biso   1.000  H
  C232     1.0000 0.62106  0.26001  0.27749  Biso   1.000  C
  C233     1.0000 0.22235  0.51973  0.23891  Biso   1.000  C
  H263     1.0000 0.30390  0.51841  0.23171  Biso   1.000  H
  C234     1.0000 0.28569  0.56977  0.29349  Biso   1.000  C
  C235     1.0000 0.23891  0.22235  0.51973  Biso   1.000  C
  H264     1.0000 0.23171  0.30390  0.51841  Biso   1.000  H
  C236     1.0000 0.29349  0.28569  0.56977  Biso   1.000  C
  C237     1.0000 0.44281  0.21258  0.17609  Biso   1.000  C
  H265     1.0000 0.56982  0.19168  0.17822  Biso   1.000  H
  H266     1.0000 0.56990  0.17669  0.23951  Biso   1.000  H
  C238     1.0000 0.62106  0.23999  0.22251  Biso   1.000  C
  H267     1.0000 0.65261  0.28199  0.28380  Biso   1.000  H
  H268     1.0000 0.62170  0.23010  0.30261  Biso   1.000  H
  N41      1.0000 0.21531  0.47416  0.20410  Biso   1.000  N
  H269     1.0000 0.19610  0.51841  0.26829  Biso   1.000  H
  C239     1.0000 0.21431  0.56977  0.20651  Biso   1.000  C
  H270     1.0000 0.32178  0.56982  0.30832  Biso   1.000  H
  H271     1.0000 0.26049  0.56990  0.32331  Biso   1.000  H
  C240     1.0000 0.27749  0.62106  0.26001  Biso   1.000  C
  N42      1.0000 0.20410  0.21531  0.47416  Biso   1.000  N
  H272     1.0000 0.26829  0.19610  0.51841  Biso   1.000  H
  C241     1.0000 0.20651  0.21431  0.56977  Biso   1.000  C
  H273     1.0000 0.30832  0.32178  0.56982  Biso   1.000  H
  H274     1.0000 0.32331  0.26049  0.56990  Biso   1.000  H
  C242     1.0000 0.26001  0.27749  0.62106  Biso   1.000  C
  C243     1.0000 0.39582  0.17890  0.16057  Biso   1.000  C
  H275     1.0000 0.44980  0.24260  0.15498  Biso   1.000  H
  H276     1.0000 0.65261  0.21801  0.21620  Biso   1.000  H
  H277     1.0000 0.62170  0.26990  0.19739  Biso   1.000  H
  C244     1.0000 0.17609  0.44281  0.21258  Biso   1.000  C
  H278     1.0000 0.17822  0.56982  0.19168  Biso   1.000  H
  H279     1.0000 0.23951  0.56990  0.17669  Biso   1.000  H
  C245     1.0000 0.22251  0.62106  0.23999  Biso   1.000  C
  H280     1.0000 0.28380  0.65261  0.28199  Biso   1.000  H
  H281     1.0000 0.30261  0.62170  0.23010  Biso   1.000  H
  C246     1.0000 0.21258  0.17609  0.44281  Biso   1.000  C
  H282     1.0000 0.19168  0.17822  0.56982  Biso   1.000  H
  H283     1.0000 0.17669  0.23951  0.56990  Biso   1.000  H
  C247     1.0000 0.23999  0.22251  0.62106  Biso   1.000  C
  H284     1.0000 0.28199  0.28380  0.65261  Biso   1.000  H
  H285     1.0000 0.23010  0.30261  0.62170  Biso   1.000  H
  C248     1.0000 0.38316  0.13457  0.19200  Biso   1.000  C
  C249     1.0000 0.36543  0.19200  0.11684  Biso   1.000  C
  C250     1.0000 0.16057  0.39582  0.17890  Biso   1.000  C
  H286     1.0000 0.15498  0.44980  0.24260  Biso   1.000  H
  H287     1.0000 0.21620  0.65261  0.21801  Biso   1.000  H
  H288     1.0000 0.19739  0.62170  0.26990  Biso   1.000  H
  C251     1.0000 0.17890  0.16057  0.39582  Biso   1.000  C
  H289     1.0000 0.24260  0.15498  0.44980  Biso   1.000  H
  H290     1.0000 0.21801  0.21620  0.65261  Biso   1.000  H
  H291     1.0000 0.26990  0.19739  0.62170  Biso   1.000  H
  H292     1.0000 0.40418  0.12568  0.22158  Biso   1.000  H
  C252     1.0000 0.33943  0.10418  0.17890  Biso   1.000  C
  H293     1.0000 0.37432  0.22158  0.09582  Biso   1.000  H
  C253     1.0000 0.32110  0.16057  0.10418  Biso   1.000  C
  C254     1.0000 0.11684  0.36543  0.19200  Biso   1.000  C
  C255     1.0000 0.19200  0.38316  0.13457  Biso   1.000  C
  C256     1.0000 0.19200  0.11684  0.36543  Biso   1.000  C
  C257     1.0000 0.13457  0.19200  0.38316  Biso   1.000  C
  C258     1.0000 0.30800  0.11684  0.13457  Biso   1.000  C
  C259     1.0000 0.32391  0.05719  0.21258  Biso   1.000  C
  C260     1.0000 0.28742  0.17609  0.05719  Biso   1.000  C
  H294     1.0000 0.09582  0.37432  0.22158  Biso   1.000  H
  C261     1.0000 0.10418  0.32110  0.16057  Biso   1.000  C
  H295     1.0000 0.22158  0.40418  0.12568  Biso   1.000  H
  C262     1.0000 0.17890  0.33943  0.10418  Biso   1.000  C
  H296     1.0000 0.22158  0.09582  0.37432  Biso   1.000  H
  C263     1.0000 0.16057  0.10418  0.32110  Biso   1.000  C
  H297     1.0000 0.12568  0.22158  0.40418  Biso   1.000  H
  C264     1.0000 0.10418  0.17890  0.33943  Biso   1.000  C
  H298     1.0000 0.27842  0.09582  0.12568  Biso   1.000  H
  N43      1.0000 0.28469  0.02584  0.20410  Biso   1.000  N
  H299     1.0000 0.34502  0.05020  0.24260  Biso   1.000  H
  N44      1.0000 0.29590  0.21531  0.02584  Biso   1.000  N
  H300     1.0000 0.25740  0.15498  0.05020  Biso   1.000  H
  C265     1.0000 0.13457  0.30800  0.11684  Biso   1.000  C
  C266     1.0000 0.05719  0.28742  0.17609  Biso   1.000  C
  C267     1.0000 0.21258  0.32391  0.05719  Biso   1.000  C
  C268     1.0000 0.11684  0.13457  0.30800  Biso   1.000  C
  C269     1.0000 0.17609  0.05719  0.28742  Biso   1.000  C
  C270     1.0000 0.05719  0.21258  0.32391  Biso   1.000  C
  C271     1.0000 0.27765  0.98027  0.23891  Biso   1.000  C
  C272     1.0000 0.26109  0.22235  0.98027  Biso   1.000  C
  H301     1.0000 0.12568  0.27842  0.09582  Biso   1.000  H
  N45      1.0000 0.02584  0.29590  0.21531  Biso   1.000  N
  H302     1.0000 0.05020  0.25740  0.15498  Biso   1.000  H
  N46      1.0000 0.20410  0.28469  0.02584  Biso   1.000  N
  H303     1.0000 0.24260  0.34502  0.05020  Biso   1.000  H
  H304     1.0000 0.09582  0.12568  0.27842  Biso   1.000  H
  N47      1.0000 0.21531  0.02584  0.29590  Biso   1.000  N
  H305     1.0000 0.15498  0.05020  0.25740  Biso   1.000  H
  N48      1.0000 0.02584  0.20410  0.28469  Biso   1.000  N
  H306     1.0000 0.05020  0.24260  0.34502  Biso   1.000  H
  C273     1.0000 0.22235  0.98027  0.26109  Biso   1.000  C
  H307     1.0000 0.30390  0.98159  0.26829  Biso   1.000  H
  C274     1.0000 0.28569  0.93023  0.20651  Biso   1.000  C
  C275     1.0000 0.23891  0.27765  0.98027  Biso   1.000  C
  H308     1.0000 0.23171  0.19610  0.98159  Biso   1.000  H
  C276     1.0000 0.29349  0.21431  0.93023  Biso   1.000  C
  C277     1.0000 0.98027  0.26109  0.22235  Biso   1.000  C
  C278     1.0000 0.98027  0.23891  0.27765  Biso   1.000  C
  H309     1.0000 0.19610  0.98159  0.23171  Biso   1.000  H
  C279     1.0000 0.21431  0.93023  0.29349  Biso   1.000  C
  H310     1.0000 0.32178  0.93018  0.19168  Biso   1.000  H
  H311     1.0000 0.26049  0.93010  0.17669  Biso   1.000  H
  C280     1.0000 0.27749  0.87894  0.23999  Biso   1.000  C
  H312     1.0000 0.26829  0.30390  0.98159  Biso   1.000  H
  C281     1.0000 0.20651  0.28569  0.93023  Biso   1.000  C
  H313     1.0000 0.30832  0.17822  0.93018  Biso   1.000  H
  H314     1.0000 0.32331  0.23951  0.93010  Biso   1.000  H
  C282     1.0000 0.26001  0.22251  0.87894  Biso   1.000  C
  H315     1.0000 0.98159  0.23171  0.19610  Biso   1.000  H
  C283     1.0000 0.93023  0.29349  0.21431  Biso   1.000  C
  H316     1.0000 0.98159  0.26829  0.30390  Biso   1.000  H
  C284     1.0000 0.93023  0.20651  0.28569  Biso   1.000  C
  H317     1.0000 0.17822  0.93018  0.30832  Biso   1.000  H
  H318     1.0000 0.23951  0.93010  0.32331  Biso   1.000  H
  C285     1.0000 0.22251  0.87894  0.26001  Biso   1.000  C
  H319     1.0000 0.28380  0.84739  0.21801  Biso   1.000  H
  H320     1.0000 0.30261  0.87830  0.26990  Biso   1.000  H
  H321     1.0000 0.19168  0.32178  0.93018  Biso   1.000  H
  H322     1.0000 0.17669  0.26049  0.93010  Biso   1.000  H
  C286     1.0000 0.23999  0.27749  0.87894  Biso   1.000  C
  H323     1.0000 0.28199  0.21620  0.84739  Biso   1.000  H
  H324     1.0000 0.23010  0.19739  0.87830  Biso   1.000  H
  H325     1.0000 0.93018  0.30832  0.17822  Biso   1.000  H
  H326     1.0000 0.93010  0.32331  0.23951  Biso   1.000  H
  C287     1.0000 0.87894  0.26001  0.22251  Biso   1.000  C
  H327     1.0000 0.93018  0.19168  0.32178  Biso   1.000  H
  H328     1.0000 0.93010  0.17669  0.26049  Biso   1.000  H
  C288     1.0000 0.87894  0.23999  0.27749  Biso   1.000  C
  H329     1.0000 0.21620  0.84739  0.28199  Biso   1.000  H
  H330     1.0000 0.19739  0.87830  0.23010  Biso   1.000  H
  H331     1.0000 0.21801  0.28380  0.84739  Biso   1.000  H
  H332     1.0000 0.26990  0.30261  0.87830  Biso   1.000  H
  H333     1.0000 0.84739  0.28199  0.21620  Biso   1.000  H
  H334     1.0000 0.87830  0.23010  0.19739  Biso   1.000  H
  H335     1.0000 0.84739  0.21801  0.28380  Biso   1.000  H
  H336     1.0000 0.87830  0.26990  0.30261  Biso   1.000  H
  C289     1.0000 0.63457  0.30800  0.61684  Biso   1.000  C
  C290     1.0000 0.67890  0.33943  0.60418  Biso   1.000  C
  H337     1.0000 0.62568  0.27842  0.59582  Biso   1.000  H
  C291     1.0000 0.60418  0.32110  0.66057  Biso   1.000  C
  C292     1.0000 0.71258  0.32391  0.55719  Biso   1.000  C
  C293     1.0000 0.69200  0.38316  0.63457  Biso   1.000  C
  C294     1.0000 0.61684  0.36543  0.69200  Biso   1.000  C
  C295     1.0000 0.55719  0.28742  0.67609  Biso   1.000  C
  N49      1.0000 0.70410  0.28469  0.52584  Biso   1.000  N
  H338     1.0000 0.74260  0.34502  0.55020  Biso   1.000  H
  H339     1.0000 0.72158  0.40418  0.62568  Biso   1.000  H
  C296     1.0000 0.66057  0.39582  0.67890  Biso   1.000  C
  H340     1.0000 0.59582  0.37432  0.72158  Biso   1.000  H
  N50      1.0000 0.52584  0.29590  0.71531  Biso   1.000  N
  H341     1.0000 0.55020  0.25740  0.65498  Biso   1.000  H
  C297     1.0000 0.73891  0.27765  0.48027  Biso   1.000  C
  C298     1.0000 0.67609  0.44281  0.71258  Biso   1.000  C
  C299     1.0000 0.48027  0.26109  0.72235  Biso   1.000  C
  C300     1.0000 0.70651  0.28569  0.43023  Biso   1.000  C
  C301     1.0000 0.76109  0.22235  0.48027  Biso   1.000  C
  H342     1.0000 0.76829  0.30390  0.48159  Biso   1.000  H
  N51      1.0000 0.71531  0.47416  0.70410  Biso   1.000  N
  H343     1.0000 0.65498  0.44980  0.74260  Biso   1.000  H
  C302     1.0000 0.48027  0.23891  0.77765  Biso   1.000  C
  H344     1.0000 0.48159  0.23171  0.69610  Biso   1.000  H
  C303     1.0000 0.43023  0.29349  0.71431  Biso   1.000  C
  H345     1.0000 0.69168  0.32178  0.43018  Biso   1.000  H
  H346     1.0000 0.67669  0.26049  0.43010  Biso   1.000  H
  C304     1.0000 0.73999  0.27749  0.37894  Biso   1.000  C
  N52      1.0000 0.79590  0.21531  0.52584  Biso   1.000  N
  H347     1.0000 0.73171  0.19610  0.48159  Biso   1.000  H
  C305     1.0000 0.79349  0.21431  0.43023  Biso   1.000  C
  C306     1.0000 0.72235  0.51973  0.73891  Biso   1.000  C
  N53      1.0000 0.52584  0.20410  0.78469  Biso   1.000  N
  H348     1.0000 0.48159  0.26829  0.80390  Biso   1.000  H
  C307     1.0000 0.43023  0.20651  0.78569  Biso   1.000  C
  H349     1.0000 0.43018  0.30832  0.67822  Biso   1.000  H
  H350     1.0000 0.43010  0.32331  0.73951  Biso   1.000  H
  C308     1.0000 0.37894  0.26001  0.72251  Biso   1.000  C
  C309     1.0000 0.76001  0.22251  0.37894  Biso   1.000  C
  H351     1.0000 0.71801  0.28380  0.34739  Biso   1.000  H
  H352     1.0000 0.76990  0.30261  0.37830  Biso   1.000  H
  C310     1.0000 0.78742  0.17609  0.55719  Biso   1.000  C
  H353     1.0000 0.80832  0.17822  0.43018  Biso   1.000  H
  H354     1.0000 0.82331  0.23951  0.43010  Biso   1.000  H
  C311     1.0000 0.77765  0.51973  0.76109  Biso   1.000  C
  H355     1.0000 0.69610  0.51841  0.76829  Biso   1.000  H
  C312     1.0000 0.71431  0.56977  0.70651  Biso   1.000  C
  C313     1.0000 0.55719  0.21258  0.82391  Biso   1.000  C
  H356     1.0000 0.43018  0.19168  0.82178  Biso   1.000  H
  H357     1.0000 0.43010  0.17669  0.76049  Biso   1.000  H
  C314     1.0000 0.37894  0.23999  0.77749  Biso   1.000  C
  H358     1.0000 0.34739  0.28199  0.71620  Biso   1.000  H
  H359     1.0000 0.37830  0.23010  0.69739  Biso   1.000  H
  H360     1.0000 0.78199  0.21620  0.34739  Biso   1.000  H
  H361     1.0000 0.73010  0.19739  0.37830  Biso   1.000  H
  C315     1.0000 0.82110  0.16057  0.60418  Biso   1.000  C
  H362     1.0000 0.75740  0.15498  0.55020  Biso   1.000  H
  N54      1.0000 0.78469  0.47416  0.79590  Biso   1.000  N
  H363     1.0000 0.80390  0.51841  0.73171  Biso   1.000  H
  C316     1.0000 0.78569  0.56977  0.79349  Biso   1.000  C
  H364     1.0000 0.67822  0.56982  0.69168  Biso   1.000  H
  H365     1.0000 0.73951  0.56990  0.67669  Biso   1.000  H
  C317     1.0000 0.72251  0.62106  0.73999  Biso   1.000  C
  C318     1.0000 0.60418  0.17890  0.83943  Biso   1.000  C
  H366     1.0000 0.55020  0.24260  0.84502  Biso   1.000  H
  H367     1.0000 0.34739  0.21801  0.78380  Biso   1.000  H
  H368     1.0000 0.37830  0.26990  0.80261  Biso   1.000  H
  C319     1.0000 0.80800  0.11684  0.63457  Biso   1.000  C
  C320     1.0000 0.86543  0.19200  0.61684  Biso   1.000  C
  C321     1.0000 0.82391  0.44281  0.78742  Biso   1.000  C
  H369     1.0000 0.82178  0.56982  0.80832  Biso   1.000  H
  H370     1.0000 0.76049  0.56990  0.82331  Biso   1.000  H
  C322     1.0000 0.77749  0.62106  0.76001  Biso   1.000  C
  H371     1.0000 0.71620  0.65261  0.71801  Biso   1.000  H
  H372     1.0000 0.69739  0.62170  0.76990  Biso   1.000  H
  C323     1.0000 0.63457  0.19200  0.88316  Biso   1.000  C
  C324     1.0000 0.61684  0.13457  0.80800  Biso   1.000  C
  H373     1.0000 0.77842  0.09582  0.62568  Biso   1.000  H
  C325     1.0000 0.83943  0.10418  0.67890  Biso   1.000  C
  H374     1.0000 0.87432  0.22158  0.59582  Biso   1.000  H
  C326     1.0000 0.89582  0.17890  0.66057  Biso   1.000  C
  C327     1.0000 0.83943  0.39582  0.82110  Biso   1.000  C
  H375     1.0000 0.84502  0.44980  0.75740  Biso   1.000  H
  H376     1.0000 0.78380  0.65261  0.78199  Biso   1.000  H
  H377     1.0000 0.80261  0.62170  0.73010  Biso   1.000  H
  H378     1.0000 0.62568  0.22158  0.90418  Biso   1.000  H
  C328     1.0000 0.67890  0.16057  0.89582  Biso   1.000  C
  C329     1.0000 0.66057  0.10418  0.82110  Biso   1.000  C
  H379     1.0000 0.59582  0.12568  0.77842  Biso   1.000  H
  C330     1.0000 0.88316  0.13457  0.69200  Biso   1.000  C
  C331     1.0000 0.82391  0.05719  0.71258  Biso   1.000  C
  C332     1.0000 0.94281  0.21258  0.67609  Biso   1.000  C
  C333     1.0000 0.80800  0.38316  0.86543  Biso   1.000  C
  C334     1.0000 0.88316  0.36543  0.80800  Biso   1.000  C
  C335     1.0000 0.69200  0.11684  0.86543  Biso   1.000  C
  C336     1.0000 0.71258  0.17609  0.94281  Biso   1.000  C
  C337     1.0000 0.67609  0.05719  0.78742  Biso   1.000  C
  H380     1.0000 0.90418  0.12568  0.72158  Biso   1.000  H
  N55      1.0000 0.78469  0.02584  0.70410  Biso   1.000  N
  H381     1.0000 0.84502  0.05020  0.74260  Biso   1.000  H
  N56      1.0000 0.97416  0.20410  0.71531  Biso   1.000  N
  H382     1.0000 0.94980  0.24260  0.65498  Biso   1.000  H
  H383     1.0000 0.77842  0.40418  0.87432  Biso   1.000  H
  C338     1.0000 0.82110  0.33943  0.89582  Biso   1.000  C
  C339     1.0000 0.89582  0.32110  0.83943  Biso   1.000  C
  H384     1.0000 0.90418  0.37432  0.77842  Biso   1.000  H
  H385     1.0000 0.72158  0.09582  0.87432  Biso   1.000  H
  N57      1.0000 0.70410  0.21531  0.97416  Biso   1.000  N
  H386     1.0000 0.74260  0.15498  0.94980  Biso   1.000  H
  N58      1.0000 0.71531  0.02584  0.79590  Biso   1.000  N
  H387     1.0000 0.65498  0.05020  0.75740  Biso   1.000  H
  C340     1.0000 0.77765  0.98027  0.73891  Biso   1.000  C
  C341     1.0000 0.01973  0.23891  0.72235  Biso   1.000  C
  C342     1.0000 0.86543  0.30800  0.88316  Biso   1.000  C
  C343     1.0000 0.78742  0.32391  0.94281  Biso   1.000  C
  C344     1.0000 0.94281  0.28742  0.82391  Biso   1.000  C
  C345     1.0000 0.73891  0.22235  0.01973  Biso   1.000  C
  C346     1.0000 0.72235  0.98027  0.76109  Biso   1.000  C
  H388     1.0000 0.80390  0.98159  0.76829  Biso   1.000  H
  C347     1.0000 0.78569  0.93023  0.70651  Biso   1.000  C
  C348     1.0000 0.01973  0.26109  0.77765  Biso   1.000  C
  H389     1.0000 0.01841  0.26829  0.69610  Biso   1.000  H
  C349     1.0000 0.06977  0.20651  0.71431  Biso   1.000  C
  H390     1.0000 0.87432  0.27842  0.90418  Biso   1.000  H
  N59      1.0000 0.79590  0.28469  0.97416  Biso   1.000  N
  H391     1.0000 0.75740  0.34502  0.94980  Biso   1.000  H
  N60      1.0000 0.97416  0.29590  0.78469  Biso   1.000  N
  H392     1.0000 0.94980  0.25740  0.84502  Biso   1.000  H
  C350     1.0000 0.76109  0.27765  0.01973  Biso   1.000  C
  H393     1.0000 0.76829  0.19610  0.01841  Biso   1.000  H
  C351     1.0000 0.70651  0.21431  0.06977  Biso   1.000  C
  H394     1.0000 0.69610  0.98159  0.73171  Biso   1.000  H
  C352     1.0000 0.71431  0.93023  0.79349  Biso   1.000  C
  H395     1.0000 0.82178  0.93018  0.69168  Biso   1.000  H
  H396     1.0000 0.76049  0.93010  0.67669  Biso   1.000  H
  C353     1.0000 0.77749  0.87894  0.73999  Biso   1.000  C
  H397     1.0000 0.01841  0.23171  0.80390  Biso   1.000  H
  C354     1.0000 0.06977  0.29349  0.78569  Biso   1.000  C
  H398     1.0000 0.06982  0.19168  0.67822  Biso   1.000  H
  H399     1.0000 0.06990  0.17669  0.73951  Biso   1.000  H
  C355     1.0000 0.12106  0.23999  0.72251  Biso   1.000  C
  H400     1.0000 0.73171  0.30390  0.01841  Biso   1.000  H
  C356     1.0000 0.79349  0.28569  0.06977  Biso   1.000  C
  H401     1.0000 0.69168  0.17822  0.06982  Biso   1.000  H
  H402     1.0000 0.67669  0.23951  0.06990  Biso   1.000  H
  C357     1.0000 0.73999  0.22251  0.12106  Biso   1.000  C
  H403     1.0000 0.67822  0.93018  0.80832  Biso   1.000  H
  H404     1.0000 0.73951  0.93010  0.82331  Biso   1.000  H
  C358     1.0000 0.72251  0.87894  0.76001  Biso   1.000  C
  H405     1.0000 0.78380  0.84739  0.71801  Biso   1.000  H
  H406     1.0000 0.80261  0.87830  0.76990  Biso   1.000  H
  H407     1.0000 0.06982  0.30832  0.82178  Biso   1.000  H
  H408     1.0000 0.06990  0.32331  0.76049  Biso   1.000  H
  C359     1.0000 0.12106  0.26001  0.77749  Biso   1.000  C
  H409     1.0000 0.15261  0.21801  0.71620  Biso   1.000  H
  H410     1.0000 0.12170  0.26990  0.69739  Biso   1.000  H
  H411     1.0000 0.80832  0.32178  0.06982  Biso   1.000  H
  H412     1.0000 0.82331  0.26049  0.06990  Biso   1.000  H
  C360     1.0000 0.76001  0.27749  0.12106  Biso   1.000  C
  H413     1.0000 0.71801  0.21620  0.15261  Biso   1.000  H
  H414     1.0000 0.76990  0.19739  0.12170  Biso   1.000  H
  H415     1.0000 0.71620  0.84739  0.78199  Biso   1.000  H
  H416     1.0000 0.69739  0.87830  0.73010  Biso   1.000  H
  H417     1.0000 0.15261  0.28199  0.78380  Biso   1.000  H
  H418     1.0000 0.12170  0.23010  0.80261  Biso   1.000  H
  H419     1.0000 0.78199  0.28380  0.15261  Biso   1.000  H
  H420     1.0000 0.73010  0.30261  0.12170  Biso   1.000  H
  C361     1.0000 0.61684  0.63457  0.30800  Biso   1.000  C
  C362     1.0000 0.66057  0.60418  0.32110  Biso   1.000  C
  H421     1.0000 0.59582  0.62568  0.27842  Biso   1.000  H
  C363     1.0000 0.60418  0.67890  0.33943  Biso   1.000  C
  C364     1.0000 0.67609  0.55719  0.28742  Biso   1.000  C
  C365     1.0000 0.69200  0.61684  0.36543  Biso   1.000  C
  C366     1.0000 0.63457  0.69200  0.38316  Biso   1.000  C
  C367     1.0000 0.55719  0.71258  0.32391  Biso   1.000  C
  N61      1.0000 0.71531  0.52584  0.29590  Biso   1.000  N
  H422     1.0000 0.65498  0.55020  0.25740  Biso   1.000  H
  H423     1.0000 0.72158  0.59582  0.37432  Biso   1.000  H
  C368     1.0000 0.67890  0.66057  0.39582  Biso   1.000  C
  H424     1.0000 0.62568  0.72158  0.40418  Biso   1.000  H
  N62      1.0000 0.52584  0.70410  0.28469  Biso   1.000  N
  H425     1.0000 0.55020  0.74260  0.34502  Biso   1.000  H
  C369     1.0000 0.72235  0.48027  0.26109  Biso   1.000  C
  C370     1.0000 0.71258  0.67609  0.44281  Biso   1.000  C
  C371     1.0000 0.48027  0.73891  0.27765  Biso   1.000  C
  C372     1.0000 0.71431  0.43023  0.29349  Biso   1.000  C
  C373     1.0000 0.77765  0.48027  0.23891  Biso   1.000  C
  H426     1.0000 0.69610  0.48159  0.23171  Biso   1.000  H
  N63      1.0000 0.70410  0.71531  0.47416  Biso   1.000  N
  H427     1.0000 0.74260  0.65498  0.44980  Biso   1.000  H
  C374     1.0000 0.48027  0.76109  0.22235  Biso   1.000  C
  H428     1.0000 0.48159  0.76829  0.30390  Biso   1.000  H
  C375     1.0000 0.43023  0.70651  0.28569  Biso   1.000  C
  C376     1.0000 0.72251  0.37894  0.26001  Biso   1.000  C
  H429     1.0000 0.67822  0.43018  0.30832  Biso   1.000  H
  H430     1.0000 0.73951  0.43010  0.32331  Biso   1.000  H
  C377     1.0000 0.78569  0.43023  0.20651  Biso   1.000  C
  N64      1.0000 0.78469  0.52584  0.20410  Biso   1.000  N
  H431     1.0000 0.80390  0.48159  0.26829  Biso   1.000  H
  C378     1.0000 0.73891  0.72235  0.51973  Biso   1.000  C
  N65      1.0000 0.52584  0.79590  0.21531  Biso   1.000  N
  H432     1.0000 0.48159  0.73171  0.19610  Biso   1.000  H
  C379     1.0000 0.43023  0.79349  0.21431  Biso   1.000  C
  H433     1.0000 0.43018  0.69168  0.32178  Biso   1.000  H
  H434     1.0000 0.43010  0.67669  0.26049  Biso   1.000  H
  C380     1.0000 0.37894  0.73999  0.27749  Biso   1.000  C
  C381     1.0000 0.77749  0.37894  0.23999  Biso   1.000  C
  H435     1.0000 0.71620  0.34739  0.28199  Biso   1.000  H
  H436     1.0000 0.69739  0.37830  0.23010  Biso   1.000  H
  H437     1.0000 0.82178  0.43018  0.19168  Biso   1.000  H
  H438     1.0000 0.76049  0.43010  0.17669  Biso   1.000  H
  C382     1.0000 0.82391  0.55719  0.21258  Biso   1.000  C
  C383     1.0000 0.76109  0.77765  0.51973  Biso   1.000  C
  H439     1.0000 0.76829  0.69610  0.51841  Biso   1.000  H
  C384     1.0000 0.70651  0.71431  0.56977  Biso   1.000  C
  C385     1.0000 0.55719  0.78742  0.17609  Biso   1.000  C
  H440     1.0000 0.43018  0.80832  0.17822  Biso   1.000  H
  H441     1.0000 0.43010  0.82331  0.23951  Biso   1.000  H
  C386     1.0000 0.37894  0.76001  0.22251  Biso   1.000  C
  H442     1.0000 0.34739  0.71801  0.28380  Biso   1.000  H
  H443     1.0000 0.37830  0.76990  0.30261  Biso   1.000  H
  H444     1.0000 0.78380  0.34739  0.21801  Biso   1.000  H
  H445     1.0000 0.80261  0.37830  0.26990  Biso   1.000  H
  C387     1.0000 0.83943  0.60418  0.17890  Biso   1.000  C
  H446     1.0000 0.84502  0.55020  0.24260  Biso   1.000  H
  N66      1.0000 0.79590  0.78469  0.47416  Biso   1.000  N
  H447     1.0000 0.73171  0.80390  0.51841  Biso   1.000  H
  C388     1.0000 0.79349  0.78569  0.56977  Biso   1.000  C
  H448     1.0000 0.69168  0.67822  0.56982  Biso   1.000  H
  H449     1.0000 0.67669  0.73951  0.56990  Biso   1.000  H
  C389     1.0000 0.73999  0.72251  0.62106  Biso   1.000  C
  C390     1.0000 0.60418  0.82110  0.16057  Biso   1.000  C
  H450     1.0000 0.55020  0.75740  0.15498  Biso   1.000  H
  H451     1.0000 0.34739  0.78199  0.21620  Biso   1.000  H
  H452     1.0000 0.37830  0.73010  0.19739  Biso   1.000  H
  C391     1.0000 0.80800  0.61684  0.13457  Biso   1.000  C
  C392     1.0000 0.88316  0.63457  0.19200  Biso   1.000  C
  C393     1.0000 0.78742  0.82391  0.44281  Biso   1.000  C
  H453     1.0000 0.80832  0.82178  0.56982  Biso   1.000  H
  H454     1.0000 0.82331  0.76049  0.56990  Biso   1.000  H
  C394     1.0000 0.76001  0.77749  0.62106  Biso   1.000  C
  H455     1.0000 0.71801  0.71620  0.65261  Biso   1.000  H
  H456     1.0000 0.76990  0.69739  0.62170  Biso   1.000  H
  C395     1.0000 0.63457  0.80800  0.11684  Biso   1.000  C
  C396     1.0000 0.61684  0.86543  0.19200  Biso   1.000  C
  H457     1.0000 0.77842  0.59582  0.12568  Biso   1.000  H
  C397     1.0000 0.82110  0.66057  0.10418  Biso   1.000  C
  H458     1.0000 0.90418  0.62568  0.22158  Biso   1.000  H
  C398     1.0000 0.89582  0.67890  0.16057  Biso   1.000  C
  C399     1.0000 0.82110  0.83943  0.39582  Biso   1.000  C
  H459     1.0000 0.75740  0.84502  0.44980  Biso   1.000  H
  H460     1.0000 0.78199  0.78380  0.65261  Biso   1.000  H
  H461     1.0000 0.73010  0.80261  0.62170  Biso   1.000  H
  C400     1.0000 0.67890  0.83943  0.10418  Biso   1.000  C
  H462     1.0000 0.62568  0.77842  0.09582  Biso   1.000  H
  H463     1.0000 0.59582  0.87432  0.22158  Biso   1.000  H
  C401     1.0000 0.66057  0.89582  0.17890  Biso   1.000  C
  C402     1.0000 0.86543  0.69200  0.11684  Biso   1.000  C
  C403     1.0000 0.78742  0.67609  0.05719  Biso   1.000  C
  C404     1.0000 0.94281  0.71258  0.17609  Biso   1.000  C
  C405     1.0000 0.86543  0.80800  0.38316  Biso   1.000  C
  C406     1.0000 0.80800  0.88316  0.36543  Biso   1.000  C
  C407     1.0000 0.71258  0.82391  0.05719  Biso   1.000  C
  C408     1.0000 0.69200  0.88316  0.13457  Biso   1.000  C
  C409     1.0000 0.67609  0.94281  0.21258  Biso   1.000  C
  H464     1.0000 0.87432  0.72158  0.09582  Biso   1.000  H
  N67      1.0000 0.79590  0.71531  0.02584  Biso   1.000  N
  H465     1.0000 0.75740  0.65498  0.05020  Biso   1.000  H
  N68      1.0000 0.97416  0.70410  0.21531  Biso   1.000  N
  H466     1.0000 0.94980  0.74260  0.15498  Biso   1.000  H
  C410     1.0000 0.89582  0.82110  0.33943  Biso   1.000  C
  H467     1.0000 0.87432  0.77842  0.40418  Biso   1.000  H
  H468     1.0000 0.77842  0.90418  0.37432  Biso   1.000  H
  C411     1.0000 0.83943  0.89582  0.32110  Biso   1.000  C
  N69      1.0000 0.70410  0.78469  0.02584  Biso   1.000  N
  H469     1.0000 0.74260  0.84502  0.05020  Biso   1.000  H
  H470     1.0000 0.72158  0.90418  0.12568  Biso   1.000  H
  N70      1.0000 0.71531  0.97416  0.20410  Biso   1.000  N
  H471     1.0000 0.65498  0.94980  0.24260  Biso   1.000  H
  C412     1.0000 0.76109  0.72235  0.98027  Biso   1.000  C
  C413     1.0000 0.01973  0.73891  0.22235  Biso   1.000  C
  C414     1.0000 0.94281  0.78742  0.32391  Biso   1.000  C
  C415     1.0000 0.88316  0.86543  0.30800  Biso   1.000  C
  C416     1.0000 0.82391  0.94281  0.28742  Biso   1.000  C
  C417     1.0000 0.73891  0.77765  0.98027  Biso   1.000  C
  C418     1.0000 0.72235  0.01973  0.23891  Biso   1.000  C
  H472     1.0000 0.73171  0.69610  0.98159  Biso   1.000  H
  C419     1.0000 0.79349  0.71431  0.93023  Biso   1.000  C
  C420     1.0000 0.01973  0.76109  0.27765  Biso   1.000  C
  H473     1.0000 0.01841  0.76829  0.19610  Biso   1.000  H
  C421     1.0000 0.06977  0.70651  0.21431  Biso   1.000  C
  N71      1.0000 0.97416  0.79590  0.28469  Biso   1.000  N
  H474     1.0000 0.94980  0.75740  0.34502  Biso   1.000  H
  H475     1.0000 0.90418  0.87432  0.27842  Biso   1.000  H
  N72      1.0000 0.78469  0.97416  0.29590  Biso   1.000  N
  H476     1.0000 0.84502  0.94980  0.25740  Biso   1.000  H
  H477     1.0000 0.76829  0.80390  0.98159  Biso   1.000  H
  C422     1.0000 0.70651  0.78569  0.93023  Biso   1.000  C
  C423     1.0000 0.77765  0.01973  0.26109  Biso   1.000  C
  H478     1.0000 0.69610  0.01841  0.26829  Biso   1.000  H
  C424     1.0000 0.71431  0.06977  0.20651  Biso   1.000  C
  H479     1.0000 0.80832  0.67822  0.93018  Biso   1.000  H
  H480     1.0000 0.82331  0.73951  0.93010  Biso   1.000  H
  C425     1.0000 0.76001  0.72251  0.87894  Biso   1.000  C
  H481     1.0000 0.01841  0.73171  0.30390  Biso   1.000  H
  C426     1.0000 0.06977  0.79349  0.28569  Biso   1.000  C
  H482     1.0000 0.06982  0.69168  0.17822  Biso   1.000  H
  H483     1.0000 0.06990  0.67669  0.23951  Biso   1.000  H
  C427     1.0000 0.12106  0.73999  0.22251  Biso   1.000  C
  H484     1.0000 0.69168  0.82178  0.93018  Biso   1.000  H
  H485     1.0000 0.67669  0.76049  0.93010  Biso   1.000  H
  C428     1.0000 0.73999  0.77749  0.87894  Biso   1.000  C
  H486     1.0000 0.80390  0.01841  0.23171  Biso   1.000  H
  C429     1.0000 0.78569  0.06977  0.29349  Biso   1.000  C
  H487     1.0000 0.67822  0.06982  0.19168  Biso   1.000  H
  H488     1.0000 0.73951  0.06990  0.17669  Biso   1.000  H
  C430     1.0000 0.72251  0.12106  0.23999  Biso   1.000  C
  H489     1.0000 0.78199  0.71620  0.84739  Biso   1.000  H
  H490     1.0000 0.73010  0.69739  0.87830  Biso   1.000  H
  H491     1.0000 0.06982  0.80832  0.32178  Biso   1.000  H
  H492     1.0000 0.06990  0.82331  0.26049  Biso   1.000  H
  C431     1.0000 0.12106  0.76001  0.27749  Biso   1.000  C
  H493     1.0000 0.15261  0.71801  0.21620  Biso   1.000  H
  H494     1.0000 0.12170  0.76990  0.19739  Biso   1.000  H
  H495     1.0000 0.71801  0.78380  0.84739  Biso   1.000  H
  H496     1.0000 0.76990  0.80261  0.87830  Biso   1.000  H
  H497     1.0000 0.82178  0.06982  0.30832  Biso   1.000  H
  H498     1.0000 0.76049  0.06990  0.32331  Biso   1.000  H
  C432     1.0000 0.77749  0.12106  0.26001  Biso   1.000  C
  H499     1.0000 0.71620  0.15261  0.21801  Biso   1.000  H
  H500     1.0000 0.69739  0.12170  0.26990  Biso   1.000  H
  H501     1.0000 0.15261  0.78199  0.28380  Biso   1.000  H
  H502     1.0000 0.12170  0.73010  0.30261  Biso   1.000  H
  H503     1.0000 0.78380  0.15261  0.28199  Biso   1.000  H
  H504     1.0000 0.80261  0.12170  0.23010  Biso   1.000  H
  C433     1.0000 0.30800  0.61684  0.63457  Biso   1.000  C
  C434     1.0000 0.32110  0.66057  0.60418  Biso   1.000  C
  H505     1.0000 0.27842  0.59582  0.62568  Biso   1.000  H
  C435     1.0000 0.33943  0.60418  0.67890  Biso   1.000  C
  C436     1.0000 0.28742  0.67609  0.55719  Biso   1.000  C
  C437     1.0000 0.36543  0.69200  0.61684  Biso   1.000  C
  C438     1.0000 0.38316  0.63457  0.69200  Biso   1.000  C
  C439     1.0000 0.32391  0.55719  0.71258  Biso   1.000  C
  N73      1.0000 0.29590  0.71531  0.52584  Biso   1.000  N
  H506     1.0000 0.25740  0.65498  0.55020  Biso   1.000  H
  H507     1.0000 0.37432  0.72158  0.59582  Biso   1.000  H
  C440     1.0000 0.39582  0.67890  0.66057  Biso   1.000  C
  H508     1.0000 0.40418  0.62568  0.72158  Biso   1.000  H
  N74      1.0000 0.28469  0.52584  0.70410  Biso   1.000  N
  H509     1.0000 0.34502  0.55020  0.74260  Biso   1.000  H
  C441     1.0000 0.26109  0.72235  0.48027  Biso   1.000  C
  C442     1.0000 0.44281  0.71258  0.67609  Biso   1.000  C
  C443     1.0000 0.27765  0.48027  0.73891  Biso   1.000  C
  C444     1.0000 0.29349  0.71431  0.43023  Biso   1.000  C
  C445     1.0000 0.23891  0.77765  0.48027  Biso   1.000  C
  H510     1.0000 0.23171  0.69610  0.48159  Biso   1.000  H
  N75      1.0000 0.47416  0.70410  0.71531  Biso   1.000  N
  H511     1.0000 0.44980  0.74260  0.65498  Biso   1.000  H
  C446     1.0000 0.22235  0.48027  0.76109  Biso   1.000  C
  H512     1.0000 0.30390  0.48159  0.76829  Biso   1.000  H
  C447     1.0000 0.28569  0.43023  0.70651  Biso   1.000  C
  C448     1.0000 0.26001  0.72251  0.37894  Biso   1.000  C
  H513     1.0000 0.30832  0.67822  0.43018  Biso   1.000  H
  H514     1.0000 0.32331  0.73951  0.43010  Biso   1.000  H
  C449     1.0000 0.20651  0.78569  0.43023  Biso   1.000  C
  N76      1.0000 0.20410  0.78469  0.52584  Biso   1.000  N
  H515     1.0000 0.26829  0.80390  0.48159  Biso   1.000  H
  C450     1.0000 0.51973  0.73891  0.72235  Biso   1.000  C
  N77      1.0000 0.21531  0.52584  0.79590  Biso   1.000  N
  H516     1.0000 0.19610  0.48159  0.73171  Biso   1.000  H
  C451     1.0000 0.21431  0.43023  0.79349  Biso   1.000  C
  H517     1.0000 0.32178  0.43018  0.69168  Biso   1.000  H
  H518     1.0000 0.26049  0.43010  0.67669  Biso   1.000  H
  C452     1.0000 0.27749  0.37894  0.73999  Biso   1.000  C
  C453     1.0000 0.23999  0.77749  0.37894  Biso   1.000  C
  H519     1.0000 0.28199  0.71620  0.34739  Biso   1.000  H
  H520     1.0000 0.23010  0.69739  0.37830  Biso   1.000  H
  H521     1.0000 0.19168  0.82178  0.43018  Biso   1.000  H
  H522     1.0000 0.17669  0.76049  0.43010  Biso   1.000  H
  C454     1.0000 0.21258  0.82391  0.55719  Biso   1.000  C
  C455     1.0000 0.51973  0.76109  0.77765  Biso   1.000  C
  H523     1.0000 0.51841  0.76829  0.69610  Biso   1.000  H
  C456     1.0000 0.56977  0.70651  0.71431  Biso   1.000  C
  C457     1.0000 0.17609  0.55719  0.78742  Biso   1.000  C
  H524     1.0000 0.17822  0.43018  0.80832  Biso   1.000  H
  H525     1.0000 0.23951  0.43010  0.82331  Biso   1.000  H
  C458     1.0000 0.22251  0.37894  0.76001  Biso   1.000  C
  H526     1.0000 0.28380  0.34739  0.71801  Biso   1.000  H
  H527     1.0000 0.30261  0.37830  0.76990  Biso   1.000  H
  H528     1.0000 0.21801  0.78380  0.34739  Biso   1.000  H
  H529     1.0000 0.26990  0.80261  0.37830  Biso   1.000  H
  C459     1.0000 0.17890  0.83943  0.60418  Biso   1.000  C
  H530     1.0000 0.24260  0.84502  0.55020  Biso   1.000  H
  N78      1.0000 0.47416  0.79590  0.78469  Biso   1.000  N
  H531     1.0000 0.51841  0.73171  0.80390  Biso   1.000  H
  C460     1.0000 0.56977  0.79349  0.78569  Biso   1.000  C
  H532     1.0000 0.56982  0.69168  0.67822  Biso   1.000  H
  H533     1.0000 0.56990  0.67669  0.73951  Biso   1.000  H
  C461     1.0000 0.62106  0.73999  0.72251  Biso   1.000  C
  C462     1.0000 0.16057  0.60418  0.82110  Biso   1.000  C
  H534     1.0000 0.15498  0.55020  0.75740  Biso   1.000  H
  H535     1.0000 0.21620  0.34739  0.78199  Biso   1.000  H
  H536     1.0000 0.19739  0.37830  0.73010  Biso   1.000  H
  C463     1.0000 0.13457  0.80800  0.61684  Biso   1.000  C
  C464     1.0000 0.19200  0.88316  0.63457  Biso   1.000  C
  C465     1.0000 0.44281  0.78742  0.82391  Biso   1.000  C
  H537     1.0000 0.56982  0.80832  0.82178  Biso   1.000  H
  H538     1.0000 0.56990  0.82331  0.76049  Biso   1.000  H
  C466     1.0000 0.62106  0.76001  0.77749  Biso   1.000  C
  H539     1.0000 0.65261  0.71801  0.71620  Biso   1.000  H
  H540     1.0000 0.62170  0.76990  0.69739  Biso   1.000  H
  C467     1.0000 0.11684  0.63457  0.80800  Biso   1.000  C
  C468     1.0000 0.19200  0.61684  0.86543  Biso   1.000  C
  H541     1.0000 0.12568  0.77842  0.59582  Biso   1.000  H
  C469     1.0000 0.10418  0.82110  0.66057  Biso   1.000  C
  H542     1.0000 0.22158  0.90418  0.62568  Biso   1.000  H
  C470     1.0000 0.16057  0.89582  0.67890  Biso   1.000  C
  C471     1.0000 0.39582  0.82110  0.83943  Biso   1.000  C
  H543     1.0000 0.44980  0.75740  0.84502  Biso   1.000  H
  H544     1.0000 0.65261  0.78199  0.78380  Biso   1.000  H
  H545     1.0000 0.62170  0.73010  0.80261  Biso   1.000  H
  C472     1.0000 0.10418  0.67890  0.83943  Biso   1.000  C
  H546     1.0000 0.09582  0.62568  0.77842  Biso   1.000  H
  H547     1.0000 0.22158  0.59582  0.87432  Biso   1.000  H
  C473     1.0000 0.17890  0.66057  0.89582  Biso   1.000  C
  C474     1.0000 0.11684  0.86543  0.69200  Biso   1.000  C
  C475     1.0000 0.05719  0.78742  0.67609  Biso   1.000  C
  C476     1.0000 0.17609  0.94281  0.71258  Biso   1.000  C
  C477     1.0000 0.38316  0.86543  0.80800  Biso   1.000  C
  C478     1.0000 0.36543  0.80800  0.88316  Biso   1.000  C
  C479     1.0000 0.05719  0.71258  0.82391  Biso   1.000  C
  C480     1.0000 0.13457  0.69200  0.88316  Biso   1.000  C
  C481     1.0000 0.21258  0.67609  0.94281  Biso   1.000  C
  H548     1.0000 0.09582  0.87432  0.72158  Biso   1.000  H
  N79      1.0000 0.02584  0.79590  0.71531  Biso   1.000  N
  H549     1.0000 0.05020  0.75740  0.65498  Biso   1.000  H
  N80      1.0000 0.21531  0.97416  0.70410  Biso   1.000  N
  H550     1.0000 0.15498  0.94980  0.74260  Biso   1.000  H
  C482     1.0000 0.33943  0.89582  0.82110  Biso   1.000  C
  H551     1.0000 0.40418  0.87432  0.77842  Biso   1.000  H
  H552     1.0000 0.37432  0.77842  0.90418  Biso   1.000  H
  C483     1.0000 0.32110  0.83943  0.89582  Biso   1.000  C
  N81      1.0000 0.02584  0.70410  0.78469  Biso   1.000  N
  H553     1.0000 0.05020  0.74260  0.84502  Biso   1.000  H
  H554     1.0000 0.12568  0.72158  0.90418  Biso   1.000  H
  N82      1.0000 0.20410  0.71531  0.97416  Biso   1.000  N
  H555     1.0000 0.24260  0.65498  0.94980  Biso   1.000  H
  C484     1.0000 0.98027  0.76109  0.72235  Biso   1.000  C
  C485     1.0000 0.22235  0.01973  0.73891  Biso   1.000  C
  C486     1.0000 0.32391  0.94281  0.78742  Biso   1.000  C
  C487     1.0000 0.30800  0.88316  0.86543  Biso   1.000  C
  C488     1.0000 0.28742  0.82391  0.94281  Biso   1.000  C
  C489     1.0000 0.98027  0.73891  0.77765  Biso   1.000  C
  C490     1.0000 0.23891  0.72235  0.01973  Biso   1.000  C
  H556     1.0000 0.98159  0.73171  0.69610  Biso   1.000  H
  C491     1.0000 0.93023  0.79349  0.71431  Biso   1.000  C
  C492     1.0000 0.27765  0.01973  0.76109  Biso   1.000  C
  H557     1.0000 0.19610  0.01841  0.76829  Biso   1.000  H
  C493     1.0000 0.21431  0.06977  0.70651  Biso   1.000  C
  N83      1.0000 0.28469  0.97416  0.79590  Biso   1.000  N
  H558     1.0000 0.34502  0.94980  0.75740  Biso   1.000  H
  H559     1.0000 0.27842  0.90418  0.87432  Biso   1.000  H
  N84      1.0000 0.29590  0.78469  0.97416  Biso   1.000  N
  H560     1.0000 0.25740  0.84502  0.94980  Biso   1.000  H
  H561     1.0000 0.98159  0.76829  0.80390  Biso   1.000  H
  C494     1.0000 0.93023  0.70651  0.78569  Biso   1.000  C
  C495     1.0000 0.26109  0.77765  0.01973  Biso   1.000  C
  H562     1.0000 0.26829  0.69610  0.01841  Biso   1.000  H
  C496     1.0000 0.20651  0.71431  0.06977  Biso   1.000  C
  H563     1.0000 0.93018  0.80832  0.67822  Biso   1.000  H
  H564     1.0000 0.93010  0.82331  0.73951  Biso   1.000  H
  C497     1.0000 0.87894  0.76001  0.72251  Biso   1.000  C
  H565     1.0000 0.30390  0.01841  0.73171  Biso   1.000  H
  C498     1.0000 0.28569  0.06977  0.79349  Biso   1.000  C
  H566     1.0000 0.17822  0.06982  0.69168  Biso   1.000  H
  H567     1.0000 0.23951  0.06990  0.67669  Biso   1.000  H
  C499     1.0000 0.22251  0.12106  0.73999  Biso   1.000  C
  H568     1.0000 0.93018  0.69168  0.82178  Biso   1.000  H
  H569     1.0000 0.93010  0.67669  0.76049  Biso   1.000  H
  C500     1.0000 0.87894  0.73999  0.77749  Biso   1.000  C
  H570     1.0000 0.23171  0.80390  0.01841  Biso   1.000  H
  C501     1.0000 0.29349  0.78569  0.06977  Biso   1.000  C
  H571     1.0000 0.19168  0.67822  0.06982  Biso   1.000  H
  H572     1.0000 0.17669  0.73951  0.06990  Biso   1.000  H
  C502     1.0000 0.23999  0.72251  0.12106  Biso   1.000  C
  H573     1.0000 0.84739  0.78199  0.71620  Biso   1.000  H
  H574     1.0000 0.87830  0.73010  0.69739  Biso   1.000  H
  H575     1.0000 0.32178  0.06982  0.80832  Biso   1.000  H
  H576     1.0000 0.26049  0.06990  0.82331  Biso   1.000  H
  C503     1.0000 0.27749  0.12106  0.76001  Biso   1.000  C
  H577     1.0000 0.21620  0.15261  0.71801  Biso   1.000  H
  H578     1.0000 0.19739  0.12170  0.76990  Biso   1.000  H
  H579     1.0000 0.84739  0.71801  0.78380  Biso   1.000  H
  H580     1.0000 0.87830  0.76990  0.80261  Biso   1.000  H
  H581     1.0000 0.30832  0.82178  0.06982  Biso   1.000  H
  H582     1.0000 0.32331  0.76049  0.06990  Biso   1.000  H
  C504     1.0000 0.26001  0.77749  0.12106  Biso   1.000  C
  H583     1.0000 0.21801  0.71620  0.15261  Biso   1.000  H
  H584     1.0000 0.26990  0.69739  0.12170  Biso   1.000  H
  H585     1.0000 0.28380  0.15261  0.78199  Biso   1.000  H
  H586     1.0000 0.30261  0.12170  0.73010  Biso   1.000  H
  H587     1.0000 0.28199  0.78380  0.15261  Biso   1.000  H
  H588     1.0000 0.23010  0.80261  0.12170  Biso   1.000  H
