data_image0
_cell_length_a       24.923
_cell_length_b       24.923
_cell_length_c       24.923
_cell_angle_alpha    90
_cell_angle_beta     90
_cell_angle_gamma    90

_symmetry_space_group_name_H-M    "P 1"
_symmetry_int_tables_number       1

loop_
  _symmetry_equiv_pos_as_xyz
  'x, y, z'

loop_
  _atom_site_label
  _atom_site_occupancy
  _atom_site_fract_x
  _atom_site_fract_y
  _atom_site_fract_z
  _atom_site_thermal_displace_type
  _atom_site_B_iso_or_equiv
  _atom_site_type_symbol
  C1       1.0000 0.44120  0.38619  0.36681  Biso   1.000  C
  C2       1.0000 0.43089  0.35650  0.41211  Biso   1.000  C
  C3       1.0000 0.41211  0.43089  0.35650  Biso   1.000  C
  H1       1.0000 0.46880  0.37552  0.34282  Biso   1.000  H
  C4       1.0000 0.38619  0.36681  0.44120  Biso   1.000  C
  C5       1.0000 0.46299  0.30971  0.42619  Biso   1.000  C
  C6       1.0000 0.36681  0.44120  0.38619  Biso   1.000  C
  C7       1.0000 0.42619  0.46299  0.30971  Biso   1.000  C
  C8       1.0000 0.35650  0.41211  0.43089  Biso   1.000  C
  H2       1.0000 0.37552  0.34282  0.46880  Biso   1.000  H
  N1       1.0000 0.45520  0.27629  0.46720  Biso   1.000  N
  H3       1.0000 0.49272  0.30221  0.40360  Biso   1.000  H
  H4       1.0000 0.34282  0.46880  0.37552  Biso   1.000  H
  N2       1.0000 0.46720  0.45520  0.27629  Biso   1.000  N
  H5       1.0000 0.40360  0.49272  0.30221  Biso   1.000  H
  C9       1.0000 0.30971  0.42619  0.46299  Biso   1.000  C
  C10      1.0000 0.48798  0.22951  0.47282  Biso   1.000  C
  C11      1.0000 0.47282  0.48798  0.22951  Biso   1.000  C
  N3       1.0000 0.27629  0.46720  0.45520  Biso   1.000  N
  H6       1.0000 0.30221  0.40360  0.49272  Biso   1.000  H
  C12      1.0000 0.51202  0.22951  0.52718  Biso   1.000  C
  H7       1.0000 0.51731  0.23051  0.44541  Biso   1.000  H
  C13      1.0000 0.45600  0.17999  0.46519  Biso   1.000  C
  C14      1.0000 0.52718  0.51202  0.22951  Biso   1.000  C
  H8       1.0000 0.44541  0.51731  0.23051  Biso   1.000  H
  C15      1.0000 0.46519  0.45600  0.17999  Biso   1.000  C
  C16      1.0000 0.22951  0.47282  0.48798  Biso   1.000  C
  N4       1.0000 0.54480  0.27629  0.53280  Biso   1.000  N
  H9       1.0000 0.48269  0.23051  0.55459  Biso   1.000  H
  C17      1.0000 0.54400  0.17999  0.53481  Biso   1.000  C
  H10      1.0000 0.44052  0.18032  0.42868  Biso   1.000  H
  H11      1.0000 0.42591  0.18020  0.49111  Biso   1.000  H
  C18      1.0000 0.48778  0.12860  0.47262  Biso   1.000  C
  N5       1.0000 0.53280  0.54480  0.27629  Biso   1.000  N
  H12      1.0000 0.55459  0.48269  0.23051  Biso   1.000  H
  C19      1.0000 0.53481  0.54400  0.17999  Biso   1.000  C
  H13      1.0000 0.42868  0.44052  0.18032  Biso   1.000  H
  H14      1.0000 0.49111  0.42591  0.18020  Biso   1.000  H
  C20      1.0000 0.47262  0.48778  0.12860  Biso   1.000  C
  C21      1.0000 0.22951  0.52718  0.51202  Biso   1.000  C
  H15      1.0000 0.23051  0.44541  0.51731  Biso   1.000  H
  C22      1.0000 0.17999  0.46519  0.45600  Biso   1.000  C
  C23      1.0000 0.53701  0.30971  0.57381  Biso   1.000  C
  H16      1.0000 0.55948  0.18032  0.57132  Biso   1.000  H
  H17      1.0000 0.57409  0.18020  0.50889  Biso   1.000  H
  C24      1.0000 0.51222  0.12860  0.52738  Biso   1.000  C
  H18      1.0000 0.46391  0.09710  0.46840  Biso   1.000  H
  H19      1.0000 0.51631  0.12619  0.44509  Biso   1.000  H
  C25      1.0000 0.57381  0.53701  0.30971  Biso   1.000  C
  H20      1.0000 0.57132  0.55948  0.18032  Biso   1.000  H
  H21      1.0000 0.50889  0.57409  0.18020  Biso   1.000  H
  C26      1.0000 0.52738  0.51222  0.12860  Biso   1.000  C
  H22      1.0000 0.46840  0.46391  0.09710  Biso   1.000  H
  H23      1.0000 0.44509  0.51631  0.12619  Biso   1.000  H
  N6       1.0000 0.27629  0.53280  0.54480  Biso   1.000  N
  H24      1.0000 0.23051  0.55459  0.48269  Biso   1.000  H
  C27      1.0000 0.17999  0.53481  0.54400  Biso   1.000  C
  H25      1.0000 0.18032  0.42868  0.44052  Biso   1.000  H
  H26      1.0000 0.18020  0.49111  0.42591  Biso   1.000  H
  C28      1.0000 0.12860  0.47262  0.48778  Biso   1.000  C
  C29      1.0000 0.56911  0.35650  0.58789  Biso   1.000  C
  H27      1.0000 0.50728  0.30221  0.59640  Biso   1.000  H
  H28      1.0000 0.53609  0.09710  0.53160  Biso   1.000  H
  H29      1.0000 0.48369  0.12619  0.55491  Biso   1.000  H
  C30      1.0000 0.58789  0.56911  0.35650  Biso   1.000  C
  H30      1.0000 0.59640  0.50728  0.30221  Biso   1.000  H
  H31      1.0000 0.53160  0.53609  0.09710  Biso   1.000  H
  H32      1.0000 0.55491  0.48369  0.12619  Biso   1.000  H
  C31      1.0000 0.30971  0.57381  0.53701  Biso   1.000  C
  H33      1.0000 0.18032  0.57132  0.55948  Biso   1.000  H
  H34      1.0000 0.18020  0.50889  0.57409  Biso   1.000  H
  C32      1.0000 0.12860  0.52738  0.51222  Biso   1.000  C
  H35      1.0000 0.09710  0.46840  0.46391  Biso   1.000  H
  H36      1.0000 0.12619  0.44509  0.51631  Biso   1.000  H
  C33      1.0000 0.55880  0.38619  0.63319  Biso   1.000  C
  C34      1.0000 0.61381  0.36681  0.55880  Biso   1.000  C
  C35      1.0000 0.55880  0.61381  0.36681  Biso   1.000  C
  C36      1.0000 0.63319  0.55880  0.38619  Biso   1.000  C
  C37      1.0000 0.35650  0.58789  0.56911  Biso   1.000  C
  H37      1.0000 0.30221  0.59640  0.50728  Biso   1.000  H
  H38      1.0000 0.09710  0.53160  0.53609  Biso   1.000  H
  H39      1.0000 0.12619  0.55491  0.48369  Biso   1.000  H
  C38      1.0000 0.58789  0.43089  0.64350  Biso   1.000  C
  H40      1.0000 0.53120  0.37552  0.65718  Biso   1.000  H
  C39      1.0000 0.64350  0.41211  0.56911  Biso   1.000  C
  H41      1.0000 0.62448  0.34282  0.53120  Biso   1.000  H
  C40      1.0000 0.56911  0.64350  0.41211  Biso   1.000  C
  H42      1.0000 0.53120  0.62448  0.34282  Biso   1.000  H
  C41      1.0000 0.64350  0.58789  0.43089  Biso   1.000  C
  H43      1.0000 0.65718  0.53120  0.37552  Biso   1.000  H
  C42      1.0000 0.36681  0.55880  0.61381  Biso   1.000  C
  C43      1.0000 0.38619  0.63319  0.55880  Biso   1.000  C
  C44      1.0000 0.63319  0.44120  0.61381  Biso   1.000  C
  C45      1.0000 0.57381  0.46299  0.69029  Biso   1.000  C
  C46      1.0000 0.69029  0.42619  0.53701  Biso   1.000  C
  C47      1.0000 0.61381  0.63319  0.44120  Biso   1.000  C
  C48      1.0000 0.53701  0.69029  0.42619  Biso   1.000  C
  C49      1.0000 0.69029  0.57381  0.46299  Biso   1.000  C
  C50      1.0000 0.41211  0.56911  0.64350  Biso   1.000  C
  H44      1.0000 0.34282  0.53120  0.62448  Biso   1.000  H
  C51      1.0000 0.43089  0.64350  0.58789  Biso   1.000  C
  H45      1.0000 0.37552  0.65718  0.53120  Biso   1.000  H
  H46      1.0000 0.65718  0.46880  0.62448  Biso   1.000  H
  N7       1.0000 0.53280  0.45520  0.72371  Biso   1.000  N
  H47      1.0000 0.59640  0.49272  0.69779  Biso   1.000  H
  N8       1.0000 0.72371  0.46720  0.54480  Biso   1.000  N
  H48      1.0000 0.69779  0.40360  0.50728  Biso   1.000  H
  H49      1.0000 0.62448  0.65718  0.46880  Biso   1.000  H
  N9       1.0000 0.54480  0.72371  0.46720  Biso   1.000  N
  H50      1.0000 0.50728  0.69779  0.40360  Biso   1.000  H
  N10      1.0000 0.72371  0.53280  0.45520  Biso   1.000  N
  H51      1.0000 0.69779  0.59640  0.49272  Biso   1.000  H
  C52      1.0000 0.44120  0.61381  0.63319  Biso   1.000  C
  C53      1.0000 0.42619  0.53701  0.69029  Biso   1.000  C
  C54      1.0000 0.46299  0.69029  0.57381  Biso   1.000  C
  C55      1.0000 0.52718  0.48798  0.77049  Biso   1.000  C
  C56      1.0000 0.77049  0.47282  0.51202  Biso   1.000  C
  C57      1.0000 0.51202  0.77049  0.47282  Biso   1.000  C
  C58      1.0000 0.77049  0.52718  0.48798  Biso   1.000  C
  H52      1.0000 0.46880  0.62448  0.65718  Biso   1.000  H
  N11      1.0000 0.46720  0.54480  0.72371  Biso   1.000  N
  H53      1.0000 0.40360  0.50728  0.69779  Biso   1.000  H
  N12      1.0000 0.45520  0.72371  0.53280  Biso   1.000  N
  H54      1.0000 0.49272  0.69779  0.59640  Biso   1.000  H
  C59      1.0000 0.47282  0.51202  0.77049  Biso   1.000  C
  H55      1.0000 0.55459  0.51731  0.76949  Biso   1.000  H
  C60      1.0000 0.53481  0.45600  0.82001  Biso   1.000  C
  H56      1.0000 0.76949  0.44541  0.48269  Biso   1.000  H
  C61      1.0000 0.82001  0.46519  0.54400  Biso   1.000  C
  C62      1.0000 0.48798  0.77049  0.52718  Biso   1.000  C
  H57      1.0000 0.48269  0.76949  0.44541  Biso   1.000  H
  C63      1.0000 0.54400  0.82001  0.46519  Biso   1.000  C
  H58      1.0000 0.76949  0.55459  0.51731  Biso   1.000  H
  C64      1.0000 0.82001  0.53481  0.45600  Biso   1.000  C
  H59      1.0000 0.44541  0.48269  0.76949  Biso   1.000  H
  C65      1.0000 0.46519  0.54400  0.82001  Biso   1.000  C
  H60      1.0000 0.57132  0.44052  0.81968  Biso   1.000  H
  H61      1.0000 0.50889  0.42591  0.81980  Biso   1.000  H
  C66      1.0000 0.52738  0.48778  0.87140  Biso   1.000  C
  H62      1.0000 0.81968  0.42868  0.55948  Biso   1.000  H
  H63      1.0000 0.81980  0.49111  0.57409  Biso   1.000  H
  C67      1.0000 0.87140  0.47262  0.51222  Biso   1.000  C
  H64      1.0000 0.51731  0.76949  0.55459  Biso   1.000  H
  C68      1.0000 0.45600  0.82001  0.53481  Biso   1.000  C
  H65      1.0000 0.55948  0.81968  0.42868  Biso   1.000  H
  H66      1.0000 0.57409  0.81980  0.49111  Biso   1.000  H
  C69      1.0000 0.51222  0.87140  0.47262  Biso   1.000  C
  H67      1.0000 0.81968  0.57132  0.44052  Biso   1.000  H
  H68      1.0000 0.81980  0.50889  0.42591  Biso   1.000  H
  C70      1.0000 0.87140  0.52738  0.48778  Biso   1.000  C
  H69      1.0000 0.42868  0.55948  0.81968  Biso   1.000  H
  H70      1.0000 0.49111  0.57409  0.81980  Biso   1.000  H
  C71      1.0000 0.47262  0.51222  0.87140  Biso   1.000  C
  H71      1.0000 0.53160  0.46391  0.90290  Biso   1.000  H
  H72      1.0000 0.55491  0.51631  0.87381  Biso   1.000  H
  H73      1.0000 0.90290  0.46840  0.53609  Biso   1.000  H
  H74      1.0000 0.87381  0.44509  0.48369  Biso   1.000  H
  H75      1.0000 0.44052  0.81968  0.57132  Biso   1.000  H
  H76      1.0000 0.42591  0.81980  0.50889  Biso   1.000  H
  C72      1.0000 0.48778  0.87140  0.52738  Biso   1.000  C
  H77      1.0000 0.53609  0.90290  0.46840  Biso   1.000  H
  H78      1.0000 0.48369  0.87381  0.44509  Biso   1.000  H
  H79      1.0000 0.90290  0.53160  0.46391  Biso   1.000  H
  H80      1.0000 0.87381  0.55491  0.51631  Biso   1.000  H
  H81      1.0000 0.46840  0.53609  0.90290  Biso   1.000  H
  H82      1.0000 0.44509  0.48369  0.87381  Biso   1.000  H
  H83      1.0000 0.46391  0.90290  0.53160  Biso   1.000  H
  H84      1.0000 0.51631  0.87381  0.55491  Biso   1.000  H
  C73      1.0000 0.37861  0.23781  0.27741  Biso   1.000  C
  C74      1.0000 0.37861  0.26221  0.22261  Biso   1.000  C
  C75      1.0000 0.43000  0.20599  0.28480  Biso   1.000  C
  H85      1.0000 0.34711  0.21390  0.28159  Biso   1.000  H
  H86      1.0000 0.37620  0.26630  0.30490  Biso   1.000  H
  C76      1.0000 0.43000  0.29399  0.21518  Biso   1.000  C
  H87      1.0000 0.34711  0.28608  0.21839  Biso   1.000  H
  H88      1.0000 0.37620  0.23372  0.19508  Biso   1.000  H
  C77      1.0000 0.47952  0.23801  0.27721  Biso   1.000  C
  H89      1.0000 0.43029  0.19051  0.32131  Biso   1.000  H
  H90      1.0000 0.43021  0.17590  0.25892  Biso   1.000  H
  C78      1.0000 0.47952  0.26201  0.22281  Biso   1.000  C
  H91      1.0000 0.43029  0.30951  0.17871  Biso   1.000  H
  H92      1.0000 0.43021  0.32412  0.24110  Biso   1.000  H
  N13      1.0000 0.52630  0.20519  0.28279  Biso   1.000  N
  H93      1.0000 0.48052  0.26730  0.30462  Biso   1.000  H
  N14      1.0000 0.52630  0.29479  0.21719  Biso   1.000  N
  H94      1.0000 0.48052  0.23272  0.19540  Biso   1.000  H
  C79      1.0000 0.55968  0.21302  0.32380  Biso   1.000  C
  C80      1.0000 0.55968  0.28700  0.17618  Biso   1.000  C
  C81      1.0000 0.60651  0.18092  0.33788  Biso   1.000  C
  H95      1.0000 0.55218  0.24271  0.34639  Biso   1.000  H
  C82      1.0000 0.60651  0.31910  0.16210  Biso   1.000  C
  H96      1.0000 0.55218  0.25731  0.15359  Biso   1.000  H
  C83      1.0000 0.63620  0.19119  0.38318  Biso   1.000  C
  C84      1.0000 0.61682  0.13622  0.30879  Biso   1.000  C
  C85      1.0000 0.63620  0.30879  0.11680  Biso   1.000  C
  C86      1.0000 0.61682  0.36380  0.19119  Biso   1.000  C
  C87      1.0000 0.68090  0.16210  0.39349  Biso   1.000  C
  H97      1.0000 0.62549  0.21879  0.40721  Biso   1.000  H
  C88      1.0000 0.66212  0.10649  0.31910  Biso   1.000  C
  H98      1.0000 0.59279  0.12551  0.28119  Biso   1.000  H
  C89      1.0000 0.68090  0.33788  0.10649  Biso   1.000  C
  H99      1.0000 0.62549  0.28119  0.09281  Biso   1.000  H
  C90      1.0000 0.66212  0.39349  0.18092  Biso   1.000  C
  H100     1.0000 0.59279  0.37451  0.21879  Biso   1.000  H
  C91      1.0000 0.69121  0.11680  0.36380  Biso   1.000  C
  C92      1.0000 0.71300  0.17618  0.44032  Biso   1.000  C
  C93      1.0000 0.67620  0.05970  0.28700  Biso   1.000  C
  C94      1.0000 0.69121  0.38318  0.13622  Biso   1.000  C
  C95      1.0000 0.71300  0.32380  0.05970  Biso   1.000  C
  C96      1.0000 0.67620  0.44032  0.21302  Biso   1.000  C
  H101     1.0000 0.71881  0.09281  0.37451  Biso   1.000  H
  N15      1.0000 0.70521  0.21719  0.47370  Biso   1.000  N
  H102     1.0000 0.74269  0.15359  0.44782  Biso   1.000  H
  N16      1.0000 0.71721  0.02628  0.29479  Biso   1.000  N
  H103     1.0000 0.65361  0.05220  0.25731  Biso   1.000  H
  H104     1.0000 0.71881  0.40721  0.12551  Biso   1.000  H
  N17      1.0000 0.70521  0.28279  0.02628  Biso   1.000  N
  H105     1.0000 0.74269  0.34639  0.05220  Biso   1.000  H
  N18      1.0000 0.71721  0.47370  0.20519  Biso   1.000  N
  H106     1.0000 0.65361  0.44782  0.24271  Biso   1.000  H
  C97      1.0000 0.73799  0.22281  0.52048  Biso   1.000  C
  C98      1.0000 0.72279  0.97950  0.26201  Biso   1.000  C
  C99      1.0000 0.73799  0.27721  0.97950  Biso   1.000  C
  C100     1.0000 0.72279  0.52048  0.23801  Biso   1.000  C
  C101     1.0000 0.76199  0.27721  0.52048  Biso   1.000  C
  H107     1.0000 0.76728  0.19540  0.51948  Biso   1.000  H
  C102     1.0000 0.70601  0.21518  0.57000  Biso   1.000  C
  C103     1.0000 0.77719  0.97950  0.23801  Biso   1.000  C
  H108     1.0000 0.69538  0.98050  0.23272  Biso   1.000  H
  C104     1.0000 0.71520  0.92998  0.29399  Biso   1.000  C
  C105     1.0000 0.76199  0.22281  0.97950  Biso   1.000  C
  H109     1.0000 0.76728  0.30462  0.98050  Biso   1.000  H
  C106     1.0000 0.70601  0.28480  0.92998  Biso   1.000  C
  C107     1.0000 0.77719  0.52048  0.26201  Biso   1.000  C
  H110     1.0000 0.69538  0.51948  0.26730  Biso   1.000  H
  C108     1.0000 0.71520  0.57000  0.20599  Biso   1.000  C
  N19      1.0000 0.79481  0.28279  0.47370  Biso   1.000  N
  H111     1.0000 0.73270  0.30462  0.51948  Biso   1.000  H
  C109     1.0000 0.79401  0.28480  0.57000  Biso   1.000  C
  H112     1.0000 0.69049  0.17871  0.56971  Biso   1.000  H
  H113     1.0000 0.67588  0.24110  0.56979  Biso   1.000  H
  C110     1.0000 0.73779  0.22261  0.62139  Biso   1.000  C
  N20      1.0000 0.78281  0.02628  0.20519  Biso   1.000  N
  H114     1.0000 0.80460  0.98050  0.26730  Biso   1.000  H
  C111     1.0000 0.78482  0.92998  0.20599  Biso   1.000  C
  H115     1.0000 0.67869  0.93031  0.30951  Biso   1.000  H
  H116     1.0000 0.74108  0.93018  0.32412  Biso   1.000  H
  C112     1.0000 0.72259  0.87859  0.26221  Biso   1.000  C
  N21      1.0000 0.79481  0.21719  0.02628  Biso   1.000  N
  H117     1.0000 0.73270  0.19540  0.98050  Biso   1.000  H
  C113     1.0000 0.79401  0.21518  0.92998  Biso   1.000  C
  H118     1.0000 0.69049  0.32131  0.93031  Biso   1.000  H
  H119     1.0000 0.67588  0.25892  0.93018  Biso   1.000  H
  C114     1.0000 0.73779  0.27741  0.87859  Biso   1.000  C
  N22      1.0000 0.78281  0.47370  0.29479  Biso   1.000  N
  H120     1.0000 0.80460  0.51948  0.23272  Biso   1.000  H
  C115     1.0000 0.78482  0.57000  0.29399  Biso   1.000  C
  H121     1.0000 0.67869  0.56971  0.19051  Biso   1.000  H
  H122     1.0000 0.74108  0.56979  0.17590  Biso   1.000  H
  C116     1.0000 0.72259  0.62139  0.23781  Biso   1.000  C
  C117     1.0000 0.78698  0.32380  0.44032  Biso   1.000  C
  H123     1.0000 0.80949  0.32131  0.56971  Biso   1.000  H
  H124     1.0000 0.82410  0.25892  0.56979  Biso   1.000  H
  C118     1.0000 0.76219  0.27741  0.62139  Biso   1.000  C
  H125     1.0000 0.71392  0.21839  0.65289  Biso   1.000  H
  H126     1.0000 0.76628  0.19508  0.62380  Biso   1.000  H
  C119     1.0000 0.82382  0.05970  0.21302  Biso   1.000  C
  H127     1.0000 0.82129  0.93031  0.19051  Biso   1.000  H
  H128     1.0000 0.75890  0.93018  0.17590  Biso   1.000  H
  C120     1.0000 0.77739  0.87859  0.23781  Biso   1.000  C
  H129     1.0000 0.71841  0.84709  0.28608  Biso   1.000  H
  H130     1.0000 0.69510  0.87622  0.23372  Biso   1.000  H
  C121     1.0000 0.78698  0.17618  0.05970  Biso   1.000  C
  H131     1.0000 0.80949  0.17871  0.93031  Biso   1.000  H
  H132     1.0000 0.82410  0.24110  0.93018  Biso   1.000  H
  C122     1.0000 0.76219  0.22261  0.87859  Biso   1.000  C
  H133     1.0000 0.71392  0.28159  0.84709  Biso   1.000  H
  H134     1.0000 0.76628  0.30490  0.87622  Biso   1.000  H
  C123     1.0000 0.82382  0.44032  0.28700  Biso   1.000  C
  H135     1.0000 0.82129  0.56971  0.30951  Biso   1.000  H
  H136     1.0000 0.75890  0.56979  0.32412  Biso   1.000  H
  C124     1.0000 0.77739  0.62139  0.26221  Biso   1.000  C
  H137     1.0000 0.71841  0.65289  0.21390  Biso   1.000  H
  H138     1.0000 0.69510  0.62380  0.26630  Biso   1.000  H
  C125     1.0000 0.81908  0.33788  0.39349  Biso   1.000  C
  H139     1.0000 0.75729  0.34639  0.44782  Biso   1.000  H
  H140     1.0000 0.78610  0.28159  0.65289  Biso   1.000  H
  H141     1.0000 0.73370  0.30490  0.62380  Biso   1.000  H
  C126     1.0000 0.83790  0.10649  0.18092  Biso   1.000  C
  H142     1.0000 0.84641  0.05220  0.24271  Biso   1.000  H
  H143     1.0000 0.78161  0.84709  0.21390  Biso   1.000  H
  H144     1.0000 0.80492  0.87622  0.26630  Biso   1.000  H
  C127     1.0000 0.81908  0.16210  0.10649  Biso   1.000  C
  H145     1.0000 0.75729  0.15359  0.05220  Biso   1.000  H
  H146     1.0000 0.78610  0.21839  0.84709  Biso   1.000  H
  H147     1.0000 0.73370  0.19508  0.87622  Biso   1.000  H
  C128     1.0000 0.83790  0.39349  0.31910  Biso   1.000  C
  H148     1.0000 0.84641  0.44782  0.25731  Biso   1.000  H
  H149     1.0000 0.78161  0.65289  0.28608  Biso   1.000  H
  H150     1.0000 0.80492  0.62380  0.23372  Biso   1.000  H
  C129     1.0000 0.80881  0.38318  0.36380  Biso   1.000  C
  C130     1.0000 0.86378  0.30879  0.38318  Biso   1.000  C
  C131     1.0000 0.80881  0.11680  0.13622  Biso   1.000  C
  C132     1.0000 0.88320  0.13622  0.19119  Biso   1.000  C
  C133     1.0000 0.86378  0.19119  0.11680  Biso   1.000  C
  C134     1.0000 0.88320  0.36380  0.30879  Biso   1.000  C
  H151     1.0000 0.78121  0.40721  0.37451  Biso   1.000  H
  C135     1.0000 0.89351  0.31910  0.33788  Biso   1.000  C
  H152     1.0000 0.87449  0.28119  0.40721  Biso   1.000  H
  H153     1.0000 0.78121  0.09281  0.12551  Biso   1.000  H
  C136     1.0000 0.89351  0.18092  0.16210  Biso   1.000  C
  H154     1.0000 0.90719  0.12551  0.21879  Biso   1.000  H
  H155     1.0000 0.87449  0.21879  0.09281  Biso   1.000  H
  H156     1.0000 0.90719  0.37451  0.28119  Biso   1.000  H
  C137     1.0000 0.94030  0.28700  0.32380  Biso   1.000  C
  C138     1.0000 0.94030  0.21302  0.17618  Biso   1.000  C
  N23      1.0000 0.97372  0.29479  0.28279  Biso   1.000  N
  H157     1.0000 0.94780  0.25731  0.34639  Biso   1.000  H
  N24      1.0000 0.97372  0.20519  0.21719  Biso   1.000  N
  H158     1.0000 0.94780  0.24271  0.15359  Biso   1.000  H
  C139     1.0000 0.02050  0.26201  0.27721  Biso   1.000  C
  C140     1.0000 0.02050  0.23801  0.22281  Biso   1.000  C
  H159     1.0000 0.01950  0.23272  0.30462  Biso   1.000  H
  C141     1.0000 0.07002  0.29399  0.28480  Biso   1.000  C
  H160     1.0000 0.01950  0.26730  0.19540  Biso   1.000  H
  C142     1.0000 0.07002  0.20599  0.21518  Biso   1.000  C
  H161     1.0000 0.06969  0.30951  0.32131  Biso   1.000  H
  H162     1.0000 0.06982  0.32412  0.25892  Biso   1.000  H
  C143     1.0000 0.12141  0.26221  0.27741  Biso   1.000  C
  H163     1.0000 0.06969  0.19051  0.17871  Biso   1.000  H
  H164     1.0000 0.06982  0.17590  0.24110  Biso   1.000  H
  C144     1.0000 0.12141  0.23781  0.22261  Biso   1.000  C
  H165     1.0000 0.15291  0.28608  0.28159  Biso   1.000  H
  H166     1.0000 0.12378  0.23372  0.30490  Biso   1.000  H
  H167     1.0000 0.15291  0.21390  0.21839  Biso   1.000  H
  H168     1.0000 0.12378  0.26630  0.19508  Biso   1.000  H
  C145     1.0000 0.27741  0.37861  0.23781  Biso   1.000  C
  C146     1.0000 0.28480  0.43000  0.20599  Biso   1.000  C
  C147     1.0000 0.22261  0.37861  0.26221  Biso   1.000  C
  H169     1.0000 0.28159  0.34711  0.21390  Biso   1.000  H
  H170     1.0000 0.30490  0.37620  0.26630  Biso   1.000  H
  C148     1.0000 0.27721  0.47952  0.23801  Biso   1.000  C
  H171     1.0000 0.32131  0.43029  0.19051  Biso   1.000  H
  H172     1.0000 0.25892  0.43021  0.17590  Biso   1.000  H
  C149     1.0000 0.21518  0.43000  0.29399  Biso   1.000  C
  H173     1.0000 0.21839  0.34711  0.28608  Biso   1.000  H
  H174     1.0000 0.19508  0.37620  0.23372  Biso   1.000  H
  N25      1.0000 0.28279  0.52630  0.20519  Biso   1.000  N
  C150     1.0000 0.22281  0.47952  0.26201  Biso   1.000  C
  H175     1.0000 0.30462  0.48052  0.26730  Biso   1.000  H
  H176     1.0000 0.17871  0.43029  0.30951  Biso   1.000  H
  H177     1.0000 0.24110  0.43021  0.32412  Biso   1.000  H
  C151     1.0000 0.32380  0.55968  0.21302  Biso   1.000  C
  N26      1.0000 0.21719  0.52630  0.29479  Biso   1.000  N
  H178     1.0000 0.19540  0.48052  0.23272  Biso   1.000  H
  C152     1.0000 0.33788  0.60651  0.18092  Biso   1.000  C
  H179     1.0000 0.34639  0.55218  0.24271  Biso   1.000  H
  C153     1.0000 0.17618  0.55968  0.28700  Biso   1.000  C
  C154     1.0000 0.30879  0.61682  0.13622  Biso   1.000  C
  C155     1.0000 0.38318  0.63620  0.19119  Biso   1.000  C
  C156     1.0000 0.16210  0.60651  0.31910  Biso   1.000  C
  H180     1.0000 0.15359  0.55218  0.25731  Biso   1.000  H
  C157     1.0000 0.31910  0.66212  0.10649  Biso   1.000  C
  H181     1.0000 0.28119  0.59279  0.12551  Biso   1.000  H
  C158     1.0000 0.39349  0.68090  0.16210  Biso   1.000  C
  H182     1.0000 0.40721  0.62549  0.21879  Biso   1.000  H
  C159     1.0000 0.19119  0.61682  0.36380  Biso   1.000  C
  C160     1.0000 0.11680  0.63620  0.30879  Biso   1.000  C
  C161     1.0000 0.36380  0.69121  0.11680  Biso   1.000  C
  C162     1.0000 0.28700  0.67620  0.05970  Biso   1.000  C
  C163     1.0000 0.44032  0.71300  0.17618  Biso   1.000  C
  C164     1.0000 0.18092  0.66212  0.39349  Biso   1.000  C
  H183     1.0000 0.21879  0.59279  0.37451  Biso   1.000  H
  C165     1.0000 0.10649  0.68090  0.33788  Biso   1.000  C
  H184     1.0000 0.09281  0.62549  0.28119  Biso   1.000  H
  H185     1.0000 0.37451  0.71881  0.09281  Biso   1.000  H
  N27      1.0000 0.29479  0.71721  0.02628  Biso   1.000  N
  H186     1.0000 0.25731  0.65361  0.05220  Biso   1.000  H
  N28      1.0000 0.47370  0.70521  0.21719  Biso   1.000  N
  H187     1.0000 0.44782  0.74269  0.15359  Biso   1.000  H
  C166     1.0000 0.13622  0.69121  0.38318  Biso   1.000  C
  C167     1.0000 0.21302  0.67620  0.44032  Biso   1.000  C
  C168     1.0000 0.05970  0.71300  0.32380  Biso   1.000  C
  C169     1.0000 0.26201  0.72279  0.97950  Biso   1.000  C
  C170     1.0000 0.52048  0.73799  0.22281  Biso   1.000  C
  H188     1.0000 0.12551  0.71881  0.40721  Biso   1.000  H
  N29      1.0000 0.20519  0.71721  0.47370  Biso   1.000  N
  H189     1.0000 0.24271  0.65361  0.44782  Biso   1.000  H
  N30      1.0000 0.02628  0.70521  0.28279  Biso   1.000  N
  H190     1.0000 0.05220  0.74269  0.34639  Biso   1.000  H
  C171     1.0000 0.23801  0.77719  0.97950  Biso   1.000  C
  H191     1.0000 0.23272  0.69538  0.98050  Biso   1.000  H
  C172     1.0000 0.29399  0.71520  0.92998  Biso   1.000  C
  C173     1.0000 0.52048  0.76199  0.27721  Biso   1.000  C
  H192     1.0000 0.51948  0.76728  0.19540  Biso   1.000  H
  C174     1.0000 0.57000  0.70601  0.21518  Biso   1.000  C
  C175     1.0000 0.23801  0.72279  0.52048  Biso   1.000  C
  C176     1.0000 0.97950  0.73799  0.27721  Biso   1.000  C
  N31      1.0000 0.20519  0.78281  0.02628  Biso   1.000  N
  H193     1.0000 0.26730  0.80460  0.98050  Biso   1.000  H
  C177     1.0000 0.20599  0.78482  0.92998  Biso   1.000  C
  H194     1.0000 0.30951  0.67869  0.93031  Biso   1.000  H
  H195     1.0000 0.32412  0.74108  0.93018  Biso   1.000  H
  C178     1.0000 0.26221  0.72259  0.87859  Biso   1.000  C
  N32      1.0000 0.47370  0.79481  0.28279  Biso   1.000  N
  H196     1.0000 0.51948  0.73270  0.30462  Biso   1.000  H
  C179     1.0000 0.57000  0.79401  0.28480  Biso   1.000  C
  H197     1.0000 0.56971  0.69049  0.17871  Biso   1.000  H
  H198     1.0000 0.56979  0.67588  0.24110  Biso   1.000  H
  C180     1.0000 0.62139  0.73779  0.22261  Biso   1.000  C
  C181     1.0000 0.26201  0.77719  0.52048  Biso   1.000  C
  H199     1.0000 0.26730  0.69538  0.51948  Biso   1.000  H
  C182     1.0000 0.20599  0.71520  0.57000  Biso   1.000  C
  C183     1.0000 0.97950  0.76199  0.22281  Biso   1.000  C
  H200     1.0000 0.98050  0.76728  0.30462  Biso   1.000  H
  C184     1.0000 0.92998  0.70601  0.28480  Biso   1.000  C
  C185     1.0000 0.21302  0.82382  0.05970  Biso   1.000  C
  H201     1.0000 0.19051  0.82129  0.93031  Biso   1.000  H
  H202     1.0000 0.17590  0.75890  0.93018  Biso   1.000  H
  C186     1.0000 0.23781  0.77739  0.87859  Biso   1.000  C
  H203     1.0000 0.28608  0.71841  0.84709  Biso   1.000  H
  H204     1.0000 0.23372  0.69510  0.87622  Biso   1.000  H
  C187     1.0000 0.44032  0.78698  0.32380  Biso   1.000  C
  H205     1.0000 0.56971  0.80949  0.32131  Biso   1.000  H
  H206     1.0000 0.56979  0.82410  0.25892  Biso   1.000  H
  C188     1.0000 0.62139  0.76219  0.27741  Biso   1.000  C
  H207     1.0000 0.65289  0.71392  0.21839  Biso   1.000  H
  H208     1.0000 0.62380  0.76628  0.19508  Biso   1.000  H
  N33      1.0000 0.29479  0.78281  0.47370  Biso   1.000  N
  H209     1.0000 0.23272  0.80460  0.51948  Biso   1.000  H
  C189     1.0000 0.29399  0.78482  0.57000  Biso   1.000  C
  H210     1.0000 0.19051  0.67869  0.56971  Biso   1.000  H
  H211     1.0000 0.17590  0.74108  0.56979  Biso   1.000  H
  C190     1.0000 0.23781  0.72259  0.62139  Biso   1.000  C
  N34      1.0000 0.02628  0.79481  0.21719  Biso   1.000  N
  H212     1.0000 0.98050  0.73270  0.19540  Biso   1.000  H
  C191     1.0000 0.92998  0.79401  0.21518  Biso   1.000  C
  H213     1.0000 0.93031  0.69049  0.32131  Biso   1.000  H
  H214     1.0000 0.93018  0.67588  0.25892  Biso   1.000  H
  C192     1.0000 0.87859  0.73779  0.27741  Biso   1.000  C
  C193     1.0000 0.18092  0.83790  0.10649  Biso   1.000  C
  H215     1.0000 0.24271  0.84641  0.05220  Biso   1.000  H
  H216     1.0000 0.21390  0.78161  0.84709  Biso   1.000  H
  H217     1.0000 0.26630  0.80492  0.87622  Biso   1.000  H
  C194     1.0000 0.39349  0.81908  0.33788  Biso   1.000  C
  H218     1.0000 0.44782  0.75729  0.34639  Biso   1.000  H
  H219     1.0000 0.65289  0.78610  0.28159  Biso   1.000  H
  H220     1.0000 0.62380  0.73370  0.30490  Biso   1.000  H
  C195     1.0000 0.28700  0.82382  0.44032  Biso   1.000  C
  H221     1.0000 0.30951  0.82129  0.56971  Biso   1.000  H
  H222     1.0000 0.32412  0.75890  0.56979  Biso   1.000  H
  C196     1.0000 0.26221  0.77739  0.62139  Biso   1.000  C
  H223     1.0000 0.21390  0.71841  0.65289  Biso   1.000  H
  H224     1.0000 0.26630  0.69510  0.62380  Biso   1.000  H
  C197     1.0000 0.05970  0.78698  0.17618  Biso   1.000  C
  H225     1.0000 0.93031  0.80949  0.17871  Biso   1.000  H
  H226     1.0000 0.93018  0.82410  0.24110  Biso   1.000  H
  C198     1.0000 0.87859  0.76219  0.22261  Biso   1.000  C
  H227     1.0000 0.84709  0.71392  0.28159  Biso   1.000  H
  H228     1.0000 0.87622  0.76628  0.30490  Biso   1.000  H
  C199     1.0000 0.13622  0.80881  0.11680  Biso   1.000  C
  C200     1.0000 0.19119  0.88320  0.13622  Biso   1.000  C
  C201     1.0000 0.38318  0.86378  0.30879  Biso   1.000  C
  C202     1.0000 0.36380  0.80881  0.38318  Biso   1.000  C
  C203     1.0000 0.31910  0.83790  0.39349  Biso   1.000  C
  H229     1.0000 0.25731  0.84641  0.44782  Biso   1.000  H
  H230     1.0000 0.28608  0.78161  0.65289  Biso   1.000  H
  H231     1.0000 0.23372  0.80492  0.62380  Biso   1.000  H
  C204     1.0000 0.10649  0.81908  0.16210  Biso   1.000  C
  H232     1.0000 0.05220  0.75729  0.15359  Biso   1.000  H
  H233     1.0000 0.84709  0.78610  0.21839  Biso   1.000  H
  H234     1.0000 0.87622  0.73370  0.19508  Biso   1.000  H
  H235     1.0000 0.12551  0.78121  0.09281  Biso   1.000  H
  C205     1.0000 0.16210  0.89351  0.18092  Biso   1.000  C
  H236     1.0000 0.21879  0.90719  0.12551  Biso   1.000  H
  C206     1.0000 0.33788  0.89351  0.31910  Biso   1.000  C
  H237     1.0000 0.40721  0.87449  0.28119  Biso   1.000  H
  H238     1.0000 0.37451  0.78121  0.40721  Biso   1.000  H
  C207     1.0000 0.30879  0.88320  0.36380  Biso   1.000  C
  C208     1.0000 0.11680  0.86378  0.19119  Biso   1.000  C
  C209     1.0000 0.17618  0.94030  0.21302  Biso   1.000  C
  C210     1.0000 0.32380  0.94030  0.28700  Biso   1.000  C
  H239     1.0000 0.28119  0.90719  0.37451  Biso   1.000  H
  H240     1.0000 0.09281  0.87449  0.21879  Biso   1.000  H
  N35      1.0000 0.21719  0.97372  0.20519  Biso   1.000  N
  H241     1.0000 0.15359  0.94780  0.24271  Biso   1.000  H
  N36      1.0000 0.28279  0.97372  0.29479  Biso   1.000  N
  H242     1.0000 0.34639  0.94780  0.25731  Biso   1.000  H
  C211     1.0000 0.22281  0.02050  0.23801  Biso   1.000  C
  C212     1.0000 0.27721  0.02050  0.26201  Biso   1.000  C
  H243     1.0000 0.19540  0.01950  0.26730  Biso   1.000  H
  C213     1.0000 0.21518  0.07002  0.20599  Biso   1.000  C
  H244     1.0000 0.30462  0.01950  0.23272  Biso   1.000  H
  C214     1.0000 0.28480  0.07002  0.29399  Biso   1.000  C
  H245     1.0000 0.17871  0.06969  0.19051  Biso   1.000  H
  H246     1.0000 0.24110  0.06982  0.17590  Biso   1.000  H
  C215     1.0000 0.22261  0.12141  0.23781  Biso   1.000  C
  H247     1.0000 0.32131  0.06969  0.30951  Biso   1.000  H
  H248     1.0000 0.25892  0.06982  0.32412  Biso   1.000  H
  C216     1.0000 0.27741  0.12141  0.26221  Biso   1.000  C
  H249     1.0000 0.21839  0.15291  0.21390  Biso   1.000  H
  H250     1.0000 0.19508  0.12378  0.26630  Biso   1.000  H
  H251     1.0000 0.28159  0.15291  0.28608  Biso   1.000  H
  H252     1.0000 0.30490  0.12378  0.23372  Biso   1.000  H
  C217     1.0000 0.23781  0.27741  0.37861  Biso   1.000  C
  C218     1.0000 0.26221  0.22261  0.37861  Biso   1.000  C
  C219     1.0000 0.20599  0.28480  0.43000  Biso   1.000  C
  H253     1.0000 0.21390  0.28159  0.34711  Biso   1.000  H
  H254     1.0000 0.26630  0.30490  0.37620  Biso   1.000  H
  C220     1.0000 0.29399  0.21518  0.43000  Biso   1.000  C
  H255     1.0000 0.28608  0.21839  0.34711  Biso   1.000  H
  H256     1.0000 0.23372  0.19508  0.37620  Biso   1.000  H
  C221     1.0000 0.23801  0.27721  0.47952  Biso   1.000  C
  H257     1.0000 0.19051  0.32131  0.43029  Biso   1.000  H
  H258     1.0000 0.17590  0.25892  0.43021  Biso   1.000  H
  C222     1.0000 0.26201  0.22281  0.47952  Biso   1.000  C
  H259     1.0000 0.30951  0.17871  0.43029  Biso   1.000  H
  H260     1.0000 0.32412  0.24110  0.43021  Biso   1.000  H
  N37      1.0000 0.20519  0.28279  0.52630  Biso   1.000  N
  H261     1.0000 0.26730  0.30462  0.48052  Biso   1.000  H
  N38      1.0000 0.29479  0.21719  0.52630  Biso   1.000  N
  H262     1.0000 0.23272  0.19540  0.48052  Biso   1.000  H
  C223     1.0000 0.21302  0.32380  0.55968  Biso   1.000  C
  C224     1.0000 0.28700  0.17618  0.55968  Biso   1.000  C
  C225     1.0000 0.18092  0.33788  0.60651  Biso   1.000  C
  H263     1.0000 0.24271  0.34639  0.55218  Biso   1.000  H
  C226     1.0000 0.31910  0.16210  0.60651  Biso   1.000  C
  H264     1.0000 0.25731  0.15359  0.55218  Biso   1.000  H
  C227     1.0000 0.13622  0.30879  0.61682  Biso   1.000  C
  C228     1.0000 0.19119  0.38318  0.63620  Biso   1.000  C
  C229     1.0000 0.36380  0.19119  0.61682  Biso   1.000  C
  C230     1.0000 0.30879  0.11680  0.63620  Biso   1.000  C
  C231     1.0000 0.10649  0.31910  0.66212  Biso   1.000  C
  H265     1.0000 0.12551  0.28119  0.59279  Biso   1.000  H
  C232     1.0000 0.16210  0.39349  0.68090  Biso   1.000  C
  H266     1.0000 0.21879  0.40721  0.62549  Biso   1.000  H
  C233     1.0000 0.39349  0.18092  0.66212  Biso   1.000  C
  H267     1.0000 0.37451  0.21879  0.59279  Biso   1.000  H
  C234     1.0000 0.33788  0.10649  0.68090  Biso   1.000  C
  H268     1.0000 0.28119  0.09281  0.62549  Biso   1.000  H
  C235     1.0000 0.11680  0.36380  0.69121  Biso   1.000  C
  C236     1.0000 0.05970  0.28700  0.67620  Biso   1.000  C
  C237     1.0000 0.17618  0.44032  0.71300  Biso   1.000  C
  C238     1.0000 0.38318  0.13622  0.69121  Biso   1.000  C
  C239     1.0000 0.44032  0.21302  0.67620  Biso   1.000  C
  C240     1.0000 0.32380  0.05970  0.71300  Biso   1.000  C
  H269     1.0000 0.09281  0.37451  0.71881  Biso   1.000  H
  N39      1.0000 0.02628  0.29479  0.71721  Biso   1.000  N
  H270     1.0000 0.05220  0.25731  0.65361  Biso   1.000  H
  N40      1.0000 0.21719  0.47370  0.70521  Biso   1.000  N
  H271     1.0000 0.15359  0.44782  0.74269  Biso   1.000  H
  H272     1.0000 0.40721  0.12551  0.71881  Biso   1.000  H
  N41      1.0000 0.47370  0.20519  0.71721  Biso   1.000  N
  H273     1.0000 0.44782  0.24271  0.65361  Biso   1.000  H
  N42      1.0000 0.28279  0.02628  0.70521  Biso   1.000  N
  H274     1.0000 0.34639  0.05220  0.74269  Biso   1.000  H
  C241     1.0000 0.97950  0.26201  0.72279  Biso   1.000  C
  C242     1.0000 0.22281  0.52048  0.73799  Biso   1.000  C
  C243     1.0000 0.52048  0.23801  0.72279  Biso   1.000  C
  C244     1.0000 0.27721  0.97950  0.73799  Biso   1.000  C
  C245     1.0000 0.97950  0.23801  0.77719  Biso   1.000  C
  H275     1.0000 0.98050  0.23272  0.69538  Biso   1.000  H
  C246     1.0000 0.92998  0.29399  0.71520  Biso   1.000  C
  C247     1.0000 0.27721  0.52048  0.76199  Biso   1.000  C
  H276     1.0000 0.19540  0.51948  0.76728  Biso   1.000  H
  C248     1.0000 0.21518  0.57000  0.70601  Biso   1.000  C
  C249     1.0000 0.52048  0.26201  0.77719  Biso   1.000  C
  H277     1.0000 0.51948  0.26730  0.69538  Biso   1.000  H
  C250     1.0000 0.57000  0.20599  0.71520  Biso   1.000  C
  C251     1.0000 0.22281  0.97950  0.76199  Biso   1.000  C
  H278     1.0000 0.30462  0.98050  0.76728  Biso   1.000  H
  C252     1.0000 0.28480  0.92998  0.70601  Biso   1.000  C
  N43      1.0000 0.02628  0.20519  0.78281  Biso   1.000  N
  H279     1.0000 0.98050  0.26730  0.80460  Biso   1.000  H
  C253     1.0000 0.92998  0.20599  0.78482  Biso   1.000  C
  H280     1.0000 0.93031  0.30951  0.67869  Biso   1.000  H
  H281     1.0000 0.93018  0.32412  0.74108  Biso   1.000  H
  C254     1.0000 0.87859  0.26221  0.72259  Biso   1.000  C
  N44      1.0000 0.28279  0.47370  0.79481  Biso   1.000  N
  H282     1.0000 0.30462  0.51948  0.73270  Biso   1.000  H
  C255     1.0000 0.28480  0.57000  0.79401  Biso   1.000  C
  H283     1.0000 0.17871  0.56971  0.69049  Biso   1.000  H
  H284     1.0000 0.24110  0.56979  0.67588  Biso   1.000  H
  C256     1.0000 0.22261  0.62139  0.73779  Biso   1.000  C
  N45      1.0000 0.47370  0.29479  0.78281  Biso   1.000  N
  H285     1.0000 0.51948  0.23272  0.80460  Biso   1.000  H
  C257     1.0000 0.57000  0.29399  0.78482  Biso   1.000  C
  H286     1.0000 0.56971  0.19051  0.67869  Biso   1.000  H
  H287     1.0000 0.56979  0.17590  0.74108  Biso   1.000  H
  C258     1.0000 0.62139  0.23781  0.72259  Biso   1.000  C
  N46      1.0000 0.21719  0.02628  0.79481  Biso   1.000  N
  H288     1.0000 0.19540  0.98050  0.73270  Biso   1.000  H
  C259     1.0000 0.21518  0.92998  0.79401  Biso   1.000  C
  H289     1.0000 0.32131  0.93031  0.69049  Biso   1.000  H
  H290     1.0000 0.25892  0.93018  0.67588  Biso   1.000  H
  C260     1.0000 0.27741  0.87859  0.73779  Biso   1.000  C
  C261     1.0000 0.05970  0.21302  0.82382  Biso   1.000  C
  H291     1.0000 0.93031  0.19051  0.82129  Biso   1.000  H
  H292     1.0000 0.93018  0.17590  0.75890  Biso   1.000  H
  C262     1.0000 0.87859  0.23781  0.77739  Biso   1.000  C
  H293     1.0000 0.84709  0.28608  0.71841  Biso   1.000  H
  H294     1.0000 0.87622  0.23372  0.69510  Biso   1.000  H
  C263     1.0000 0.32380  0.44032  0.78698  Biso   1.000  C
  H295     1.0000 0.32131  0.56971  0.80949  Biso   1.000  H
  H296     1.0000 0.25892  0.56979  0.82410  Biso   1.000  H
  C264     1.0000 0.27741  0.62139  0.76219  Biso   1.000  C
  H297     1.0000 0.21839  0.65289  0.71392  Biso   1.000  H
  H298     1.0000 0.19508  0.62380  0.76628  Biso   1.000  H
  C265     1.0000 0.44032  0.28700  0.82382  Biso   1.000  C
  H299     1.0000 0.56971  0.30951  0.82129  Biso   1.000  H
  H300     1.0000 0.56979  0.32412  0.75890  Biso   1.000  H
  C266     1.0000 0.62139  0.26221  0.77739  Biso   1.000  C
  H301     1.0000 0.65289  0.21390  0.71841  Biso   1.000  H
  H302     1.0000 0.62380  0.26630  0.69510  Biso   1.000  H
  C267     1.0000 0.17618  0.05970  0.78698  Biso   1.000  C
  H303     1.0000 0.17871  0.93031  0.80949  Biso   1.000  H
  H304     1.0000 0.24110  0.93018  0.82410  Biso   1.000  H
  C268     1.0000 0.22261  0.87859  0.76219  Biso   1.000  C
  H305     1.0000 0.28159  0.84709  0.71392  Biso   1.000  H
  H306     1.0000 0.30490  0.87622  0.76628  Biso   1.000  H
  C269     1.0000 0.10649  0.18092  0.83790  Biso   1.000  C
  H307     1.0000 0.05220  0.24271  0.84641  Biso   1.000  H
  H308     1.0000 0.84709  0.21390  0.78161  Biso   1.000  H
  H309     1.0000 0.87622  0.26630  0.80492  Biso   1.000  H
  C270     1.0000 0.33788  0.39349  0.81908  Biso   1.000  C
  H310     1.0000 0.34639  0.44782  0.75729  Biso   1.000  H
  H311     1.0000 0.28159  0.65289  0.78610  Biso   1.000  H
  H312     1.0000 0.30490  0.62380  0.73370  Biso   1.000  H
  C271     1.0000 0.39349  0.31910  0.83790  Biso   1.000  C
  H313     1.0000 0.44782  0.25731  0.84641  Biso   1.000  H
  H314     1.0000 0.65289  0.28608  0.78161  Biso   1.000  H
  H315     1.0000 0.62380  0.23372  0.80492  Biso   1.000  H
  C272     1.0000 0.16210  0.10649  0.81908  Biso   1.000  C
  H316     1.0000 0.15359  0.05220  0.75729  Biso   1.000  H
  H317     1.0000 0.21839  0.84709  0.78610  Biso   1.000  H
  H318     1.0000 0.19508  0.87622  0.73370  Biso   1.000  H
  C273     1.0000 0.11680  0.13622  0.80881  Biso   1.000  C
  C274     1.0000 0.13622  0.19119  0.88320  Biso   1.000  C
  C275     1.0000 0.38318  0.36380  0.80881  Biso   1.000  C
  C276     1.0000 0.30879  0.38318  0.86378  Biso   1.000  C
  C277     1.0000 0.36380  0.30879  0.88320  Biso   1.000  C
  C278     1.0000 0.19119  0.11680  0.86378  Biso   1.000  C
  H319     1.0000 0.09281  0.12551  0.78121  Biso   1.000  H
  C279     1.0000 0.18092  0.16210  0.89351  Biso   1.000  C
  H320     1.0000 0.12551  0.21879  0.90719  Biso   1.000  H
  H321     1.0000 0.40721  0.37451  0.78121  Biso   1.000  H
  C280     1.0000 0.31910  0.33788  0.89351  Biso   1.000  C
  H322     1.0000 0.28119  0.40721  0.87449  Biso   1.000  H
  H323     1.0000 0.37451  0.28119  0.90719  Biso   1.000  H
  H324     1.0000 0.21879  0.09281  0.87449  Biso   1.000  H
  C281     1.0000 0.21302  0.17618  0.94030  Biso   1.000  C
  C282     1.0000 0.28700  0.32380  0.94030  Biso   1.000  C
  N47      1.0000 0.20519  0.21719  0.97372  Biso   1.000  N
  H325     1.0000 0.24271  0.15359  0.94780  Biso   1.000  H
  N48      1.0000 0.29479  0.28279  0.97372  Biso   1.000  N
  H326     1.0000 0.25731  0.34639  0.94780  Biso   1.000  H
  C283     1.0000 0.23801  0.22281  0.02050  Biso   1.000  C
  C284     1.0000 0.26201  0.27721  0.02050  Biso   1.000  C
  H327     1.0000 0.26730  0.19540  0.01950  Biso   1.000  H
  C285     1.0000 0.20599  0.21518  0.07002  Biso   1.000  C
  H328     1.0000 0.23272  0.30462  0.01950  Biso   1.000  H
  C286     1.0000 0.29399  0.28480  0.07002  Biso   1.000  C
  H329     1.0000 0.19051  0.17871  0.06969  Biso   1.000  H
  H330     1.0000 0.17590  0.24110  0.06982  Biso   1.000  H
  C287     1.0000 0.23781  0.22261  0.12141  Biso   1.000  C
  H331     1.0000 0.30951  0.32131  0.06969  Biso   1.000  H
  H332     1.0000 0.32412  0.25892  0.06982  Biso   1.000  H
  C288     1.0000 0.26221  0.27741  0.12141  Biso   1.000  C
  H333     1.0000 0.21390  0.21839  0.15291  Biso   1.000  H
  H334     1.0000 0.26630  0.19508  0.12378  Biso   1.000  H
  H335     1.0000 0.28608  0.28159  0.15291  Biso   1.000  H
  H336     1.0000 0.23372  0.30490  0.12378  Biso   1.000  H
  C289     1.0000 0.46519  0.04402  0.31999  Biso   1.000  C
  C290     1.0000 0.47282  0.01200  0.27051  Biso   1.000  C
  H337     1.0000 0.42868  0.05950  0.31970  Biso   1.000  H
  H338     1.0000 0.49111  0.07411  0.31978  Biso   1.000  H
  C291     1.0000 0.47262  0.01220  0.37138  Biso   1.000  C
  N49      1.0000 0.46720  0.04482  0.22369  Biso   1.000  N
  C292     1.0000 0.52718  0.98800  0.27051  Biso   1.000  C
  H339     1.0000 0.44541  0.98271  0.26951  Biso   1.000  H
  H340     1.0000 0.46840  0.03611  0.40288  Biso   1.000  H
  C293     1.0000 0.52738  0.98780  0.37138  Biso   1.000  C
  H341     1.0000 0.44509  0.98371  0.37379  Biso   1.000  H
  C294     1.0000 0.42619  0.03699  0.19031  Biso   1.000  C
  H342     1.0000 0.55459  0.01729  0.26951  Biso   1.000  H
  N50      1.0000 0.53280  0.95518  0.22369  Biso   1.000  N
  C295     1.0000 0.53481  0.95598  0.31999  Biso   1.000  C
  H343     1.0000 0.55491  0.01629  0.37379  Biso   1.000  H
  H344     1.0000 0.53160  0.96389  0.40288  Biso   1.000  H
  C296     1.0000 0.41211  0.06909  0.14348  Biso   1.000  C
  H345     1.0000 0.40360  0.00730  0.19781  Biso   1.000  H
  C297     1.0000 0.57381  0.96301  0.19031  Biso   1.000  C
  H346     1.0000 0.57132  0.94050  0.31970  Biso   1.000  H
  H347     1.0000 0.50889  0.92589  0.31978  Biso   1.000  H
  C298     1.0000 0.44120  0.11379  0.13321  Biso   1.000  C
  C299     1.0000 0.36681  0.05878  0.11379  Biso   1.000  C
  C300     1.0000 0.58789  0.93091  0.14348  Biso   1.000  C
  H348     1.0000 0.59640  0.99270  0.19781  Biso   1.000  H
  C301     1.0000 0.43089  0.14348  0.08791  Biso   1.000  C
  H349     1.0000 0.46880  0.12450  0.15720  Biso   1.000  H
  C302     1.0000 0.35650  0.08791  0.06909  Biso   1.000  C
  H350     1.0000 0.34282  0.03122  0.12450  Biso   1.000  H
  C303     1.0000 0.55880  0.88621  0.13321  Biso   1.000  C
  C304     1.0000 0.63319  0.94122  0.11379  Biso   1.000  C
  C305     1.0000 0.38619  0.13321  0.05878  Biso   1.000  C
  C306     1.0000 0.46299  0.19031  0.07379  Biso   1.000  C
  C307     1.0000 0.30971  0.07379  0.03699  Biso   1.000  C
  C308     1.0000 0.56911  0.85652  0.08791  Biso   1.000  C
  H351     1.0000 0.53120  0.87550  0.15720  Biso   1.000  H
  C309     1.0000 0.64350  0.91209  0.06909  Biso   1.000  C
  H352     1.0000 0.65718  0.96878  0.12450  Biso   1.000  H
  H353     1.0000 0.37552  0.15720  0.03122  Biso   1.000  H
  N51      1.0000 0.45520  0.22369  0.03278  Biso   1.000  N
  H354     1.0000 0.49272  0.19781  0.09642  Biso   1.000  H
  N52      1.0000 0.27629  0.03278  0.04482  Biso   1.000  N
  H355     1.0000 0.30221  0.09642  0.00730  Biso   1.000  H
  C310     1.0000 0.61381  0.86679  0.05878  Biso   1.000  C
  C311     1.0000 0.53701  0.80969  0.07379  Biso   1.000  C
  C312     1.0000 0.69029  0.92621  0.03699  Biso   1.000  C
  C313     1.0000 0.48798  0.27051  0.02720  Biso   1.000  C
  C314     1.0000 0.22951  0.02720  0.01200  Biso   1.000  C
  H356     1.0000 0.62448  0.84280  0.03122  Biso   1.000  H
  N53      1.0000 0.54480  0.77631  0.03278  Biso   1.000  N
  H357     1.0000 0.50728  0.80219  0.09642  Biso   1.000  H
  N54      1.0000 0.72371  0.96722  0.04482  Biso   1.000  N
  H358     1.0000 0.69779  0.90358  0.00730  Biso   1.000  H
  H359     1.0000 0.51731  0.26951  0.05461  Biso   1.000  H
  C315     1.0000 0.45600  0.31999  0.03479  Biso   1.000  C
  C316     1.0000 0.51202  0.27051  0.97280  Biso   1.000  C
  C317     1.0000 0.17999  0.03479  0.04402  Biso   1.000  C
  C318     1.0000 0.22951  0.97280  0.98800  Biso   1.000  C
  H360     1.0000 0.23051  0.05461  0.98271  Biso   1.000  H
  C319     1.0000 0.51202  0.72949  0.02720  Biso   1.000  C
  C320     1.0000 0.77049  0.97280  0.01200  Biso   1.000  C
  H361     1.0000 0.44052  0.31970  0.07130  Biso   1.000  H
  H362     1.0000 0.42591  0.31978  0.00891  Biso   1.000  H
  C321     1.0000 0.48778  0.37138  0.02740  Biso   1.000  C
  N55      1.0000 0.54480  0.22369  0.96722  Biso   1.000  N
  H363     1.0000 0.48269  0.26951  0.94539  Biso   1.000  H
  C322     1.0000 0.54400  0.31999  0.96521  Biso   1.000  C
  H364     1.0000 0.18032  0.07130  0.05950  Biso   1.000  H
  H365     1.0000 0.18020  0.00891  0.07411  Biso   1.000  H
  C323     1.0000 0.12860  0.02740  0.01220  Biso   1.000  C
  N56      1.0000 0.27629  0.96722  0.95518  Biso   1.000  N
  C324     1.0000 0.17999  0.96521  0.95598  Biso   1.000  C
  H366     1.0000 0.23051  0.94539  0.01729  Biso   1.000  H
  C325     1.0000 0.48798  0.72949  0.97280  Biso   1.000  C
  H367     1.0000 0.48269  0.73049  0.05461  Biso   1.000  H
  C326     1.0000 0.54400  0.68001  0.03479  Biso   1.000  C
  C327     1.0000 0.77049  0.02720  0.98800  Biso   1.000  C
  H368     1.0000 0.76949  0.94539  0.98271  Biso   1.000  H
  C328     1.0000 0.82001  0.96521  0.04402  Biso   1.000  C
  H369     1.0000 0.46391  0.40288  0.03162  Biso   1.000  H
  H370     1.0000 0.51631  0.37379  0.05489  Biso   1.000  H
  C329     1.0000 0.51222  0.37138  0.97260  Biso   1.000  C
  C330     1.0000 0.53701  0.19031  0.92621  Biso   1.000  C
  H371     1.0000 0.55948  0.31970  0.92870  Biso   1.000  H
  H372     1.0000 0.57409  0.31978  0.99109  Biso   1.000  H
  H373     1.0000 0.09710  0.03162  0.03611  Biso   1.000  H
  C331     1.0000 0.12860  0.97260  0.98780  Biso   1.000  C
  H374     1.0000 0.12619  0.05489  0.98371  Biso   1.000  H
  C332     1.0000 0.30971  0.92621  0.96301  Biso   1.000  C
  H375     1.0000 0.18032  0.92870  0.94050  Biso   1.000  H
  H376     1.0000 0.18020  0.99109  0.92589  Biso   1.000  H
  N57      1.0000 0.45520  0.77631  0.96722  Biso   1.000  N
  H377     1.0000 0.51731  0.73049  0.94539  Biso   1.000  H
  C333     1.0000 0.45600  0.68001  0.96521  Biso   1.000  C
  H378     1.0000 0.55948  0.68030  0.07130  Biso   1.000  H
  H379     1.0000 0.57409  0.68022  0.00891  Biso   1.000  H
  C334     1.0000 0.51222  0.62862  0.02740  Biso   1.000  C
  N58      1.0000 0.72371  0.03278  0.95518  Biso   1.000  N
  H380     1.0000 0.76949  0.05461  0.01729  Biso   1.000  H
  C335     1.0000 0.82001  0.03479  0.95598  Biso   1.000  C
  H381     1.0000 0.81968  0.92870  0.05950  Biso   1.000  H
  H382     1.0000 0.81980  0.99109  0.07411  Biso   1.000  H
  C336     1.0000 0.87140  0.97260  0.01220  Biso   1.000  C
  H383     1.0000 0.53609  0.40288  0.96838  Biso   1.000  H
  H384     1.0000 0.48369  0.37379  0.94511  Biso   1.000  H
  C337     1.0000 0.56911  0.14348  0.91209  Biso   1.000  C
  H385     1.0000 0.50728  0.19781  0.90358  Biso   1.000  H
  H386     1.0000 0.09710  0.96838  0.96389  Biso   1.000  H
  H387     1.0000 0.12619  0.94511  0.01629  Biso   1.000  H
  C338     1.0000 0.35650  0.91209  0.93091  Biso   1.000  C
  H388     1.0000 0.30221  0.90358  0.99270  Biso   1.000  H
  C339     1.0000 0.46299  0.80969  0.92621  Biso   1.000  C
  H389     1.0000 0.44052  0.68030  0.92870  Biso   1.000  H
  H390     1.0000 0.42591  0.68022  0.99109  Biso   1.000  H
  C340     1.0000 0.48778  0.62862  0.97260  Biso   1.000  C
  H391     1.0000 0.53609  0.59712  0.03162  Biso   1.000  H
  H392     1.0000 0.48369  0.62621  0.05489  Biso   1.000  H
  C341     1.0000 0.69029  0.07379  0.96301  Biso   1.000  C
  H393     1.0000 0.81968  0.07130  0.94050  Biso   1.000  H
  H394     1.0000 0.81980  0.00891  0.92589  Biso   1.000  H
  C342     1.0000 0.87140  0.02740  0.98780  Biso   1.000  C
  H395     1.0000 0.87381  0.94511  0.98371  Biso   1.000  H
  H396     1.0000 0.90290  0.96838  0.03611  Biso   1.000  H
  C343     1.0000 0.55880  0.11379  0.86679  Biso   1.000  C
  C344     1.0000 0.61381  0.13321  0.94122  Biso   1.000  C
  C345     1.0000 0.36681  0.94122  0.88621  Biso   1.000  C
  C346     1.0000 0.38619  0.86679  0.94122  Biso   1.000  C
  C347     1.0000 0.43089  0.85652  0.91209  Biso   1.000  C
  H397     1.0000 0.49272  0.80219  0.90358  Biso   1.000  H
  H398     1.0000 0.46391  0.59712  0.96838  Biso   1.000  H
  H399     1.0000 0.51631  0.62621  0.94511  Biso   1.000  H
  C348     1.0000 0.64350  0.08791  0.93091  Biso   1.000  C
  H400     1.0000 0.69779  0.09642  0.99270  Biso   1.000  H
  H401     1.0000 0.87381  0.05489  0.01629  Biso   1.000  H
  H402     1.0000 0.90290  0.03162  0.96389  Biso   1.000  H
  C349     1.0000 0.58789  0.06909  0.85652  Biso   1.000  C
  H403     1.0000 0.53120  0.12450  0.84280  Biso   1.000  H
  H404     1.0000 0.62448  0.15720  0.96878  Biso   1.000  H
  C350     1.0000 0.41211  0.93091  0.85652  Biso   1.000  C
  H405     1.0000 0.34282  0.96878  0.87550  Biso   1.000  H
  H406     1.0000 0.37552  0.84280  0.96878  Biso   1.000  H
  C351     1.0000 0.44120  0.88621  0.86679  Biso   1.000  C
  C352     1.0000 0.63319  0.05878  0.88621  Biso   1.000  C
  C353     1.0000 0.57381  0.03699  0.80969  Biso   1.000  C
  C354     1.0000 0.42619  0.96301  0.80969  Biso   1.000  C
  H407     1.0000 0.46880  0.87550  0.84280  Biso   1.000  H
  H408     1.0000 0.65718  0.03122  0.87550  Biso   1.000  H
  N59      1.0000 0.53280  0.04482  0.77631  Biso   1.000  N
  H409     1.0000 0.59640  0.00730  0.80219  Biso   1.000  H
  N60      1.0000 0.46720  0.95518  0.77631  Biso   1.000  N
  H410     1.0000 0.40360  0.99270  0.80219  Biso   1.000  H
  C355     1.0000 0.52718  0.01200  0.72949  Biso   1.000  C
  C356     1.0000 0.47282  0.98800  0.72949  Biso   1.000  C
  H411     1.0000 0.55459  0.98271  0.73049  Biso   1.000  H
  C357     1.0000 0.53481  0.04402  0.68001  Biso   1.000  C
  C358     1.0000 0.46519  0.95598  0.68001  Biso   1.000  C
  H412     1.0000 0.44541  0.01729  0.73049  Biso   1.000  H
  H413     1.0000 0.57132  0.05950  0.68030  Biso   1.000  H
  H414     1.0000 0.50889  0.07411  0.68022  Biso   1.000  H
  C359     1.0000 0.52738  0.01220  0.62862  Biso   1.000  C
  H415     1.0000 0.42868  0.94050  0.68030  Biso   1.000  H
  H416     1.0000 0.49111  0.92589  0.68022  Biso   1.000  H
  C360     1.0000 0.47262  0.98780  0.62862  Biso   1.000  C
  H417     1.0000 0.55491  0.98371  0.62621  Biso   1.000  H
  H418     1.0000 0.53160  0.03611  0.59712  Biso   1.000  H
  H419     1.0000 0.46840  0.96389  0.59712  Biso   1.000  H
  H420     1.0000 0.44509  0.01629  0.62621  Biso   1.000  H
  C361     1.0000 0.31999  0.46519  0.04402  Biso   1.000  C
  C362     1.0000 0.27051  0.47282  0.01200  Biso   1.000  C
  H421     1.0000 0.31970  0.42868  0.05950  Biso   1.000  H
  H422     1.0000 0.31978  0.49111  0.07411  Biso   1.000  H
  C363     1.0000 0.37138  0.47262  0.01220  Biso   1.000  C
  N61      1.0000 0.22369  0.46720  0.04482  Biso   1.000  N
  C364     1.0000 0.27051  0.52718  0.98800  Biso   1.000  C
  H423     1.0000 0.26951  0.44541  0.98271  Biso   1.000  H
  H424     1.0000 0.40288  0.46840  0.03611  Biso   1.000  H
  C365     1.0000 0.37138  0.52738  0.98780  Biso   1.000  C
  H425     1.0000 0.37379  0.44509  0.98371  Biso   1.000  H
  C366     1.0000 0.19031  0.42619  0.03699  Biso   1.000  C
  H426     1.0000 0.26951  0.55459  0.01729  Biso   1.000  H
  N62      1.0000 0.22369  0.53280  0.95518  Biso   1.000  N
  C367     1.0000 0.31999  0.53481  0.95598  Biso   1.000  C
  H427     1.0000 0.37379  0.55491  0.01629  Biso   1.000  H
  H428     1.0000 0.40288  0.53160  0.96389  Biso   1.000  H
  C368     1.0000 0.14348  0.41211  0.06909  Biso   1.000  C
  H429     1.0000 0.19781  0.40360  0.00730  Biso   1.000  H
  C369     1.0000 0.19031  0.57381  0.96301  Biso   1.000  C
  H430     1.0000 0.31970  0.57132  0.94050  Biso   1.000  H
  H431     1.0000 0.31978  0.50889  0.92589  Biso   1.000  H
  C370     1.0000 0.13321  0.44120  0.11379  Biso   1.000  C
  C371     1.0000 0.11379  0.36681  0.05878  Biso   1.000  C
  C372     1.0000 0.14348  0.58789  0.93091  Biso   1.000  C
  H432     1.0000 0.19781  0.59640  0.99270  Biso   1.000  H
  C373     1.0000 0.08791  0.43089  0.14348  Biso   1.000  C
  H433     1.0000 0.15720  0.46880  0.12450  Biso   1.000  H
  C374     1.0000 0.06909  0.35650  0.08791  Biso   1.000  C
  H434     1.0000 0.12450  0.34282  0.03122  Biso   1.000  H
  C375     1.0000 0.13321  0.55880  0.88621  Biso   1.000  C
  C376     1.0000 0.11379  0.63319  0.94122  Biso   1.000  C
  C377     1.0000 0.05878  0.38619  0.13321  Biso   1.000  C
  C378     1.0000 0.07379  0.46299  0.19031  Biso   1.000  C
  C379     1.0000 0.03699  0.30971  0.07379  Biso   1.000  C
  C380     1.0000 0.08791  0.56911  0.85652  Biso   1.000  C
  H435     1.0000 0.15720  0.53120  0.87550  Biso   1.000  H
  C381     1.0000 0.06909  0.64350  0.91209  Biso   1.000  C
  H436     1.0000 0.12450  0.65718  0.96878  Biso   1.000  H
  H437     1.0000 0.03122  0.37552  0.15720  Biso   1.000  H
  N63      1.0000 0.03278  0.45520  0.22369  Biso   1.000  N
  H438     1.0000 0.09642  0.49272  0.19781  Biso   1.000  H
  N64      1.0000 0.04482  0.27629  0.03278  Biso   1.000  N
  H439     1.0000 0.00730  0.30221  0.09642  Biso   1.000  H
  C382     1.0000 0.05878  0.61381  0.86679  Biso   1.000  C
  C383     1.0000 0.07379  0.53701  0.80969  Biso   1.000  C
  C384     1.0000 0.03699  0.69029  0.92621  Biso   1.000  C
  C385     1.0000 0.02720  0.48798  0.27051  Biso   1.000  C
  C386     1.0000 0.01200  0.22951  0.02720  Biso   1.000  C
  H440     1.0000 0.03122  0.62448  0.84280  Biso   1.000  H
  N65      1.0000 0.03278  0.54480  0.77631  Biso   1.000  N
  H441     1.0000 0.09642  0.50728  0.80219  Biso   1.000  H
  N66      1.0000 0.04482  0.72371  0.96722  Biso   1.000  N
  H442     1.0000 0.00730  0.69779  0.90358  Biso   1.000  H
  H443     1.0000 0.05461  0.51731  0.26951  Biso   1.000  H
  C387     1.0000 0.03479  0.45600  0.31999  Biso   1.000  C
  C388     1.0000 0.97280  0.51202  0.27051  Biso   1.000  C
  C389     1.0000 0.04402  0.17999  0.03479  Biso   1.000  C
  C390     1.0000 0.98800  0.22951  0.97280  Biso   1.000  C
  H444     1.0000 0.98271  0.23051  0.05461  Biso   1.000  H
  C391     1.0000 0.02720  0.51202  0.72949  Biso   1.000  C
  C392     1.0000 0.01200  0.77049  0.97280  Biso   1.000  C
  H445     1.0000 0.07130  0.44052  0.31970  Biso   1.000  H
  H446     1.0000 0.00891  0.42591  0.31978  Biso   1.000  H
  C393     1.0000 0.02740  0.48778  0.37138  Biso   1.000  C
  N67      1.0000 0.96722  0.54480  0.22369  Biso   1.000  N
  H447     1.0000 0.94539  0.48269  0.26951  Biso   1.000  H
  C394     1.0000 0.96521  0.54400  0.31999  Biso   1.000  C
  H448     1.0000 0.05950  0.18032  0.07130  Biso   1.000  H
  H449     1.0000 0.07411  0.18020  0.00891  Biso   1.000  H
  C395     1.0000 0.01220  0.12860  0.02740  Biso   1.000  C
  N68      1.0000 0.95518  0.27629  0.96722  Biso   1.000  N
  C396     1.0000 0.95598  0.17999  0.96521  Biso   1.000  C
  H450     1.0000 0.01729  0.23051  0.94539  Biso   1.000  H
  C397     1.0000 0.97280  0.48798  0.72949  Biso   1.000  C
  H451     1.0000 0.05461  0.48269  0.73049  Biso   1.000  H
  C398     1.0000 0.03479  0.54400  0.68001  Biso   1.000  C
  C399     1.0000 0.98800  0.77049  0.02720  Biso   1.000  C
  H452     1.0000 0.98271  0.76949  0.94539  Biso   1.000  H
  C400     1.0000 0.04402  0.82001  0.96521  Biso   1.000  C
  H453     1.0000 0.03162  0.46391  0.40288  Biso   1.000  H
  H454     1.0000 0.05489  0.51631  0.37379  Biso   1.000  H
  C401     1.0000 0.97260  0.51222  0.37138  Biso   1.000  C
  C402     1.0000 0.92621  0.53701  0.19031  Biso   1.000  C
  H455     1.0000 0.92870  0.55948  0.31970  Biso   1.000  H
  H456     1.0000 0.99109  0.57409  0.31978  Biso   1.000  H
  H457     1.0000 0.03611  0.09710  0.03162  Biso   1.000  H
  C403     1.0000 0.98780  0.12860  0.97260  Biso   1.000  C
  H458     1.0000 0.98371  0.12619  0.05489  Biso   1.000  H
  C404     1.0000 0.96301  0.30971  0.92621  Biso   1.000  C
  H459     1.0000 0.94050  0.18032  0.92870  Biso   1.000  H
  H460     1.0000 0.92589  0.18020  0.99109  Biso   1.000  H
  N69      1.0000 0.96722  0.45520  0.77631  Biso   1.000  N
  H461     1.0000 0.94539  0.51731  0.73049  Biso   1.000  H
  C405     1.0000 0.96521  0.45600  0.68001  Biso   1.000  C
  H462     1.0000 0.07130  0.55948  0.68030  Biso   1.000  H
  H463     1.0000 0.00891  0.57409  0.68022  Biso   1.000  H
  C406     1.0000 0.02740  0.51222  0.62862  Biso   1.000  C
  N70      1.0000 0.95518  0.72371  0.03278  Biso   1.000  N
  H464     1.0000 0.01729  0.76949  0.05461  Biso   1.000  H
  C407     1.0000 0.95598  0.82001  0.03479  Biso   1.000  C
  H465     1.0000 0.05950  0.81968  0.92870  Biso   1.000  H
  H466     1.0000 0.07411  0.81980  0.99109  Biso   1.000  H
  C408     1.0000 0.01220  0.87140  0.97260  Biso   1.000  C
  H467     1.0000 0.96838  0.53609  0.40288  Biso   1.000  H
  H468     1.0000 0.94511  0.48369  0.37379  Biso   1.000  H
  C409     1.0000 0.91209  0.56911  0.14348  Biso   1.000  C
  H469     1.0000 0.90358  0.50728  0.19781  Biso   1.000  H
  H470     1.0000 0.96389  0.09710  0.96838  Biso   1.000  H
  H471     1.0000 0.01629  0.12619  0.94511  Biso   1.000  H
  C410     1.0000 0.93091  0.35650  0.91209  Biso   1.000  C
  H472     1.0000 0.99270  0.30221  0.90358  Biso   1.000  H
  C411     1.0000 0.92621  0.46299  0.80969  Biso   1.000  C
  H473     1.0000 0.92870  0.44052  0.68030  Biso   1.000  H
  H474     1.0000 0.99109  0.42591  0.68022  Biso   1.000  H
  C412     1.0000 0.97260  0.48778  0.62862  Biso   1.000  C
  H475     1.0000 0.03162  0.53609  0.59712  Biso   1.000  H
  H476     1.0000 0.05489  0.48369  0.62621  Biso   1.000  H
  C413     1.0000 0.96301  0.69029  0.07379  Biso   1.000  C
  H477     1.0000 0.94050  0.81968  0.07130  Biso   1.000  H
  H478     1.0000 0.92589  0.81980  0.00891  Biso   1.000  H
  C414     1.0000 0.98780  0.87140  0.02740  Biso   1.000  C
  H479     1.0000 0.98371  0.87381  0.94511  Biso   1.000  H
  H480     1.0000 0.03611  0.90290  0.96838  Biso   1.000  H
  C415     1.0000 0.94122  0.61381  0.13321  Biso   1.000  C
  C416     1.0000 0.86679  0.55880  0.11379  Biso   1.000  C
  C417     1.0000 0.94122  0.38619  0.86679  Biso   1.000  C
  C418     1.0000 0.88621  0.36681  0.94122  Biso   1.000  C
  C419     1.0000 0.91209  0.43089  0.85652  Biso   1.000  C
  H481     1.0000 0.90358  0.49272  0.80219  Biso   1.000  H
  H482     1.0000 0.96838  0.46391  0.59712  Biso   1.000  H
  H483     1.0000 0.94511  0.51631  0.62621  Biso   1.000  H
  C420     1.0000 0.93091  0.64350  0.08791  Biso   1.000  C
  H484     1.0000 0.99270  0.69779  0.09642  Biso   1.000  H
  H485     1.0000 0.01629  0.87381  0.05489  Biso   1.000  H
  H486     1.0000 0.96389  0.90290  0.03162  Biso   1.000  H
  H487     1.0000 0.96878  0.62448  0.15720  Biso   1.000  H
  C421     1.0000 0.85652  0.58789  0.06909  Biso   1.000  C
  H488     1.0000 0.84280  0.53120  0.12450  Biso   1.000  H
  H489     1.0000 0.96878  0.37552  0.84280  Biso   1.000  H
  C422     1.0000 0.85652  0.41211  0.93091  Biso   1.000  C
  H490     1.0000 0.87550  0.34282  0.96878  Biso   1.000  H
  C423     1.0000 0.86679  0.44120  0.88621  Biso   1.000  C
  C424     1.0000 0.88621  0.63319  0.05878  Biso   1.000  C
  C425     1.0000 0.80969  0.57381  0.03699  Biso   1.000  C
  C426     1.0000 0.80969  0.42619  0.96301  Biso   1.000  C
  H491     1.0000 0.84280  0.46880  0.87550  Biso   1.000  H
  H492     1.0000 0.87550  0.65718  0.03122  Biso   1.000  H
  N71      1.0000 0.77631  0.53280  0.04482  Biso   1.000  N
  H493     1.0000 0.80219  0.59640  0.00730  Biso   1.000  H
  N72      1.0000 0.77631  0.46720  0.95518  Biso   1.000  N
  H494     1.0000 0.80219  0.40360  0.99270  Biso   1.000  H
  C427     1.0000 0.72949  0.52718  0.01200  Biso   1.000  C
  C428     1.0000 0.72949  0.47282  0.98800  Biso   1.000  C
  H495     1.0000 0.73049  0.55459  0.98271  Biso   1.000  H
  C429     1.0000 0.68001  0.53481  0.04402  Biso   1.000  C
  C430     1.0000 0.68001  0.46519  0.95598  Biso   1.000  C
  H496     1.0000 0.73049  0.44541  0.01729  Biso   1.000  H
  H497     1.0000 0.68030  0.57132  0.05950  Biso   1.000  H
  H498     1.0000 0.68022  0.50889  0.07411  Biso   1.000  H
  C431     1.0000 0.62862  0.52738  0.01220  Biso   1.000  C
  H499     1.0000 0.68030  0.42868  0.94050  Biso   1.000  H
  H500     1.0000 0.68022  0.49111  0.92589  Biso   1.000  H
  C432     1.0000 0.62862  0.47262  0.98780  Biso   1.000  C
  H501     1.0000 0.62621  0.55491  0.98371  Biso   1.000  H
  H502     1.0000 0.59712  0.53160  0.03611  Biso   1.000  H
  H503     1.0000 0.59712  0.46840  0.96389  Biso   1.000  H
  H504     1.0000 0.62621  0.44509  0.01629  Biso   1.000  H
  C433     1.0000 0.04402  0.31999  0.46519  Biso   1.000  C
  C434     1.0000 0.01200  0.27051  0.47282  Biso   1.000  C
  H505     1.0000 0.05950  0.31970  0.42868  Biso   1.000  H
  H506     1.0000 0.07411  0.31978  0.49111  Biso   1.000  H
  C435     1.0000 0.01220  0.37138  0.47262  Biso   1.000  C
  N73      1.0000 0.04482  0.22369  0.46720  Biso   1.000  N
  C436     1.0000 0.98800  0.27051  0.52718  Biso   1.000  C
  H507     1.0000 0.98271  0.26951  0.44541  Biso   1.000  H
  H508     1.0000 0.03611  0.40288  0.46840  Biso   1.000  H
  C437     1.0000 0.98780  0.37138  0.52738  Biso   1.000  C
  H509     1.0000 0.98371  0.37379  0.44509  Biso   1.000  H
  C438     1.0000 0.03699  0.19031  0.42619  Biso   1.000  C
  H510     1.0000 0.01729  0.26951  0.55459  Biso   1.000  H
  N74      1.0000 0.95518  0.22369  0.53280  Biso   1.000  N
  C439     1.0000 0.95598  0.31999  0.53481  Biso   1.000  C
  H511     1.0000 0.01629  0.37379  0.55491  Biso   1.000  H
  H512     1.0000 0.96389  0.40288  0.53160  Biso   1.000  H
  C440     1.0000 0.06909  0.14348  0.41211  Biso   1.000  C
  H513     1.0000 0.00730  0.19781  0.40360  Biso   1.000  H
  C441     1.0000 0.96301  0.19031  0.57381  Biso   1.000  C
  H514     1.0000 0.94050  0.31970  0.57132  Biso   1.000  H
  H515     1.0000 0.92589  0.31978  0.50889  Biso   1.000  H
  C442     1.0000 0.05878  0.11379  0.36681  Biso   1.000  C
  C443     1.0000 0.11379  0.13321  0.44120  Biso   1.000  C
  C444     1.0000 0.93091  0.14348  0.58789  Biso   1.000  C
  H516     1.0000 0.99270  0.19781  0.59640  Biso   1.000  H
  C445     1.0000 0.08791  0.06909  0.35650  Biso   1.000  C
  H517     1.0000 0.03122  0.12450  0.34282  Biso   1.000  H
  C446     1.0000 0.14348  0.08791  0.43089  Biso   1.000  C
  H518     1.0000 0.12450  0.15720  0.46880  Biso   1.000  H
  C447     1.0000 0.94122  0.11379  0.63319  Biso   1.000  C
  C448     1.0000 0.88621  0.13321  0.55880  Biso   1.000  C
  C449     1.0000 0.13321  0.05878  0.38619  Biso   1.000  C
  C450     1.0000 0.07379  0.03699  0.30971  Biso   1.000  C
  C451     1.0000 0.19031  0.07379  0.46299  Biso   1.000  C
  C452     1.0000 0.91209  0.06909  0.64350  Biso   1.000  C
  H519     1.0000 0.96878  0.12450  0.65718  Biso   1.000  H
  C453     1.0000 0.85652  0.08791  0.56911  Biso   1.000  C
  H520     1.0000 0.87550  0.15720  0.53120  Biso   1.000  H
  H521     1.0000 0.15720  0.03122  0.37552  Biso   1.000  H
  N75      1.0000 0.03278  0.04482  0.27629  Biso   1.000  N
  H522     1.0000 0.09642  0.00730  0.30221  Biso   1.000  H
  N76      1.0000 0.22369  0.03278  0.45520  Biso   1.000  N
  H523     1.0000 0.19781  0.09642  0.49272  Biso   1.000  H
  C454     1.0000 0.86679  0.05878  0.61381  Biso   1.000  C
  C455     1.0000 0.92621  0.03699  0.69029  Biso   1.000  C
  C456     1.0000 0.80969  0.07379  0.53701  Biso   1.000  C
  C457     1.0000 0.02720  0.01200  0.22951  Biso   1.000  C
  C458     1.0000 0.27051  0.02720  0.48798  Biso   1.000  C
  H524     1.0000 0.84280  0.03122  0.62448  Biso   1.000  H
  N77      1.0000 0.96722  0.04482  0.72371  Biso   1.000  N
  H525     1.0000 0.90358  0.00730  0.69779  Biso   1.000  H
  N78      1.0000 0.77631  0.03278  0.54480  Biso   1.000  N
  H526     1.0000 0.80219  0.09642  0.50728  Biso   1.000  H
  C459     1.0000 0.03479  0.04402  0.17999  Biso   1.000  C
  C460     1.0000 0.97280  0.98800  0.22951  Biso   1.000  C
  H527     1.0000 0.05461  0.98271  0.23051  Biso   1.000  H
  H528     1.0000 0.26951  0.05461  0.51731  Biso   1.000  H
  C461     1.0000 0.31999  0.03479  0.45600  Biso   1.000  C
  C462     1.0000 0.27051  0.97280  0.51202  Biso   1.000  C
  C463     1.0000 0.97280  0.01200  0.77049  Biso   1.000  C
  C464     1.0000 0.72949  0.02720  0.51202  Biso   1.000  C
  H529     1.0000 0.07130  0.05950  0.18032  Biso   1.000  H
  H530     1.0000 0.00891  0.07411  0.18020  Biso   1.000  H
  C465     1.0000 0.02740  0.01220  0.12860  Biso   1.000  C
  N79      1.0000 0.96722  0.95518  0.27629  Biso   1.000  N
  C466     1.0000 0.96521  0.95598  0.17999  Biso   1.000  C
  H531     1.0000 0.94539  0.01729  0.23051  Biso   1.000  H
  H532     1.0000 0.31970  0.07130  0.44052  Biso   1.000  H
  H533     1.0000 0.31978  0.00891  0.42591  Biso   1.000  H
  C467     1.0000 0.37138  0.02740  0.48778  Biso   1.000  C
  N80      1.0000 0.22369  0.96722  0.54480  Biso   1.000  N
  H534     1.0000 0.26951  0.94539  0.48269  Biso   1.000  H
  C468     1.0000 0.31999  0.96521  0.54400  Biso   1.000  C
  C469     1.0000 0.02720  0.98800  0.77049  Biso   1.000  C
  H535     1.0000 0.94539  0.98271  0.76949  Biso   1.000  H
  C470     1.0000 0.96521  0.04402  0.82001  Biso   1.000  C
  C471     1.0000 0.72949  0.97280  0.48798  Biso   1.000  C
  H536     1.0000 0.73049  0.05461  0.48269  Biso   1.000  H
  C472     1.0000 0.68001  0.03479  0.54400  Biso   1.000  C
  H537     1.0000 0.03162  0.03611  0.09710  Biso   1.000  H
  C473     1.0000 0.97260  0.98780  0.12860  Biso   1.000  C
  H538     1.0000 0.05489  0.98371  0.12619  Biso   1.000  H
  C474     1.0000 0.92621  0.96301  0.30971  Biso   1.000  C
  H539     1.0000 0.92870  0.94050  0.18032  Biso   1.000  H
  H540     1.0000 0.99109  0.92589  0.18020  Biso   1.000  H
  H541     1.0000 0.40288  0.03162  0.46391  Biso   1.000  H
  H542     1.0000 0.37379  0.05489  0.51631  Biso   1.000  H
  C475     1.0000 0.37138  0.97260  0.51222  Biso   1.000  C
  C476     1.0000 0.19031  0.92621  0.53701  Biso   1.000  C
  H543     1.0000 0.31970  0.92870  0.55948  Biso   1.000  H
  H544     1.0000 0.31978  0.99109  0.57409  Biso   1.000  H
  N81      1.0000 0.03278  0.95518  0.72371  Biso   1.000  N
  H545     1.0000 0.05461  0.01729  0.76949  Biso   1.000  H
  C477     1.0000 0.03479  0.95598  0.82001  Biso   1.000  C
  H546     1.0000 0.92870  0.05950  0.81968  Biso   1.000  H
  H547     1.0000 0.99109  0.07411  0.81980  Biso   1.000  H
  C478     1.0000 0.97260  0.01220  0.87140  Biso   1.000  C
  N82      1.0000 0.77631  0.96722  0.45520  Biso   1.000  N
  H548     1.0000 0.73049  0.94539  0.51731  Biso   1.000  H
  C479     1.0000 0.68001  0.96521  0.45600  Biso   1.000  C
  C480     1.0000 0.62862  0.02740  0.51222  Biso   1.000  C
  H549     1.0000 0.68030  0.07130  0.55948  Biso   1.000  H
  H550     1.0000 0.68022  0.00891  0.57409  Biso   1.000  H
  H551     1.0000 0.96838  0.96389  0.09710  Biso   1.000  H
  H552     1.0000 0.94511  0.01629  0.12619  Biso   1.000  H
  C481     1.0000 0.91209  0.93091  0.35650  Biso   1.000  C
  H553     1.0000 0.90358  0.99270  0.30221  Biso   1.000  H
  H554     1.0000 0.40288  0.96838  0.53609  Biso   1.000  H
  H555     1.0000 0.37379  0.94511  0.48369  Biso   1.000  H
  C482     1.0000 0.14348  0.91209  0.56911  Biso   1.000  C
  H556     1.0000 0.19781  0.90358  0.50728  Biso   1.000  H
  C483     1.0000 0.07379  0.96301  0.69029  Biso   1.000  C
  H557     1.0000 0.07130  0.94050  0.81968  Biso   1.000  H
  H558     1.0000 0.00891  0.92589  0.81980  Biso   1.000  H
  C484     1.0000 0.02740  0.98780  0.87140  Biso   1.000  C
  H559     1.0000 0.94511  0.98371  0.87381  Biso   1.000  H
  H560     1.0000 0.96838  0.03611  0.90290  Biso   1.000  H
  C485     1.0000 0.80969  0.92621  0.46299  Biso   1.000  C
  H561     1.0000 0.68030  0.92870  0.44052  Biso   1.000  H
  H562     1.0000 0.68022  0.99109  0.42591  Biso   1.000  H
  C486     1.0000 0.62862  0.97260  0.48778  Biso   1.000  C
  H563     1.0000 0.59712  0.03162  0.53609  Biso   1.000  H
  H564     1.0000 0.62621  0.05489  0.48369  Biso   1.000  H
  C487     1.0000 0.94122  0.88621  0.36681  Biso   1.000  C
  C488     1.0000 0.86679  0.94122  0.38619  Biso   1.000  C
  C489     1.0000 0.11379  0.86679  0.55880  Biso   1.000  C
  C490     1.0000 0.13321  0.94122  0.61381  Biso   1.000  C
  C491     1.0000 0.08791  0.93091  0.64350  Biso   1.000  C
  H565     1.0000 0.09642  0.99270  0.69779  Biso   1.000  H
  H566     1.0000 0.05489  0.01629  0.87381  Biso   1.000  H
  H567     1.0000 0.03162  0.96389  0.90290  Biso   1.000  H
  C492     1.0000 0.85652  0.91209  0.43089  Biso   1.000  C
  H568     1.0000 0.80219  0.90358  0.49272  Biso   1.000  H
  H569     1.0000 0.59712  0.96838  0.46391  Biso   1.000  H
  H570     1.0000 0.62621  0.94511  0.51631  Biso   1.000  H
  C493     1.0000 0.93091  0.85652  0.41211  Biso   1.000  C
  H571     1.0000 0.96878  0.87550  0.34282  Biso   1.000  H
  H572     1.0000 0.84280  0.96878  0.37552  Biso   1.000  H
  C494     1.0000 0.06909  0.85652  0.58789  Biso   1.000  C
  H573     1.0000 0.12450  0.84280  0.53120  Biso   1.000  H
  H574     1.0000 0.15720  0.96878  0.62448  Biso   1.000  H
  C495     1.0000 0.05878  0.88621  0.63319  Biso   1.000  C
  C496     1.0000 0.88621  0.86679  0.44120  Biso   1.000  C
  C497     1.0000 0.96301  0.80969  0.42619  Biso   1.000  C
  C498     1.0000 0.03699  0.80969  0.57381  Biso   1.000  C
  H575     1.0000 0.03122  0.87550  0.65718  Biso   1.000  H
  H576     1.0000 0.87550  0.84280  0.46880  Biso   1.000  H
  N83      1.0000 0.95518  0.77631  0.46720  Biso   1.000  N
  H577     1.0000 0.99270  0.80219  0.40360  Biso   1.000  H
  N84      1.0000 0.04482  0.77631  0.53280  Biso   1.000  N
  H578     1.0000 0.00730  0.80219  0.59640  Biso   1.000  H
  C499     1.0000 0.98800  0.72949  0.47282  Biso   1.000  C
  C500     1.0000 0.01200  0.72949  0.52718  Biso   1.000  C
  C501     1.0000 0.95598  0.68001  0.46519  Biso   1.000  C
  H579     1.0000 0.01729  0.73049  0.44541  Biso   1.000  H
  H580     1.0000 0.98271  0.73049  0.55459  Biso   1.000  H
  C502     1.0000 0.04402  0.68001  0.53481  Biso   1.000  C
  H581     1.0000 0.94050  0.68030  0.42868  Biso   1.000  H
  H582     1.0000 0.92589  0.68022  0.49111  Biso   1.000  H
  C503     1.0000 0.98780  0.62862  0.47262  Biso   1.000  C
  H583     1.0000 0.05950  0.68030  0.57132  Biso   1.000  H
  H584     1.0000 0.07411  0.68022  0.50889  Biso   1.000  H
  C504     1.0000 0.01220  0.62862  0.52738  Biso   1.000  C
  H585     1.0000 0.96389  0.59712  0.46840  Biso   1.000  H
  H586     1.0000 0.01629  0.62621  0.44509  Biso   1.000  H
  H587     1.0000 0.98371  0.62621  0.55491  Biso   1.000  H
  H588     1.0000 0.03611  0.59712  0.53160  Biso   1.000  H
  C505     1.0000 0.76219  0.72259  0.37861  Biso   1.000  C
  C506     1.0000 0.79401  0.71520  0.43000  Biso   1.000  C
  C507     1.0000 0.73779  0.77739  0.37861  Biso   1.000  C
  H589     1.0000 0.78610  0.71841  0.34711  Biso   1.000  H
  H590     1.0000 0.73370  0.69510  0.37620  Biso   1.000  H
  C508     1.0000 0.76199  0.72279  0.47952  Biso   1.000  C
  H591     1.0000 0.80949  0.67869  0.43029  Biso   1.000  H
  H592     1.0000 0.82410  0.74108  0.43021  Biso   1.000  H
  C509     1.0000 0.70601  0.78482  0.43000  Biso   1.000  C
  H593     1.0000 0.71392  0.78161  0.34711  Biso   1.000  H
  H594     1.0000 0.76628  0.80492  0.37620  Biso   1.000  H
  N85      1.0000 0.79481  0.71721  0.52630  Biso   1.000  N
  C510     1.0000 0.73799  0.77719  0.47952  Biso   1.000  C
  H595     1.0000 0.73270  0.69538  0.48052  Biso   1.000  H
  H596     1.0000 0.69049  0.82129  0.43029  Biso   1.000  H
  H597     1.0000 0.67588  0.75890  0.43021  Biso   1.000  H
  C511     1.0000 0.78698  0.67620  0.55968  Biso   1.000  C
  N86      1.0000 0.70521  0.78281  0.52630  Biso   1.000  N
  H598     1.0000 0.76728  0.80460  0.48052  Biso   1.000  H
  C512     1.0000 0.81908  0.66212  0.60651  Biso   1.000  C
  H599     1.0000 0.75729  0.65361  0.55218  Biso   1.000  H
  C513     1.0000 0.71300  0.82382  0.55968  Biso   1.000  C
  C514     1.0000 0.86378  0.69121  0.61682  Biso   1.000  C
  C515     1.0000 0.80881  0.61682  0.63620  Biso   1.000  C
  C516     1.0000 0.68090  0.83790  0.60651  Biso   1.000  C
  H600     1.0000 0.74269  0.84641  0.55218  Biso   1.000  H
  C517     1.0000 0.89351  0.68090  0.66212  Biso   1.000  C
  H601     1.0000 0.87449  0.71881  0.59279  Biso   1.000  H
  C518     1.0000 0.83790  0.60651  0.68090  Biso   1.000  C
  H602     1.0000 0.78121  0.59279  0.62549  Biso   1.000  H
  C519     1.0000 0.63620  0.80881  0.61682  Biso   1.000  C
  C520     1.0000 0.69121  0.88320  0.63620  Biso   1.000  C
  C521     1.0000 0.88320  0.63620  0.69121  Biso   1.000  C
  C522     1.0000 0.94030  0.71300  0.67620  Biso   1.000  C
  C523     1.0000 0.82382  0.55968  0.71300  Biso   1.000  C
  C524     1.0000 0.60651  0.81908  0.66212  Biso   1.000  C
  H603     1.0000 0.62549  0.78121  0.59279  Biso   1.000  H
  C525     1.0000 0.66212  0.89351  0.68090  Biso   1.000  C
  H604     1.0000 0.71881  0.90719  0.62549  Biso   1.000  H
  H605     1.0000 0.90719  0.62549  0.71881  Biso   1.000  H
  N87      1.0000 0.97372  0.70521  0.71721  Biso   1.000  N
  H606     1.0000 0.94780  0.74269  0.65361  Biso   1.000  H
  N88      1.0000 0.78281  0.52630  0.70521  Biso   1.000  N
  H607     1.0000 0.84641  0.55218  0.74269  Biso   1.000  H
  C526     1.0000 0.61682  0.86378  0.69121  Biso   1.000  C
  C527     1.0000 0.55968  0.78698  0.67620  Biso   1.000  C
  C528     1.0000 0.67620  0.94030  0.71300  Biso   1.000  C
  C529     1.0000 0.02050  0.73799  0.72279  Biso   1.000  C
  C530     1.0000 0.77719  0.47952  0.73799  Biso   1.000  C
  H608     1.0000 0.59279  0.87449  0.71881  Biso   1.000  H
  N89      1.0000 0.52630  0.79481  0.71721  Biso   1.000  N
  H609     1.0000 0.55218  0.75729  0.65361  Biso   1.000  H
  N90      1.0000 0.71721  0.97372  0.70521  Biso   1.000  N
  H610     1.0000 0.65361  0.94780  0.74269  Biso   1.000  H
  C531     1.0000 0.02050  0.76199  0.77719  Biso   1.000  C
  H611     1.0000 0.01950  0.76728  0.69538  Biso   1.000  H
  C532     1.0000 0.07002  0.70601  0.71520  Biso   1.000  C
  C533     1.0000 0.72279  0.47952  0.76199  Biso   1.000  C
  H612     1.0000 0.80460  0.48052  0.76728  Biso   1.000  H
  C534     1.0000 0.78482  0.43000  0.70601  Biso   1.000  C
  C535     1.0000 0.47952  0.76199  0.72279  Biso   1.000  C
  C536     1.0000 0.72279  0.02050  0.73799  Biso   1.000  C
  N91      1.0000 0.97372  0.79481  0.78281  Biso   1.000  N
  H613     1.0000 0.01950  0.73270  0.80460  Biso   1.000  H
  C537     1.0000 0.07002  0.79401  0.78482  Biso   1.000  C
  H614     1.0000 0.06969  0.69049  0.67869  Biso   1.000  H
  H615     1.0000 0.06982  0.67588  0.74108  Biso   1.000  H
  C538     1.0000 0.12141  0.73779  0.72259  Biso   1.000  C
  N92      1.0000 0.71721  0.52630  0.79481  Biso   1.000  N
  H616     1.0000 0.69538  0.48052  0.73270  Biso   1.000  H
  C539     1.0000 0.71520  0.43000  0.79401  Biso   1.000  C
  H617     1.0000 0.82129  0.43029  0.69049  Biso   1.000  H
  H618     1.0000 0.75890  0.43021  0.67588  Biso   1.000  H
  C540     1.0000 0.77739  0.37861  0.73779  Biso   1.000  C
  C541     1.0000 0.47952  0.73799  0.77719  Biso   1.000  C
  H619     1.0000 0.48052  0.73270  0.69538  Biso   1.000  H
  C542     1.0000 0.43000  0.79401  0.71520  Biso   1.000  C
  C543     1.0000 0.77719  0.02050  0.76199  Biso   1.000  C
  H620     1.0000 0.69538  0.01950  0.76728  Biso   1.000  H
  C544     1.0000 0.71520  0.07002  0.70601  Biso   1.000  C
  C545     1.0000 0.94030  0.78698  0.82382  Biso   1.000  C
  H621     1.0000 0.06969  0.80949  0.82129  Biso   1.000  H
  H622     1.0000 0.06982  0.82410  0.75890  Biso   1.000  H
  C546     1.0000 0.12141  0.76219  0.77739  Biso   1.000  C
  H623     1.0000 0.15291  0.71392  0.71841  Biso   1.000  H
  H624     1.0000 0.12378  0.76628  0.69510  Biso   1.000  H
  C547     1.0000 0.67620  0.55968  0.78698  Biso   1.000  C
  H625     1.0000 0.67869  0.43029  0.80949  Biso   1.000  H
  H626     1.0000 0.74108  0.43021  0.82410  Biso   1.000  H
  C548     1.0000 0.72259  0.37861  0.76219  Biso   1.000  C
  H627     1.0000 0.78161  0.34711  0.71392  Biso   1.000  H
  H628     1.0000 0.80492  0.37620  0.76628  Biso   1.000  H
  N93      1.0000 0.52630  0.70521  0.78281  Biso   1.000  N
  H629     1.0000 0.48052  0.76728  0.80460  Biso   1.000  H
  C549     1.0000 0.43000  0.70601  0.78482  Biso   1.000  C
  H630     1.0000 0.43029  0.80949  0.67869  Biso   1.000  H
  H631     1.0000 0.43021  0.82410  0.74108  Biso   1.000  H
  C550     1.0000 0.37861  0.76219  0.72259  Biso   1.000  C
  N94      1.0000 0.78281  0.97372  0.79481  Biso   1.000  N
  H632     1.0000 0.80460  0.01950  0.73270  Biso   1.000  H
  C551     1.0000 0.78482  0.07002  0.79401  Biso   1.000  C
  H633     1.0000 0.67869  0.06969  0.69049  Biso   1.000  H
  H634     1.0000 0.74108  0.06982  0.67588  Biso   1.000  H
  C552     1.0000 0.72259  0.12141  0.73779  Biso   1.000  C
  C553     1.0000 0.89351  0.81908  0.83790  Biso   1.000  C
  H635     1.0000 0.94780  0.75729  0.84641  Biso   1.000  H
  H636     1.0000 0.15291  0.78610  0.78161  Biso   1.000  H
  H637     1.0000 0.12378  0.73370  0.80492  Biso   1.000  H
  C554     1.0000 0.66212  0.60651  0.81908  Biso   1.000  C
  H638     1.0000 0.65361  0.55218  0.75729  Biso   1.000  H
  H639     1.0000 0.71841  0.34711  0.78610  Biso   1.000  H
  H640     1.0000 0.69510  0.37620  0.73370  Biso   1.000  H
  C555     1.0000 0.55968  0.71300  0.82382  Biso   1.000  C
  H641     1.0000 0.43029  0.69049  0.82129  Biso   1.000  H
  H642     1.0000 0.43021  0.67588  0.75890  Biso   1.000  H
  C556     1.0000 0.37861  0.73779  0.77739  Biso   1.000  C
  H643     1.0000 0.34711  0.78610  0.71841  Biso   1.000  H
  H644     1.0000 0.37620  0.73370  0.69510  Biso   1.000  H
  C557     1.0000 0.82382  0.94030  0.78698  Biso   1.000  C
  H645     1.0000 0.82129  0.06969  0.80949  Biso   1.000  H
  H646     1.0000 0.75890  0.06982  0.82410  Biso   1.000  H
  C558     1.0000 0.77739  0.12141  0.76219  Biso   1.000  C
  H647     1.0000 0.71841  0.15291  0.71392  Biso   1.000  H
  H648     1.0000 0.69510  0.12378  0.76628  Biso   1.000  H
  C559     1.0000 0.88320  0.86378  0.80881  Biso   1.000  C
  C560     1.0000 0.86378  0.80881  0.88320  Biso   1.000  C
  C561     1.0000 0.69121  0.61682  0.86378  Biso   1.000  C
  C562     1.0000 0.61682  0.63620  0.80881  Biso   1.000  C
  C563     1.0000 0.60651  0.68090  0.83790  Biso   1.000  C
  H649     1.0000 0.55218  0.74269  0.84641  Biso   1.000  H
  H650     1.0000 0.34711  0.71392  0.78161  Biso   1.000  H
  H651     1.0000 0.37620  0.76628  0.80492  Biso   1.000  H
  C564     1.0000 0.83790  0.89351  0.81908  Biso   1.000  C
  H652     1.0000 0.84641  0.94780  0.75729  Biso   1.000  H
  H653     1.0000 0.78161  0.15291  0.78610  Biso   1.000  H
  H654     1.0000 0.80492  0.12378  0.73370  Biso   1.000  H
  H655     1.0000 0.90719  0.87449  0.78121  Biso   1.000  H
  C565     1.0000 0.81908  0.83790  0.89351  Biso   1.000  C
  H656     1.0000 0.87449  0.78121  0.90719  Biso   1.000  H
  C566     1.0000 0.68090  0.66212  0.89351  Biso   1.000  C
  H657     1.0000 0.71881  0.59279  0.87449  Biso   1.000  H
  H658     1.0000 0.59279  0.62549  0.78121  Biso   1.000  H
  C567     1.0000 0.63620  0.69121  0.88320  Biso   1.000  C
  C568     1.0000 0.80881  0.88320  0.86378  Biso   1.000  C
  C569     1.0000 0.78698  0.82382  0.94030  Biso   1.000  C
  C570     1.0000 0.71300  0.67620  0.94030  Biso   1.000  C
  H659     1.0000 0.62549  0.71881  0.90719  Biso   1.000  H
  H660     1.0000 0.78121  0.90719  0.87449  Biso   1.000  H
  N95      1.0000 0.79481  0.78281  0.97372  Biso   1.000  N
  H661     1.0000 0.75729  0.84641  0.94780  Biso   1.000  H
  N96      1.0000 0.70521  0.71721  0.97372  Biso   1.000  N
  H662     1.0000 0.74269  0.65361  0.94780  Biso   1.000  H
  C571     1.0000 0.76199  0.77719  0.02050  Biso   1.000  C
  C572     1.0000 0.73799  0.72279  0.02050  Biso   1.000  C
  H663     1.0000 0.73270  0.80460  0.01950  Biso   1.000  H
  C573     1.0000 0.79401  0.78482  0.07002  Biso   1.000  C
  H664     1.0000 0.76728  0.69538  0.01950  Biso   1.000  H
  C574     1.0000 0.70601  0.71520  0.07002  Biso   1.000  C
  H665     1.0000 0.80949  0.82129  0.06969  Biso   1.000  H
  H666     1.0000 0.82410  0.75890  0.06982  Biso   1.000  H
  C575     1.0000 0.76219  0.77739  0.12141  Biso   1.000  C
  H667     1.0000 0.69049  0.67869  0.06969  Biso   1.000  H
  H668     1.0000 0.67588  0.74108  0.06982  Biso   1.000  H
  C576     1.0000 0.73779  0.72259  0.12141  Biso   1.000  C
  H669     1.0000 0.78610  0.78161  0.15291  Biso   1.000  H
  H670     1.0000 0.73370  0.80492  0.12378  Biso   1.000  H
  H671     1.0000 0.71392  0.71841  0.15291  Biso   1.000  H
  H672     1.0000 0.76628  0.69510  0.12378  Biso   1.000  H
  Ne1      1.0000 0.75000  0.25000  0.25000  Biso   1.000  Ne
  He1      1.0000 0.68458  0.31542  0.31542  Biso   1.000  He
  He2      1.0000 0.81492  0.18507  0.31491  Biso   1.000  He
  He3      1.0000 0.81751  0.31749  0.18250  Biso   1.000  He
  He4      1.0000 0.68178  0.18178  0.18177  Biso   1.000  He
  Ar1      1.0000 0.75000  0.25000  0.25000  Biso   1.000  Ar
  Ne2      1.0000 0.25000  0.75000  0.25000  Biso   1.000  Ne
  He5      1.0000 0.18458  0.81543  0.31541  Biso   1.000  He
  He6      1.0000 0.31492  0.68508  0.31492  Biso   1.000  He
  He7      1.0000 0.31749  0.81750  0.18249  Biso   1.000  He
  He8      1.0000 0.18177  0.68180  0.18179  Biso   1.000  He
  Ar2      1.0000 0.25000  0.75000  0.25000  Biso   1.000  Ar
  Ne3      1.0000 0.25000  0.25000  0.75000  Biso   1.000  Ne
  He9      1.0000 0.18456  0.31542  0.81544  Biso   1.000  He
  He10     1.0000 0.31492  0.18507  0.81495  Biso   1.000  He
  He11     1.0000 0.31750  0.31750  0.68250  Biso   1.000  He
  He12     1.0000 0.18179  0.18178  0.68180  Biso   1.000  He
  Ar3      1.0000 0.25000  0.25000  0.75000  Biso   1.000  Ar
  Ne4      1.0000 0.50000  0.50000  0.50000  Biso   1.000  Ne
  He13     1.0000 0.43292  0.43292  0.56708  Biso   1.000  He
  He14     1.0000 0.56644  0.56644  0.56644  Biso   1.000  He
  He15     1.0000 0.56298  0.43703  0.43703  Biso   1.000  He
  He16     1.0000 0.43293  0.56707  0.43293  Biso   1.000  He
  Ar4      1.0000 0.50000  0.50000  0.50000  Biso   1.000  Ar
  Ne5      1.0000 0.50000  0.00000  0.00000  Biso   1.000  Ne
  He17     1.0000 0.43293  0.93291  0.06708  Biso   1.000  He
  He18     1.0000 0.56645  0.06647  0.06646  Biso   1.000  He
  He19     1.0000 0.56298  0.93700  0.93701  Biso   1.000  He
  He20     1.0000 0.43293  0.06710  0.93292  Biso   1.000  He
  Ar5      1.0000 0.50000  0.00000  0.00000  Biso   1.000  Ar
  Ne6      1.0000 0.00000  0.50000  0.00000  Biso   1.000  Ne
  He21     1.0000 0.93292  0.43293  0.06709  Biso   1.000  He
  He22     1.0000 0.06644  0.56643  0.06645  Biso   1.000  He
  He23     1.0000 0.06297  0.43704  0.93702  Biso   1.000  He
  He24     1.0000 0.93293  0.56706  0.93292  Biso   1.000  He
  Ar6      1.0000 0.00000  0.50000  0.00000  Biso   1.000  Ar
  Ne7      1.0000 0.00000  0.00000  0.50000  Biso   1.000  Ne
  He25     1.0000 0.93290  0.93291  0.56708  Biso   1.000  He
  He26     1.0000 0.06646  0.06644  0.56643  Biso   1.000  He
  He27     1.0000 0.06298  0.93703  0.43704  Biso   1.000  He
  He28     1.0000 0.93292  0.06707  0.43294  Biso   1.000  He
  Ar7      1.0000 0.00000  0.00000  0.50000  Biso   1.000  Ar
  Ne8      1.0000 0.75000  0.75000  0.75000  Biso   1.000  Ne
  He29     1.0000 0.68459  0.81542  0.81543  Biso   1.000  He
  He30     1.0000 0.81493  0.68509  0.81492  Biso   1.000  He
  He31     1.0000 0.81751  0.81752  0.68249  Biso   1.000  He
  He32     1.0000 0.68179  0.68179  0.68179  Biso   1.000  He
  Ar8      1.0000 0.75000  0.75000  0.75000  Biso   1.000  Ar
