data_image0
_cell_length_a       24.031
_cell_length_b       20.452
_cell_length_c       24.097
_cell_angle_alpha    90
_cell_angle_beta     112.99
_cell_angle_gamma    90

_symmetry_space_group_name_H-M    "P 1"
_symmetry_int_tables_number       1

loop_
  _symmetry_equiv_pos_as_xyz
  'x, y, z'

loop_
  _atom_site_label
  _atom_site_occupancy
  _atom_site_fract_x
  _atom_site_fract_y
  _atom_site_fract_z
  _atom_site_thermal_displace_type
  _atom_site_B_iso_or_equiv
  _atom_site_type_symbol
  C1       1.0000 0.51540  0.57241  0.44791  Biso   1.000  C
  C2       1.0000 0.57296  0.58112  0.43700  Biso   1.000  C
  O1       1.0000 0.47024  0.62033  0.41261  Biso   1.000  O
  H1       1.0000 0.49950  0.52772  0.43610  Biso   1.000  H
  H2       1.0000 0.52418  0.57818  0.49128  Biso   1.000  H
  C3       1.0000 0.56848  0.56635  0.37285  Biso   1.000  C
  H3       1.0000 0.60448  0.55251  0.46540  Biso   1.000  H
  H4       1.0000 0.58686  0.62688  0.44687  Biso   1.000  H
  C4       1.0000 0.46632  0.67504  0.44223  Biso   1.000  C
  C5       1.0000 0.56833  0.49286  0.35559  Biso   1.000  C
  H5       1.0000 0.60280  0.58801  0.36740  Biso   1.000  H
  H6       1.0000 0.53088  0.58669  0.34400  Biso   1.000  H
  O2       1.0000 0.49886  0.68619  0.49398  Biso   1.000  O
  C6       1.0000 0.41871  0.71890  0.40441  Biso   1.000  C
  C7       1.0000 0.51425  0.45727  0.35870  Biso   1.000  C
  C8       1.0000 0.56986  0.48827  0.29297  Biso   1.000  C
  C9       1.0000 0.62643  0.45991  0.39981  Biso   1.000  C
  N1       1.0000 0.39098  0.71069  0.34242  Biso   1.000  N
  C10      1.0000 0.39612  0.77484  0.42100  Biso   1.000  C
  N2       1.0000 0.45557  0.47932  0.32958  Biso   1.000  N
  C11      1.0000 0.51164  0.40431  0.39273  Biso   1.000  C
  N3       1.0000 0.53097  0.52352  0.24424  Biso   1.000  N
  C12      1.0000 0.60707  0.45350  0.27237  Biso   1.000  C
  H7       1.0000 0.62626  0.46000  0.44038  Biso   1.000  H
  H8       1.0000 0.66179  0.48401  0.40008  Biso   1.000  H
  H9       1.0000 0.62820  0.41468  0.38701  Biso   1.000  H
  C13      1.0000 0.35114  0.76125  0.31952  Biso   1.000  C
  H10      1.0000 0.39777  0.67871  0.32151  Biso   1.000  H
  C14      1.0000 0.35186  0.80183  0.36695  Biso   1.000  C
  C15      1.0000 0.41479  0.79787  0.48524  Biso   1.000  C
  C16      1.0000 0.41618  0.44172  0.34576  Biso   1.000  C
  H11      1.0000 0.44466  0.51252  0.30438  Biso   1.000  H
  C17      1.0000 0.45031  0.39434  0.38435  Biso   1.000  C
  H12      1.0000 0.54509  0.37869  0.41757  Biso   1.000  H
  C18      1.0000 0.54368  0.51183  0.19371  Biso   1.000  C
  H13      1.0000 0.50229  0.54968  0.24519  Biso   1.000  H
  C19      1.0000 0.59102  0.46841  0.21079  Biso   1.000  C
  H14      1.0000 0.63829  0.42441  0.29568  Biso   1.000  H
  C20      1.0000 0.31400  0.77587  0.25903  Biso   1.000  C
  C21      1.0000 0.31245  0.85933  0.35387  Biso   1.000  C
  H15      1.0000 0.41255  0.84618  0.48578  Biso   1.000  H
  H16      1.0000 0.45726  0.78491  0.50868  Biso   1.000  H
  C22      1.0000 0.37438  0.76912  0.51476  Biso   1.000  C
  C23      1.0000 0.34845  0.45477  0.32169  Biso   1.000  C
  H17      1.0000 0.43557  0.36080  0.40229  Biso   1.000  H
  C24      1.0000 0.50873  0.54366  0.13380  Biso   1.000  C
  H18      1.0000 0.60970  0.45130  0.18559  Biso   1.000  H
  N4       1.0000 0.30711  0.74325  0.20764  Biso   1.000  N
  C25      1.0000 0.27569  0.83063  0.24492  Biso   1.000  C
  C26      1.0000 0.27477  0.87410  0.29261  Biso   1.000  C
  C27      1.0000 0.31038  0.90182  0.39895  Biso   1.000  C
  H19      1.0000 0.33258  0.78310  0.49240  Biso   1.000  H
  H20      1.0000 0.38819  0.78442  0.55651  Biso   1.000  H
  H21      1.0000 0.37656  0.72130  0.51427  Biso   1.000  H
  C28      1.0000 0.31922  0.43849  0.25533  Biso   1.000  C
  C29      1.0000 0.32077  0.41033  0.35599  Biso   1.000  C
  C30      1.0000 0.33654  0.52684  0.33336  Biso   1.000  C
  C31      1.0000 0.44749  0.51090  0.10229  Biso   1.000  C
  C32      1.0000 0.50093  0.61749  0.14259  Biso   1.000  C
  C33      1.0000 0.54521  0.53648  0.09381  Biso   1.000  C
  C34      1.0000 0.26368  0.77577  0.15954  Biso   1.000  C
  H22      1.0000 0.32667  0.70771  0.20520  Biso   1.000  H
  C35      1.0000 0.24257  0.82965  0.18086  Biso   1.000  C
  C36      1.0000 0.23860  0.93057  0.28112  Biso   1.000  C
  C37      1.0000 0.27426  0.95639  0.38556  Biso   1.000  C
  H23      1.0000 0.33469  0.89238  0.43989  Biso   1.000  H
  C38      1.0000 0.28219  0.38793  0.22657  Biso   1.000  C
  N5       1.0000 0.32787  0.47550  0.21124  Biso   1.000  N
  H24      1.0000 0.27707  0.41810  0.34121  Biso   1.000  H
  H25      1.0000 0.33939  0.42030  0.39918  Biso   1.000  H
  H26      1.0000 0.32830  0.36441  0.34950  Biso   1.000  H
  H27      1.0000 0.35458  0.55579  0.31258  Biso   1.000  H
  H28      1.0000 0.35459  0.53569  0.37677  Biso   1.000  H
  H29      1.0000 0.29286  0.53462  0.31808  Biso   1.000  H
  N6       1.0000 0.40241  0.51423  0.12424  Biso   1.000  N
  C39      1.0000 0.42585  0.47267  0.05180  Biso   1.000  C
  H30      1.0000 0.47630  0.62341  0.16639  Biso   1.000  H
  H31      1.0000 0.48081  0.63842  0.10310  Biso   1.000  H
  H32      1.0000 0.54071  0.63749  0.16382  Biso   1.000  H
  H33      1.0000 0.58519  0.55628  0.11419  Biso   1.000  H
  H34      1.0000 0.52379  0.55858  0.05518  Biso   1.000  H
  H35      1.0000 0.54979  0.48998  0.08660  Biso   1.000  H
  C40      1.0000 0.24246  0.74922  0.09877  Biso   1.000  C
  C41      1.0000 0.19406  0.87590  0.14232  Biso   1.000  C
  H36      1.0000 0.21370  0.94118  0.24059  Biso   1.000  H
  C42      1.0000 0.23801  0.97125  0.32678  Biso   1.000  C
  H37      1.0000 0.27430  0.98421  0.41721  Biso   1.000  H
  C43      1.0000 0.26760  0.39385  0.16391  Biso   1.000  C
  H38      1.0000 0.26847  0.35439  0.24541  Biso   1.000  H
  C44      1.0000 0.29605  0.44861  0.15485  Biso   1.000  C
  H39      1.0000 0.35029  0.51090  0.21800  Biso   1.000  H
  C45      1.0000 0.35228  0.47888  0.08795  Biso   1.000  C
  H40      1.0000 0.40517  0.53579  0.15679  Biso   1.000  H
  C46      1.0000 0.36644  0.45238  0.04292  Biso   1.000  C
  H41      1.0000 0.44689  0.46152  0.02700  Biso   1.000  H
  O3       1.0000 0.27017  0.69255  0.09611  Biso   1.000  O
  O4       1.0000 0.20326  0.77337  0.05468  Biso   1.000  O
  H42      1.0000 0.16851  0.88842  0.16431  Biso   1.000  H
  H43      1.0000 0.16808  0.85302  0.10499  Biso   1.000  H
  C47      1.0000 0.21941  0.93751  0.12546  Biso   1.000  C
  H44      1.0000 0.21288  0.00890  0.31768  Biso   1.000  H
  H45      1.0000 0.24249  0.36510  0.13348  Biso   1.000  H
  C48      1.0000 0.29292  0.47976  0.09638  Biso   1.000  C
  H46      1.0000 0.34090  0.42519  0.01118  Biso   1.000  H
  C49      1.0000 0.24386  0.65891  0.03827  Biso   1.000  C
  H47      1.0000 0.24271  0.96220  0.16211  Biso   1.000  H
  H48      1.0000 0.18608  0.96450  0.09868  Biso   1.000  H
  H49      1.0000 0.24591  0.92539  0.10481  Biso   1.000  H
  C50      1.0000 0.24507  0.44274  0.04391  Biso   1.000  C
  C51      1.0000 0.27224  0.55202  0.09512  Biso   1.000  C
  C52      1.0000 0.27590  0.59422  0.04422  Biso   1.000  C
  H50      1.0000 0.24890  0.68561  0.00631  Biso   1.000  H
  H51      1.0000 0.20012  0.65172  0.02732  Biso   1.000  H
  H52      1.0000 0.24138  0.46260  0.00559  Biso   1.000  H
  H53      1.0000 0.20610  0.44509  0.04778  Biso   1.000  H
  H54      1.0000 0.25720  0.39688  0.04481  Biso   1.000  H
  H55      1.0000 0.22991  0.55212  0.09192  Biso   1.000  H
  H56      1.0000 0.29729  0.57271  0.13411  Biso   1.000  H
  H57      1.0000 0.31889  0.60239  0.05189  Biso   1.000  H
  H58      1.0000 0.25769  0.57012  0.00568  Biso   1.000  H
  C53      1.0000 0.48458  0.42759  0.55209  Biso   1.000  C
  O5       1.0000 0.52968  0.37967  0.58734  Biso   1.000  O
  H59      1.0000 0.50049  0.47228  0.56390  Biso   1.000  H
  H60      1.0000 0.47578  0.42182  0.50868  Biso   1.000  H
  C54      1.0000 0.42696  0.41888  0.56295  Biso   1.000  C
  C55      1.0000 0.53362  0.32496  0.55777  Biso   1.000  C
  H61      1.0000 0.39546  0.44749  0.53460  Biso   1.000  H
  H62      1.0000 0.41306  0.37312  0.55308  Biso   1.000  H
  C56      1.0000 0.43150  0.43365  0.62715  Biso   1.000  C
  O6       1.0000 0.50108  0.31381  0.50602  Biso   1.000  O
  C57      1.0000 0.58123  0.28110  0.59559  Biso   1.000  C
  C58      1.0000 0.43165  0.50714  0.64441  Biso   1.000  C
  H63      1.0000 0.39719  0.41199  0.63260  Biso   1.000  H
  H64      1.0000 0.46906  0.41331  0.65600  Biso   1.000  H
  N7       1.0000 0.60896  0.28931  0.65757  Biso   1.000  N
  C59      1.0000 0.60384  0.22516  0.57896  Biso   1.000  C
  C60      1.0000 0.43008  0.51173  0.70703  Biso   1.000  C
  C61      1.0000 0.48567  0.54273  0.64126  Biso   1.000  C
  C62      1.0000 0.37351  0.54009  0.60019  Biso   1.000  C
  H65      1.0000 0.60217  0.32129  0.67849  Biso   1.000  H
  C63      1.0000 0.64880  0.23875  0.68047  Biso   1.000  C
  C64      1.0000 0.64808  0.19817  0.63305  Biso   1.000  C
  C65      1.0000 0.58515  0.20213  0.51476  Biso   1.000  C
  N8       1.0000 0.46895  0.47648  0.75571  Biso   1.000  N
  C66      1.0000 0.39287  0.54650  0.72763  Biso   1.000  C
  N9       1.0000 0.54435  0.52068  0.67038  Biso   1.000  N
  C67      1.0000 0.48830  0.59569  0.60727  Biso   1.000  C
  H66      1.0000 0.37366  0.54000  0.55957  Biso   1.000  H
  H67      1.0000 0.33818  0.51599  0.59987  Biso   1.000  H
  H68      1.0000 0.37178  0.58532  0.61299  Biso   1.000  H
  C68      1.0000 0.68592  0.22413  0.74093  Biso   1.000  C
  C69      1.0000 0.68753  0.14067  0.64612  Biso   1.000  C
  H69      1.0000 0.58738  0.15382  0.51418  Biso   1.000  H
  H70      1.0000 0.54266  0.21509  0.49128  Biso   1.000  H
  C70      1.0000 0.62558  0.23088  0.48519  Biso   1.000  C
  H71      1.0000 0.49763  0.45032  0.75477  Biso   1.000  H
  C71      1.0000 0.45625  0.48817  0.80625  Biso   1.000  C
  H72      1.0000 0.36167  0.57559  0.70428  Biso   1.000  H
  C72      1.0000 0.40894  0.53159  0.78916  Biso   1.000  C
  H73      1.0000 0.55526  0.48748  0.69558  Biso   1.000  H
  C73      1.0000 0.58379  0.55828  0.65419  Biso   1.000  C
  C74      1.0000 0.54962  0.60566  0.61561  Biso   1.000  C
  H74      1.0000 0.45488  0.62131  0.58238  Biso   1.000  H
  N10      1.0000 0.69281  0.25675  0.79232  Biso   1.000  N
  C75      1.0000 0.72425  0.16937  0.75508  Biso   1.000  C
  C76      1.0000 0.72517  0.12590  0.70739  Biso   1.000  C
  C77      1.0000 0.68956  0.09818  0.60104  Biso   1.000  C
  H75      1.0000 0.66736  0.21690  0.50759  Biso   1.000  H
  H76      1.0000 0.61179  0.21558  0.44349  Biso   1.000  H
  H77      1.0000 0.62336  0.27870  0.48569  Biso   1.000  H
  C78      1.0000 0.49119  0.45634  0.86616  Biso   1.000  C
  H78      1.0000 0.39026  0.54870  0.81436  Biso   1.000  H
  C79      1.0000 0.65149  0.54523  0.67831  Biso   1.000  C
  H79      1.0000 0.56437  0.63920  0.59771  Biso   1.000  H
  H80      1.0000 0.67327  0.29229  0.79480  Biso   1.000  H
  C80      1.0000 0.73626  0.22423  0.84046  Biso   1.000  C
  C81      1.0000 0.75735  0.17035  0.81909  Biso   1.000  C
  C82      1.0000 0.76132  0.06943  0.71884  Biso   1.000  C
  C83      1.0000 0.72566  0.04361  0.61439  Biso   1.000  C
  H81      1.0000 0.66527  0.10762  0.56007  Biso   1.000  H
  C84      1.0000 0.55245  0.48910  0.89771  Biso   1.000  C
  C85      1.0000 0.49901  0.38251  0.85741  Biso   1.000  C
  C86      1.0000 0.45473  0.46352  0.90619  Biso   1.000  C
  C87      1.0000 0.68072  0.56151  0.74467  Biso   1.000  C
  C88      1.0000 0.67915  0.58967  0.64396  Biso   1.000  C
  C89      1.0000 0.66344  0.47316  0.66664  Biso   1.000  C
  C90      1.0000 0.75746  0.25078  0.90118  Biso   1.000  C
  C91      1.0000 0.80588  0.12410  0.85768  Biso   1.000  C
  H82      1.0000 0.78627  0.05882  0.75936  Biso   1.000  H
  C92      1.0000 0.76193  0.02875  0.67322  Biso   1.000  C
  H83      1.0000 0.72569  0.01579  0.58279  Biso   1.000  H
  N11      1.0000 0.59751  0.48577  0.87571  Biso   1.000  N
  C93      1.0000 0.57408  0.52733  0.94816  Biso   1.000  C
  H84      1.0000 0.52366  0.37659  0.83356  Biso   1.000  H
  H85      1.0000 0.51917  0.36158  0.89690  Biso   1.000  H
  H86      1.0000 0.45927  0.36251  0.83618  Biso   1.000  H
  H87      1.0000 0.41473  0.44372  0.88577  Biso   1.000  H
  H88      1.0000 0.47613  0.44142  0.94478  Biso   1.000  H
  H89      1.0000 0.45015  0.51002  0.91340  Biso   1.000  H
  N12      1.0000 0.67205  0.52450  0.78871  Biso   1.000  N
  C94      1.0000 0.71777  0.61207  0.77338  Biso   1.000  C
  H90      1.0000 0.72287  0.58190  0.65879  Biso   1.000  H
  H91      1.0000 0.66057  0.57970  0.60077  Biso   1.000  H
  H92      1.0000 0.67168  0.63559  0.65050  Biso   1.000  H
  H93      1.0000 0.64534  0.44421  0.68737  Biso   1.000  H
  H94      1.0000 0.64538  0.46431  0.62318  Biso   1.000  H
  H95      1.0000 0.70707  0.46538  0.68187  Biso   1.000  H
  O7       1.0000 0.72981  0.30745  0.90389  Biso   1.000  O
  O8       1.0000 0.79668  0.22663  0.94532  Biso   1.000  O
  H96      1.0000 0.83147  0.11158  0.83568  Biso   1.000  H
  H97      1.0000 0.83184  0.14698  0.89496  Biso   1.000  H
  C95      1.0000 0.78053  0.06249  0.87454  Biso   1.000  C
  H98      1.0000 0.78704  0.99110  0.68228  Biso   1.000  H
  H99      1.0000 0.59475  0.46421  0.84317  Biso   1.000  H
  C96      1.0000 0.64766  0.52112  0.91205  Biso   1.000  C
  H100     1.0000 0.55305  0.53848  0.97300  Biso   1.000  H
  C97      1.0000 0.63352  0.54762  0.95704  Biso   1.000  C
  H101     1.0000 0.64965  0.48910  0.78199  Biso   1.000  H
  C98      1.0000 0.70387  0.55139  0.84510  Biso   1.000  C
  C99      1.0000 0.73237  0.60615  0.83604  Biso   1.000  C
  H102     1.0000 0.73147  0.64561  0.75459  Biso   1.000  H
  C100     1.0000 0.75608  0.34109  0.96173  Biso   1.000  C
  H103     1.0000 0.75727  0.03780  0.83789  Biso   1.000  H
  H104     1.0000 0.81384  0.03550  0.90127  Biso   1.000  H
  H105     1.0000 0.75403  0.07461  0.89519  Biso   1.000  H
  C101     1.0000 0.70701  0.52024  0.90357  Biso   1.000  C
  H106     1.0000 0.65906  0.57481  0.98877  Biso   1.000  H
  H107     1.0000 0.75743  0.63490  0.86647  Biso   1.000  H
  C102     1.0000 0.72404  0.40578  0.95577  Biso   1.000  C
  H108     1.0000 0.75104  0.31439  0.99369  Biso   1.000  H
  H109     1.0000 0.79986  0.34828  0.97268  Biso   1.000  H
  C103     1.0000 0.72774  0.44798  0.90488  Biso   1.000  C
  C104     1.0000 0.75485  0.55726  0.95605  Biso   1.000  C
  H110     1.0000 0.68103  0.39761  0.94807  Biso   1.000  H
  H111     1.0000 0.74224  0.42988  0.99427  Biso   1.000  H
  H112     1.0000 0.77007  0.44788  0.90808  Biso   1.000  H
  H113     1.0000 0.70265  0.42729  0.86589  Biso   1.000  H
  H114     1.0000 0.75854  0.53740  0.99436  Biso   1.000  H
  H115     1.0000 0.79382  0.55491  0.95217  Biso   1.000  H
  H116     1.0000 0.74274  0.60312  0.95519  Biso   1.000  H
  C105     1.0000 0.75246  0.39395  0.52779  Biso   1.000  C
  C106     1.0000 0.79913  0.43150  0.58107  Biso   1.000  C
  H117     1.0000 0.71278  0.39639  0.53018  Biso   1.000  H
  H118     1.0000 0.75006  0.41341  0.48979  Biso   1.000  H
  H119     1.0000 0.76478  0.34808  0.52950  Biso   1.000  H
  C107     1.0000 0.79785  0.40192  0.63837  Biso   1.000  C
  C108     1.0000 0.86075  0.42504  0.57724  Biso   1.000  C
  C109     1.0000 0.78097  0.50479  0.57711  Biso   1.000  C
  N13      1.0000 0.83129  0.42685  0.69508  Biso   1.000  N
  C110     1.0000 0.76561  0.35038  0.64648  Biso   1.000  C
  N14      1.0000 0.91102  0.46000  0.61389  Biso   1.000  N
  C111     1.0000 0.87728  0.39233  0.53645  Biso   1.000  C
  H120     1.0000 0.73838  0.50831  0.56751  Biso   1.000  H
  H121     1.0000 0.80207  0.52518  0.61547  Biso   1.000  H
  C112     1.0000 0.79697  0.54068  0.52797  Biso   1.000  C
  H122     1.0000 0.81225  0.52728  0.61150  Biso   1.000  H
  H123     1.0000 0.74284  0.50719  0.58378  Biso   1.000  H
  C113     1.0000 0.77178  0.54469  0.52080  Biso   1.000  C
  H124     1.0000 0.85604  0.46040  0.70238  Biso   1.000  H
  C114     1.0000 0.82024  0.39131  0.73858  Biso   1.000  C
  C115     1.0000 0.77951  0.34339  0.70874  Biso   1.000  C
  H125     1.0000 0.73845  0.32368  0.61538  Biso   1.000  H
  H126     1.0000 0.91236  0.48509  0.64410  Biso   1.000  H
  C116     1.0000 0.95903  0.45008  0.59654  Biso   1.000  C
  H127     1.0000 0.85208  0.36422  0.50548  Biso   1.000  H
  C117     1.0000 0.93869  0.40778  0.54866  Biso   1.000  C
  H128     1.0000 0.78188  0.51462  0.49051  Biso   1.000  H
  H129     1.0000 0.84146  0.54381  0.54190  Biso   1.000  H
  C118     1.0000 0.76976  0.60982  0.51418  Biso   1.000  C
  H130     1.0000 0.77008  0.51501  0.48767  Biso   1.000  H
  C119     1.0000 0.82266  0.59368  0.53257  Biso   1.000  C
  H131     1.0000 0.73268  0.56831  0.50778  Biso   1.000  H
  C120     1.0000 0.84823  0.40798  0.80516  Biso   1.000  C
  H132     1.0000 0.76343  0.31122  0.72677  Biso   1.000  H
  C121     1.0000 0.02024  0.48264  0.62809  Biso   1.000  C
  H133     1.0000 0.96166  0.39150  0.52729  Biso   1.000  H
  H134     1.0000 0.72507  0.60762  0.49610  Biso   1.000  H
  H135     1.0000 0.78387  0.63260  0.48591  Biso   1.000  H
  O9       1.0000 0.79065  0.64419  0.57228  Biso   1.000  O
  H136     1.0000 0.81515  0.61989  0.49587  Biso   1.000  H
  H137     1.0000 0.86148  0.57021  0.54298  Biso   1.000  H
  O10      1.0000 0.82649  0.63691  0.58220  Biso   1.000  O
  C122     1.0000 0.91610  0.39585  0.83320  Biso   1.000  C
  C123     1.0000 0.81842  0.36446  0.83762  Biso   1.000  C
  C124     1.0000 0.83537  0.48030  0.81472  Biso   1.000  C
  C125     1.0000 0.05324  0.45467  0.69080  Biso   1.000  C
  C126     1.0000 0.05910  0.46900  0.59090  Biso   1.000  C
  C127     1.0000 0.01169  0.55760  0.63039  Biso   1.000  C
  C128     1.0000 0.76595  0.70428  0.57147  Biso   1.000  C
  O11      1.0000 0.75388  0.70438  0.52058  Biso   1.000  O
  C129     1.0000 0.78507  0.68590  0.57048  Biso   1.000  C
  N15      1.0000 0.95710  0.43238  0.81932  Biso   1.000  N
  C130     1.0000 0.94907  0.35116  0.87639  Biso   1.000  C
  H138     1.0000 0.83523  0.37488  0.88076  Biso   1.000  H
  H139     1.0000 0.77475  0.37229  0.82090  Biso   1.000  H
  H140     1.0000 0.82624  0.31840  0.83199  Biso   1.000  H
  H141     1.0000 0.79157  0.48739  0.79957  Biso   1.000  H
  H142     1.0000 0.85365  0.49071  0.85777  Biso   1.000  H
  H143     1.0000 0.85274  0.50861  0.79277  Biso   1.000  H
  N16      1.0000 0.03748  0.46998  0.73854  Biso   1.000  N
  C131     1.0000 0.10129  0.41258  0.71244  Biso   1.000  C
  H144     1.0000 0.06408  0.42172  0.58820  Biso   1.000  H
  H145     1.0000 0.03887  0.48709  0.55029  Biso   1.000  H
  H146     1.0000 0.09885  0.48949  0.61069  Biso   1.000  H
  H147     1.0000 0.99047  0.57442  0.58937  Biso   1.000  H
  H148     1.0000 0.98788  0.56708  0.65437  Biso   1.000  H
  H149     1.0000 0.05135  0.57872  0.64878  Biso   1.000  H
  O12      1.0000 0.73535  0.73142  0.52459  Biso   1.000  O
  C132     1.0000 0.78214  0.72130  0.62972  Biso   1.000  C
  H150     1.0000 0.94746  0.46401  0.79236  Biso   1.000  H
  C133     1.0000 0.01572  0.41228  0.85381  Biso   1.000  C
  H151     1.0000 0.93307  0.31889  0.89438  Biso   1.000  H
  C134     1.0000 0.01085  0.36187  0.88910  Biso   1.000  C
  H152     1.0000 0.00783  0.49638  0.73646  Biso   1.000  H
  C135     1.0000 0.07506  0.43761  0.79029  Biso   1.000  C
  H153     1.0000 0.12206  0.39409  0.68981  Biso   1.000  H
  C136     1.0000 0.11470  0.40143  0.77419  Biso   1.000  C
  N17      1.0000 0.81816  0.68825  0.68151  Biso   1.000  N
  C137     1.0000 0.75467  0.77362  0.64500  Biso   1.000  C
  C138     1.0000 0.07084  0.44607  0.85133  Biso   1.000  C
  H154     1.0000 0.04365  0.33811  0.91737  Biso   1.000  H
  H155     1.0000 0.14577  0.37370  0.80007  Biso   1.000  H
  H156     1.0000 0.84038  0.65348  0.68300  Biso   1.000  H
  C139     1.0000 0.81344  0.71846  0.72939  Biso   1.000  C
  C140     1.0000 0.77339  0.77190  0.70928  Biso   1.000  C
  C141     1.0000 0.71187  0.82051  0.59969  Biso   1.000  C
  C142     1.0000 0.12765  0.41434  0.89875  Biso   1.000  C
  C143     1.0000 0.07040  0.52063  0.86498  Biso   1.000  C
  C144     1.0000 0.84076  0.70257  0.79087  Biso   1.000  C
  C145     1.0000 0.75884  0.80985  0.75287  Biso   1.000  C
  H157     1.0000 0.71777  0.86500  0.61718  Biso   1.000  H
  H158     1.0000 0.72138  0.82188  0.56318  Biso   1.000  H
  C146     1.0000 0.64520  0.79982  0.58171  Biso   1.000  C
  H159     1.0000 0.12953  0.36818  0.88856  Biso   1.000  H
  H160     1.0000 0.16374  0.43712  0.89929  Biso   1.000  H
  H161     1.0000 0.12587  0.41751  0.93860  Biso   1.000  H
  C147     1.0000 0.07309  0.53980  0.92751  Biso   1.000  C
  H162     1.0000 0.03324  0.53990  0.83438  Biso   1.000  H
  H163     1.0000 0.10524  0.54112  0.85949  Biso   1.000  H
  N18      1.0000 0.87985  0.65294  0.81873  Biso   1.000  N
  C148     1.0000 0.82686  0.73743  0.83411  Biso   1.000  C
  C149     1.0000 0.71752  0.86358  0.73597  Biso   1.000  C
  C150     1.0000 0.78487  0.79229  0.81508  Biso   1.000  C
  H164     1.0000 0.63656  0.79518  0.61808  Biso   1.000  H
  H165     1.0000 0.61858  0.83312  0.55538  Biso   1.000  H
  H166     1.0000 0.63818  0.75792  0.56038  Biso   1.000  H
  C151     1.0000 0.01509  0.53481  0.93828  Biso   1.000  C
  H167     1.0000 0.08753  0.58552  0.93549  Biso   1.000  H
  H168     1.0000 0.10383  0.51188  0.95767  Biso   1.000  H
  H169     1.0000 0.89594  0.62542  0.80106  Biso   1.000  H
  C152     1.0000 0.88973  0.65338  0.87914  Biso   1.000  C
  C153     1.0000 0.85832  0.70477  0.89086  Biso   1.000  C
  H170     1.0000 0.69967  0.87630  0.69476  Biso   1.000  H
  C154     1.0000 0.70304  0.89752  0.77816  Biso   1.000  C
  C155     1.0000 0.76850  0.82833  0.85615  Biso   1.000  C
  O13      1.0000 0.97166  0.58273  0.89974  Biso   1.000  O
  H171     1.0000 0.99815  0.49012  0.92859  Biso   1.000  H
  H172     1.0000 0.02345  0.54371  0.98120  Biso   1.000  H
  C156     1.0000 0.92986  0.60498  0.91998  Biso   1.000  C
  C157     1.0000 0.85974  0.72081  0.95248  Biso   1.000  C
  H173     1.0000 0.67546  0.93311  0.76576  Biso   1.000  H
  C158     1.0000 0.72846  0.87991  0.83807  Biso   1.000  C
  H174     1.0000 0.78555  0.81679  0.89758  Biso   1.000  H
  O14      1.0000 0.92684  0.58606  0.96646  Biso   1.000  O
  H175     1.0000 0.81847  0.73269  0.94879  Biso   1.000  H
  H176     1.0000 0.87233  0.68150  0.97836  Biso   1.000  H
  C159     1.0000 0.90264  0.77679  0.98255  Biso   1.000  C
  H177     1.0000 0.71843  0.90329  0.86688  Biso   1.000  H
  H178     1.0000 0.89143  0.81532  0.95627  Biso   1.000  H
  H179     1.0000 0.94413  0.76389  0.98967  Biso   1.000  H
  H180     1.0000 0.89997  0.78740  0.02110  Biso   1.000  H
  C160     1.0000 0.24748  0.60605  0.47221  Biso   1.000  C
  C161     1.0000 0.20081  0.56850  0.41892  Biso   1.000  C
  H181     1.0000 0.28718  0.60361  0.46977  Biso   1.000  H
  H182     1.0000 0.24988  0.58659  0.51021  Biso   1.000  H
  H183     1.0000 0.23516  0.65192  0.47049  Biso   1.000  H
  C162     1.0000 0.21897  0.49521  0.42289  Biso   1.000  C
  C163     1.0000 0.20209  0.59808  0.36163  Biso   1.000  C
  C164     1.0000 0.13917  0.57496  0.42271  Biso   1.000  C
  C165     1.0000 0.20295  0.45932  0.47198  Biso   1.000  C
  C166     1.0000 0.22816  0.45531  0.47919  Biso   1.000  C
  H184     1.0000 0.26160  0.49169  0.43249  Biso   1.000  H
  H185     1.0000 0.19789  0.47482  0.38448  Biso   1.000  H
  H186     1.0000 0.18769  0.47272  0.38849  Biso   1.000  H
  H187     1.0000 0.25708  0.49281  0.41617  Biso   1.000  H
  N19      1.0000 0.16865  0.57315  0.30492  Biso   1.000  N
  C167     1.0000 0.23433  0.64962  0.35351  Biso   1.000  C
  N20      1.0000 0.08890  0.54000  0.38606  Biso   1.000  N
  C168     1.0000 0.12265  0.60767  0.46351  Biso   1.000  C
  C169     1.0000 0.23016  0.39018  0.48578  Biso   1.000  C
  C170     1.0000 0.17726  0.40632  0.46738  Biso   1.000  C
  H188     1.0000 0.15848  0.45619  0.45810  Biso   1.000  H
  H189     1.0000 0.21806  0.48538  0.50949  Biso   1.000  H
  H190     1.0000 0.22989  0.48499  0.51228  Biso   1.000  H
  H191     1.0000 0.26729  0.43169  0.49218  Biso   1.000  H
  H192     1.0000 0.14390  0.53960  0.29761  Biso   1.000  H
  C171     1.0000 0.17968  0.60869  0.26137  Biso   1.000  C
  C172     1.0000 0.22047  0.65661  0.29126  Biso   1.000  C
  H193     1.0000 0.26147  0.67632  0.38457  Biso   1.000  H
  H194     1.0000 0.08758  0.51491  0.35590  Biso   1.000  H
  C173     1.0000 0.04091  0.54992  0.40346  Biso   1.000  C
  H195     1.0000 0.14788  0.63578  0.49448  Biso   1.000  H
  C174     1.0000 0.06129  0.59222  0.45134  Biso   1.000  C
  O15      1.0000 0.20927  0.35581  0.42767  Biso   1.000  O
  H196     1.0000 0.27487  0.39238  0.50390  Biso   1.000  H
  H197     1.0000 0.21607  0.36740  0.51409  Biso   1.000  H
  O16      1.0000 0.17349  0.36309  0.41780  Biso   1.000  O
  H198     1.0000 0.18477  0.38011  0.50408  Biso   1.000  H
  H199     1.0000 0.13848  0.42979  0.45697  Biso   1.000  H
  C175     1.0000 0.15169  0.59202  0.19479  Biso   1.000  C
  H200     1.0000 0.23649  0.68878  0.27318  Biso   1.000  H
  C176     1.0000 0.97970  0.51736  0.37191  Biso   1.000  C
  H201     1.0000 0.03828  0.60850  0.47270  Biso   1.000  H
  C177     1.0000 0.23398  0.29572  0.42848  Biso   1.000  C
  O17      1.0000 0.24609  0.29562  0.47938  Biso   1.000  O
  C178     1.0000 0.21485  0.31410  0.42947  Biso   1.000  C
  C179     1.0000 0.08384  0.60415  0.16679  Biso   1.000  C
  C180     1.0000 0.18155  0.63554  0.16233  Biso   1.000  C
  C181     1.0000 0.16459  0.51970  0.18523  Biso   1.000  C
  C182     1.0000 0.94674  0.54533  0.30920  Biso   1.000  C
  C183     1.0000 0.94088  0.53100  0.40910  Biso   1.000  C
  C184     1.0000 0.98825  0.44240  0.36961  Biso   1.000  C
  C185     1.0000 0.21780  0.27870  0.37028  Biso   1.000  C
  O18      1.0000 0.26459  0.26858  0.47541  Biso   1.000  O
  N21      1.0000 0.04284  0.56762  0.18068  Biso   1.000  N
  C186     1.0000 0.05091  0.64884  0.12361  Biso   1.000  C
  H202     1.0000 0.16469  0.62512  0.11919  Biso   1.000  H
  H203     1.0000 0.22519  0.62771  0.17910  Biso   1.000  H
  H204     1.0000 0.17370  0.68160  0.16801  Biso   1.000  H
  H205     1.0000 0.20839  0.51261  0.20038  Biso   1.000  H
  H206     1.0000 0.14628  0.50929  0.14218  Biso   1.000  H
  H207     1.0000 0.14718  0.49139  0.20719  Biso   1.000  H
  N22      1.0000 0.96244  0.53002  0.26142  Biso   1.000  N
  C187     1.0000 0.89865  0.58742  0.28756  Biso   1.000  C
  H208     1.0000 0.93586  0.57828  0.41180  Biso   1.000  H
  H209     1.0000 0.96105  0.51291  0.44967  Biso   1.000  H
  H210     1.0000 0.90109  0.51051  0.38931  Biso   1.000  H
  H211     1.0000 0.00946  0.42558  0.41058  Biso   1.000  H
  H212     1.0000 0.01209  0.43292  0.34558  Biso   1.000  H
  H213     1.0000 0.94859  0.42128  0.35121  Biso   1.000  H
  C188     1.0000 0.24530  0.22638  0.35496  Biso   1.000  C
  N23      1.0000 0.18177  0.31175  0.31844  Biso   1.000  N
  C189     1.0000 0.98422  0.58772  0.14619  Biso   1.000  C
  H214     1.0000 0.05251  0.53599  0.20759  Biso   1.000  H
  C190     1.0000 0.98908  0.63813  0.11090  Biso   1.000  C
  H215     1.0000 0.06690  0.68111  0.10558  Biso   1.000  H
  C191     1.0000 0.92488  0.56239  0.20971  Biso   1.000  C
  H216     1.0000 0.99209  0.50362  0.26349  Biso   1.000  H
  C192     1.0000 0.88522  0.59857  0.22576  Biso   1.000  C
  H217     1.0000 0.87788  0.60591  0.31019  Biso   1.000  H
  C193     1.0000 0.22657  0.22810  0.29067  Biso   1.000  C
  C194     1.0000 0.28807  0.17949  0.40031  Biso   1.000  C
  C195     1.0000 0.18649  0.28154  0.27057  Biso   1.000  C
  H218     1.0000 0.15960  0.34652  0.31700  Biso   1.000  H
  C196     1.0000 0.92910  0.55393  0.14867  Biso   1.000  C
  H219     1.0000 0.95628  0.66189  0.08259  Biso   1.000  H
  H220     1.0000 0.85420  0.62630  0.19988  Biso   1.000  H
  C197     1.0000 0.24110  0.19015  0.24713  Biso   1.000  C
  H221     1.0000 0.28216  0.13500  0.38277  Biso   1.000  H
  H222     1.0000 0.27859  0.17812  0.43677  Biso   1.000  H
  C198     1.0000 0.35474  0.20018  0.41829  Biso   1.000  C
  C199     1.0000 0.15916  0.29743  0.20908  Biso   1.000  C
  C200     1.0000 0.92954  0.47937  0.13501  Biso   1.000  C
  C201     1.0000 0.87229  0.58566  0.10125  Biso   1.000  C
  C202     1.0000 0.28241  0.13642  0.26399  Biso   1.000  C
  C203     1.0000 0.21505  0.20771  0.18487  Biso   1.000  C
  H223     1.0000 0.36338  0.20482  0.38191  Biso   1.000  H
  H224     1.0000 0.38139  0.16688  0.44457  Biso   1.000  H
  H225     1.0000 0.36178  0.24208  0.43957  Biso   1.000  H
  C204     1.0000 0.17310  0.26257  0.16585  Biso   1.000  C
  N24      1.0000 0.12009  0.34706  0.18126  Biso   1.000  N
  C205     1.0000 0.92685  0.46020  0.07249  Biso   1.000  C
  H226     1.0000 0.96668  0.46010  0.16558  Biso   1.000  H
  H227     1.0000 0.89470  0.45888  0.14051  Biso   1.000  H
  H228     1.0000 0.87039  0.63182  0.11139  Biso   1.000  H
  H229     1.0000 0.83620  0.56288  0.10071  Biso   1.000  H
  H230     1.0000 0.87411  0.58249  0.06140  Biso   1.000  H
  H231     1.0000 0.30029  0.12370  0.30519  Biso   1.000  H
  C206     1.0000 0.29688  0.10248  0.22179  Biso   1.000  C
  C207     1.0000 0.23144  0.17167  0.14385  Biso   1.000  C
  C208     1.0000 0.14162  0.29523  0.10914  Biso   1.000  C
  C209     1.0000 0.11021  0.34662  0.12086  Biso   1.000  C
  H232     1.0000 0.10399  0.37458  0.19889  Biso   1.000  H
  C210     1.0000 0.98483  0.46519  0.06167  Biso   1.000  C
  H233     1.0000 0.91241  0.41448  0.06451  Biso   1.000  H
  H234     1.0000 0.89609  0.48812  0.04228  Biso   1.000  H
  H235     1.0000 0.32450  0.06689  0.23419  Biso   1.000  H
  C211     1.0000 0.27146  0.12009  0.16188  Biso   1.000  C
  H236     1.0000 0.21437  0.18321  0.10238  Biso   1.000  H
  C212     1.0000 0.14023  0.27919  0.04747  Biso   1.000  C
  C213     1.0000 0.07008  0.39502  0.08002  Biso   1.000  C
  O19      1.0000 0.02828  0.41727  0.10026  Biso   1.000  O
  H237     1.0000 0.00179  0.50988  0.07141  Biso   1.000  H
  H238     1.0000 0.97649  0.45629  0.01880  Biso   1.000  H
  H239     1.0000 0.28149  0.09671  0.13307  Biso   1.000  H
  H240     1.0000 0.18151  0.26731  0.05121  Biso   1.000  H
  H241     1.0000 0.12759  0.31850  0.02159  Biso   1.000  H
  C214     1.0000 0.09728  0.22321  0.01740  Biso   1.000  C
  O20      1.0000 0.07310  0.41394  0.03354  Biso   1.000  O
  H242     1.0000 0.10849  0.18468  0.04368  Biso   1.000  H
  H243     1.0000 0.05579  0.23611  0.01028  Biso   1.000  H
  H244     1.0000 0.09997  0.21260  0.97890  Biso   1.000  H
  C215     1.0000 0.72852  0.62009  0.33810  Biso   1.000  C
  C216     1.0000 0.70310  0.60248  0.27819  Biso   1.000  C
  H245     1.0000 0.71849  0.59671  0.36690  Biso   1.000  H
  C217     1.0000 0.76850  0.67167  0.35613  Biso   1.000  C
  C218     1.0000 0.71758  0.63642  0.23599  Biso   1.000  C
  H246     1.0000 0.67548  0.56689  0.26579  Biso   1.000  H
  C219     1.0000 0.78489  0.70771  0.31511  Biso   1.000  C
  H247     1.0000 0.78557  0.68321  0.39760  Biso   1.000  H
  C220     1.0000 0.75884  0.69015  0.25285  Biso   1.000  C
  H248     1.0000 0.69969  0.62370  0.19479  Biso   1.000  H
  C221     1.0000 0.82688  0.76257  0.33413  Biso   1.000  C
  C222     1.0000 0.77341  0.72810  0.20930  Biso   1.000  C
  C223     1.0000 0.84082  0.79743  0.29090  Biso   1.000  C
  C224     1.0000 0.85833  0.79523  0.39084  Biso   1.000  C
  C225     1.0000 0.75469  0.72638  0.14502  Biso   1.000  C
  C226     1.0000 0.81350  0.78154  0.22941  Biso   1.000  C
  N25      1.0000 0.87989  0.84706  0.31871  Biso   1.000  N
  C227     1.0000 0.88975  0.84662  0.37916  Biso   1.000  C
  C228     1.0000 0.85976  0.77919  0.45251  Biso   1.000  C
  C229     1.0000 0.78214  0.77870  0.12969  Biso   1.000  C
  C230     1.0000 0.71189  0.67949  0.09972  Biso   1.000  C
  N26      1.0000 0.81817  0.81175  0.18154  Biso   1.000  N
  H249     1.0000 0.89600  0.87458  0.30109  Biso   1.000  H
  C231     1.0000 0.92990  0.89502  0.41996  Biso   1.000  C
  H250     1.0000 0.81849  0.76731  0.44881  Biso   1.000  H
  H251     1.0000 0.87239  0.81850  0.47838  Biso   1.000  H
  C232     1.0000 0.90270  0.72321  0.48258  Biso   1.000  C
  C233     1.0000 0.76601  0.79572  0.07150  Biso   1.000  C
  C234     1.0000 0.78509  0.81410  0.07050  Biso   1.000  C
  H252     1.0000 0.71779  0.63500  0.11721  Biso   1.000  H
  H253     1.0000 0.72139  0.67812  0.06320  Biso   1.000  H
  C235     1.0000 0.64524  0.70018  0.08168  Biso   1.000  C
  H254     1.0000 0.84038  0.84652  0.18298  Biso   1.000  H
  O21      1.0000 0.92686  0.91394  0.46648  Biso   1.000  O
  O22      1.0000 0.97172  0.91727  0.39976  Biso   1.000  O
  H255     1.0000 0.89149  0.68468  0.45629  Biso   1.000  H
  H256     1.0000 0.89997  0.71260  0.52107  Biso   1.000  H
  H257     1.0000 0.94419  0.73611  0.48970  Biso   1.000  H
  O23      1.0000 0.79071  0.85581  0.07231  Biso   1.000  O
  O24      1.0000 0.73541  0.76858  0.02461  Biso   1.000  O
  O25      1.0000 0.75390  0.79562  0.02060  Biso   1.000  O
  O26      1.0000 0.82649  0.86309  0.08218  Biso   1.000  O
  H258     1.0000 0.63658  0.70482  0.11811  Biso   1.000  H
  H259     1.0000 0.61859  0.66688  0.05540  Biso   1.000  H
  H260     1.0000 0.63820  0.74208  0.06041  Biso   1.000  H
  C236     1.0000 0.01515  0.96519  0.43831  Biso   1.000  C
  C237     1.0000 0.76978  0.89018  0.01420  Biso   1.000  C
  C238     1.0000 0.82268  0.90632  0.03259  Biso   1.000  C
  H261     1.0000 0.99815  0.00988  0.42857  Biso   1.000  H
  H262     1.0000 0.02345  0.95629  0.48118  Biso   1.000  H
  C239     1.0000 0.07310  0.96020  0.42753  Biso   1.000  C
  C240     1.0000 0.79699  0.95932  0.02799  Biso   1.000  C
  C241     1.0000 0.77178  0.95531  0.02078  Biso   1.000  C
  H263     1.0000 0.73270  0.93169  0.00780  Biso   1.000  H
  H264     1.0000 0.72507  0.89238  0.99608  Biso   1.000  H
  H265     1.0000 0.78387  0.86740  0.98589  Biso   1.000  H
  H266     1.0000 0.84150  0.95619  0.04188  Biso   1.000  H
  H267     1.0000 0.86150  0.92979  0.04301  Biso   1.000  H
  H268     1.0000 0.81517  0.88011  0.99590  Biso   1.000  H
  H269     1.0000 0.08759  0.91448  0.43551  Biso   1.000  H
  H270     1.0000 0.10389  0.98812  0.45769  Biso   1.000  H
  C242     1.0000 0.07046  0.97937  0.36501  Biso   1.000  C
  C243     1.0000 0.78097  0.99521  0.07709  Biso   1.000  C
  H271     1.0000 0.78189  0.98538  0.99049  Biso   1.000  H
  H272     1.0000 0.77005  0.98499  0.98769  Biso   1.000  H
  H273     1.0000 0.03330  0.96010  0.33440  Biso   1.000  H
  H274     1.0000 0.10530  0.95888  0.35951  Biso   1.000  H
  C244     1.0000 0.07088  0.05393  0.35130  Biso   1.000  C
  H275     1.0000 0.73839  0.99169  0.06748  Biso   1.000  H
  H276     1.0000 0.80209  0.97482  0.11549  Biso   1.000  H
  H277     1.0000 0.81229  0.97272  0.11148  Biso   1.000  H
  H278     1.0000 0.74290  0.99281  0.08380  Biso   1.000  H
  C245     1.0000 0.79917  0.06850  0.08105  Biso   1.000  C
  C246     1.0000 0.07511  0.06239  0.29027  Biso   1.000  C
  C247     1.0000 0.01577  0.08772  0.35383  Biso   1.000  C
  C248     1.0000 0.12767  0.08566  0.39877  Biso   1.000  C
  C249     1.0000 0.79785  0.09808  0.13835  Biso   1.000  C
  C250     1.0000 0.86081  0.07496  0.07727  Biso   1.000  C
  C251     1.0000 0.75246  0.10605  0.02777  Biso   1.000  C
  N27      1.0000 0.03754  0.03002  0.23856  Biso   1.000  N
  C252     1.0000 0.11472  0.09857  0.27422  Biso   1.000  C
  N28      1.0000 0.95712  0.06762  0.31934  Biso   1.000  N
  C253     1.0000 0.01087  0.13813  0.38913  Biso   1.000  C
  H279     1.0000 0.12959  0.13182  0.38859  Biso   1.000  H
  H280     1.0000 0.16378  0.06288  0.39927  Biso   1.000  H
  H281     1.0000 0.12587  0.08249  0.43858  Biso   1.000  H
  N29      1.0000 0.83133  0.07315  0.19506  Biso   1.000  N
  C254     1.0000 0.76565  0.14962  0.14646  Biso   1.000  C
  N30      1.0000 0.91108  0.04000  0.11392  Biso   1.000  N
  C255     1.0000 0.87729  0.10767  0.03647  Biso   1.000  C
  H282     1.0000 0.75006  0.08659  0.98977  Biso   1.000  H
  H283     1.0000 0.71280  0.10361  0.03020  Biso   1.000  H
  H284     1.0000 0.76478  0.15192  0.02948  Biso   1.000  H
  H285     1.0000 0.00789  0.00362  0.23649  Biso   1.000  H
  C256     1.0000 0.05324  0.04533  0.19078  Biso   1.000  C
  C257     1.0000 0.10129  0.08742  0.21241  Biso   1.000  C
  H286     1.0000 0.14578  0.12630  0.30009  Biso   1.000  H
  H287     1.0000 0.94748  0.03599  0.29239  Biso   1.000  H
  C258     1.0000 0.91610  0.10415  0.33318  Biso   1.000  C
  C259     1.0000 0.94909  0.14884  0.37641  Biso   1.000  C
  H288     1.0000 0.04366  0.16189  0.41739  Biso   1.000  H
  H289     1.0000 0.85610  0.03960  0.20241  Biso   1.000  H
  C260     1.0000 0.82030  0.10869  0.23861  Biso   1.000  C
  C261     1.0000 0.77951  0.15661  0.20872  Biso   1.000  C
  H290     1.0000 0.73851  0.17632  0.11540  Biso   1.000  H
  H291     1.0000 0.91242  0.01491  0.14412  Biso   1.000  H
  C262     1.0000 0.95904  0.04992  0.09656  Biso   1.000  C
  H292     1.0000 0.85210  0.13578  0.00550  Biso   1.000  H
  C263     1.0000 0.93870  0.09222  0.04864  Biso   1.000  C
  C264     1.0000 0.02024  0.01736  0.12807  Biso   1.000  C
  H293     1.0000 0.12210  0.10591  0.18978  Biso   1.000  H
  C265     1.0000 0.84825  0.09202  0.30519  Biso   1.000  C
  H294     1.0000 0.93308  0.18111  0.39440  Biso   1.000  H
  H295     1.0000 0.76349  0.18878  0.22679  Biso   1.000  H
  H296     1.0000 0.96172  0.10850  0.02732  Biso   1.000  H
  C266     1.0000 0.01175  0.94240  0.13041  Biso   1.000  C
  C267     1.0000 0.05912  0.03100  0.09093  Biso   1.000  C
  C268     1.0000 0.81843  0.13554  0.33765  Biso   1.000  C
  C269     1.0000 0.83539  0.01970  0.31474  Biso   1.000  C
  H297     1.0000 0.99048  0.92558  0.08939  Biso   1.000  H
  H298     1.0000 0.98790  0.93292  0.15440  Biso   1.000  H
  H299     1.0000 0.05141  0.92128  0.14881  Biso   1.000  H
  H300     1.0000 0.06410  0.07828  0.08822  Biso   1.000  H
  H301     1.0000 0.03889  0.01291  0.05031  Biso   1.000  H
  H302     1.0000 0.09891  0.01051  0.11072  Biso   1.000  H
  H303     1.0000 0.83529  0.12512  0.38079  Biso   1.000  H
  H304     1.0000 0.77479  0.12771  0.32088  Biso   1.000  H
  H305     1.0000 0.82630  0.18160  0.33201  Biso   1.000  H
  H306     1.0000 0.85280  0.99139  0.29279  Biso   1.000  H
  H307     1.0000 0.79159  0.01261  0.29960  Biso   1.000  H
  H308     1.0000 0.85366  0.00929  0.35780  Biso   1.000  H
  C270     1.0000 0.27142  0.37991  0.66190  Biso   1.000  C
  C271     1.0000 0.23143  0.32833  0.64382  Biso   1.000  C
  C272     1.0000 0.29682  0.39752  0.72177  Biso   1.000  C
  H309     1.0000 0.28149  0.40329  0.63310  Biso   1.000  H
  C273     1.0000 0.21503  0.29229  0.68485  Biso   1.000  C
  H310     1.0000 0.21437  0.31679  0.60240  Biso   1.000  H
  C274     1.0000 0.28239  0.36358  0.76396  Biso   1.000  C
  H311     1.0000 0.32444  0.43311  0.73416  Biso   1.000  H
  C275     1.0000 0.17305  0.23743  0.66582  Biso   1.000  C
  C276     1.0000 0.24108  0.30985  0.74710  Biso   1.000  C
  H312     1.0000 0.30023  0.37630  0.80516  Biso   1.000  H
  C277     1.0000 0.14160  0.20477  0.60911  Biso   1.000  C
  C278     1.0000 0.15912  0.20257  0.70910  Biso   1.000  C
  C279     1.0000 0.22653  0.27190  0.79069  Biso   1.000  C
  C280     1.0000 0.14018  0.22081  0.54749  Biso   1.000  C
  C281     1.0000 0.11019  0.15338  0.62083  Biso   1.000  C
  N31      1.0000 0.12008  0.15294  0.68124  Biso   1.000  N
  C282     1.0000 0.18647  0.21846  0.77054  Biso   1.000  C
  C283     1.0000 0.24524  0.27362  0.85493  Biso   1.000  C
  H313     1.0000 0.18145  0.23269  0.55119  Biso   1.000  H
  H314     1.0000 0.12758  0.18150  0.52157  Biso   1.000  H
  C284     1.0000 0.09722  0.27679  0.51738  Biso   1.000  C
  C285     1.0000 0.07006  0.10498  0.57999  Biso   1.000  C
  H315     1.0000 0.10397  0.12542  0.69887  Biso   1.000  H
  N32      1.0000 0.18177  0.18825  0.81846  Biso   1.000  N
  C286     1.0000 0.21778  0.22130  0.87026  Biso   1.000  C
  C287     1.0000 0.28805  0.32051  0.90028  Biso   1.000  C
  H316     1.0000 0.10849  0.31532  0.54370  Biso   1.000  H
  H317     1.0000 0.09995  0.28740  0.47888  Biso   1.000  H
  H318     1.0000 0.05579  0.26389  0.51030  Biso   1.000  H
  O27      1.0000 0.07308  0.08606  0.53352  Biso   1.000  O
  O28      1.0000 0.02826  0.08273  0.60023  Biso   1.000  O
  H319     1.0000 0.15954  0.15348  0.81698  Biso   1.000  H
  C288     1.0000 0.23398  0.20428  0.92850  Biso   1.000  C
  C289     1.0000 0.21485  0.18590  0.92949  Biso   1.000  C
  H320     1.0000 0.28215  0.36500  0.88279  Biso   1.000  H
  H321     1.0000 0.27855  0.32188  0.93680  Biso   1.000  H
  C290     1.0000 0.35472  0.29982  0.91827  Biso   1.000  C
  C291     1.0000 0.98481  0.03481  0.56165  Biso   1.000  C
  O29      1.0000 0.20923  0.14419  0.92769  Biso   1.000  O
  O30      1.0000 0.26453  0.23142  0.97538  Biso   1.000  O
  O31      1.0000 0.24604  0.20438  0.97940  Biso   1.000  O
  O32      1.0000 0.17343  0.13691  0.91777  Biso   1.000  O
  H322     1.0000 0.36336  0.29518  0.88189  Biso   1.000  H
  H323     1.0000 0.38135  0.33312  0.94460  Biso   1.000  H
  H324     1.0000 0.36174  0.25792  0.93959  Biso   1.000  H
  H325     1.0000 0.97647  0.04371  0.51877  Biso   1.000  H
  C292     1.0000 0.92684  0.03980  0.57246  Biso   1.000  C
  H326     1.0000 0.00177  0.99012  0.57138  Biso   1.000  H
  C293     1.0000 0.23016  0.10982  0.98580  Biso   1.000  C
  C294     1.0000 0.17725  0.09368  0.96736  Biso   1.000  C
  H327     1.0000 0.91235  0.08552  0.56449  Biso   1.000  H
  H328     1.0000 0.89609  0.01188  0.54231  Biso   1.000  H
  C295     1.0000 0.92952  0.02063  0.63499  Biso   1.000  C
  C296     1.0000 0.20293  0.04068  0.97196  Biso   1.000  C
  C297     1.0000 0.22814  0.04469  0.97917  Biso   1.000  C
  H329     1.0000 0.26724  0.06831  0.99220  Biso   1.000  H
  H330     1.0000 0.27487  0.10762  0.00392  Biso   1.000  H
  H331     1.0000 0.21607  0.13260  0.01411  Biso   1.000  H
  H332     1.0000 0.15846  0.04381  0.95807  Biso   1.000  H
  H333     1.0000 0.13844  0.07021  0.95699  Biso   1.000  H
  H334     1.0000 0.18477  0.11989  0.00410  Biso   1.000  H
  C298     1.0000 0.92904  0.94607  0.64865  Biso   1.000  C
  H335     1.0000 0.96668  0.03990  0.66560  Biso   1.000  H
  H336     1.0000 0.89468  0.04112  0.64049  Biso   1.000  H
  C299     1.0000 0.21895  0.00479  0.92287  Biso   1.000  C
  H337     1.0000 0.21810  0.01462  0.00951  Biso   1.000  H
  H338     1.0000 0.22989  0.01501  0.01230  Biso   1.000  H
  C300     1.0000 0.92482  0.93761  0.70969  Biso   1.000  C
  C301     1.0000 0.98421  0.91228  0.64617  Biso   1.000  C
  C302     1.0000 0.87227  0.91434  0.60122  Biso   1.000  C
  H339     1.0000 0.26154  0.00831  0.93247  Biso   1.000  H
  H340     1.0000 0.19783  0.02518  0.88446  Biso   1.000  H
  H341     1.0000 0.18763  0.02728  0.88847  Biso   1.000  H
  H342     1.0000 0.25704  0.00719  0.91620  Biso   1.000  H
  C303     1.0000 0.20075  0.93150  0.91890  Biso   1.000  C
  N33      1.0000 0.96242  0.96998  0.76139  Biso   1.000  N
  C304     1.0000 0.88522  0.90143  0.72578  Biso   1.000  C
  C305     1.0000 0.98907  0.86187  0.61087  Biso   1.000  C
  N34      1.0000 0.04282  0.93238  0.68065  Biso   1.000  N
  H343     1.0000 0.87037  0.86818  0.61137  Biso   1.000  H
  H344     1.0000 0.83614  0.93712  0.60068  Biso   1.000  H
  H345     1.0000 0.87406  0.91751  0.56137  Biso   1.000  H
  C306     1.0000 0.20207  0.90192  0.86160  Biso   1.000  C
  C307     1.0000 0.13917  0.92504  0.92273  Biso   1.000  C
  C308     1.0000 0.24746  0.89395  0.97218  Biso   1.000  C
  H346     1.0000 0.99207  0.99638  0.76347  Biso   1.000  H
  C309     1.0000 0.94668  0.95467  0.80918  Biso   1.000  C
  C310     1.0000 0.89863  0.91258  0.78754  Biso   1.000  C
  H347     1.0000 0.85415  0.87370  0.69990  Biso   1.000  H
  H348     1.0000 0.95628  0.83811  0.58261  Biso   1.000  H
  C311     1.0000 0.05085  0.85116  0.62358  Biso   1.000  C
  H349     1.0000 0.05245  0.96401  0.70757  Biso   1.000  H
  C312     1.0000 0.08382  0.89585  0.66677  Biso   1.000  C
  N35      1.0000 0.16863  0.92685  0.80489  Biso   1.000  N
  C313     1.0000 0.23427  0.85038  0.85349  Biso   1.000  C
  N36      1.0000 0.08886  0.96000  0.88608  Biso   1.000  N
  C314     1.0000 0.12265  0.89233  0.96353  Biso   1.000  C
  H350     1.0000 0.28714  0.89639  0.96979  Biso   1.000  H
  H351     1.0000 0.23514  0.84808  0.97047  Biso   1.000  H
  H352     1.0000 0.24986  0.91341  0.01019  Biso   1.000  H
  C315     1.0000 0.97968  0.98264  0.87188  Biso   1.000  C
  H353     1.0000 0.87786  0.89409  0.81017  Biso   1.000  H
  H354     1.0000 0.06686  0.81889  0.60560  Biso   1.000  H
  C316     1.0000 0.15169  0.90798  0.69481  Biso   1.000  C
  C317     1.0000 0.17966  0.89131  0.76135  Biso   1.000  C
  H355     1.0000 0.14384  0.96040  0.79759  Biso   1.000  H
  C318     1.0000 0.22041  0.84339  0.79123  Biso   1.000  C
  H356     1.0000 0.26147  0.82368  0.88459  Biso   1.000  H
  C319     1.0000 0.04090  0.95008  0.90344  Biso   1.000  C
  H357     1.0000 0.08756  0.98509  0.85588  Biso   1.000  H
  C320     1.0000 0.06123  0.90778  0.95131  Biso   1.000  C
  H358     1.0000 0.14784  0.86422  0.99450  Biso   1.000  H
  C321     1.0000 0.94082  0.96900  0.90907  Biso   1.000  C
  C322     1.0000 0.98823  0.05760  0.86958  Biso   1.000  C
  C323     1.0000 0.18149  0.86446  0.66231  Biso   1.000  C
  C324     1.0000 0.16455  0.98030  0.68525  Biso   1.000  C
  H359     1.0000 0.23645  0.81122  0.77320  Biso   1.000  H
  H360     1.0000 0.03826  0.89150  0.97268  Biso   1.000  H
  H361     1.0000 0.93584  0.92172  0.91178  Biso   1.000  H
  H362     1.0000 0.96105  0.98709  0.94969  Biso   1.000  H
  H363     1.0000 0.90107  0.98949  0.88928  Biso   1.000  H
  H364     1.0000 0.00944  0.07442  0.91056  Biso   1.000  H
  H365     1.0000 0.01204  0.06708  0.84560  Biso   1.000  H
  H366     1.0000 0.94857  0.07872  0.85119  Biso   1.000  H
  H367     1.0000 0.16468  0.87488  0.61917  Biso   1.000  H
  H368     1.0000 0.22518  0.87229  0.67908  Biso   1.000  H
  H369     1.0000 0.17364  0.81840  0.66799  Biso   1.000  H
  H370     1.0000 0.14718  0.00861  0.70721  Biso   1.000  H
  H371     1.0000 0.20835  0.98739  0.70040  Biso   1.000  H
  H372     1.0000 0.14627  0.99071  0.64220  Biso   1.000  H
  C325     1.0000 0.78053  0.43751  0.37452  Biso   1.000  C
  C326     1.0000 0.80590  0.37590  0.35771  Biso   1.000  C
  H373     1.0000 0.75727  0.46220  0.33787  Biso   1.000  H
  H374     1.0000 0.81386  0.46450  0.40130  Biso   1.000  H
  H375     1.0000 0.75409  0.42539  0.39521  Biso   1.000  H
  C327     1.0000 0.75741  0.32965  0.31912  Biso   1.000  C
  H376     1.0000 0.83149  0.38842  0.33571  Biso   1.000  H
  H377     1.0000 0.83186  0.35302  0.39499  Biso   1.000  H
  C328     1.0000 0.73630  0.27577  0.34044  Biso   1.000  C
  C329     1.0000 0.72431  0.33063  0.25510  Biso   1.000  C
  C330     1.0000 0.75748  0.24922  0.40121  Biso   1.000  C
  N37      1.0000 0.69287  0.24325  0.29234  Biso   1.000  N
  C331     1.0000 0.68598  0.27587  0.24095  Biso   1.000  C
  C332     1.0000 0.72521  0.37410  0.20737  Biso   1.000  C
  O33      1.0000 0.72981  0.19255  0.40387  Biso   1.000  O
  O34      1.0000 0.79668  0.27337  0.44529  Biso   1.000  O
  H378     1.0000 0.67327  0.20771  0.29477  Biso   1.000  H
  C333     1.0000 0.64882  0.26125  0.18050  Biso   1.000  C
  C334     1.0000 0.68755  0.35933  0.14615  Biso   1.000  C
  C335     1.0000 0.76138  0.43057  0.21886  Biso   1.000  C
  C336     1.0000 0.75614  0.15891  0.46175  Biso   1.000  C
  N38      1.0000 0.60902  0.21069  0.15760  Biso   1.000  N
  C337     1.0000 0.64810  0.30183  0.13307  Biso   1.000  C
  C338     1.0000 0.68962  0.40182  0.10107  Biso   1.000  C
  H379     1.0000 0.78629  0.44118  0.25939  Biso   1.000  H
  C339     1.0000 0.76199  0.47125  0.17324  Biso   1.000  C
  C340     1.0000 0.72410  0.09422  0.45580  Biso   1.000  C
  H380     1.0000 0.75110  0.18561  0.49371  Biso   1.000  H
  H381     1.0000 0.79988  0.15172  0.47270  Biso   1.000  H
  C341     1.0000 0.58127  0.21890  0.09557  Biso   1.000  C
  H382     1.0000 0.60218  0.17871  0.17851  Biso   1.000  H
  C342     1.0000 0.60386  0.27484  0.07898  Biso   1.000  C
  C343     1.0000 0.72568  0.45639  0.11441  Biso   1.000  C
  H383     1.0000 0.66529  0.39238  0.06009  Biso   1.000  H
  H384     1.0000 0.78710  0.50890  0.18230  Biso   1.000  H
  C344     1.0000 0.72774  0.05202  0.40486  Biso   1.000  C
  H385     1.0000 0.68109  0.10239  0.44809  Biso   1.000  H
  H386     1.0000 0.74225  0.07012  0.49430  Biso   1.000  H
  C345     1.0000 0.53362  0.17504  0.05775  Biso   1.000  C
  C346     1.0000 0.58517  0.29787  0.01479  Biso   1.000  C
  H387     1.0000 0.72570  0.48421  0.08281  Biso   1.000  H
  C347     1.0000 0.70707  0.97976  0.40360  Biso   1.000  C
  H388     1.0000 0.77008  0.05212  0.40810  Biso   1.000  H
  H389     1.0000 0.70267  0.07271  0.36591  Biso   1.000  H
  O35      1.0000 0.52970  0.12033  0.08736  Biso   1.000  O
  O36      1.0000 0.50114  0.18619  0.00604  Biso   1.000  O
  H390     1.0000 0.58739  0.34618  0.01420  Biso   1.000  H
  H391     1.0000 0.54268  0.28491  0.99130  Biso   1.000  H
  C348     1.0000 0.62556  0.26912  0.98521  Biso   1.000  C
  C349     1.0000 0.64772  0.97888  0.41207  Biso   1.000  C
  C350     1.0000 0.70389  0.94861  0.34513  Biso   1.000  C
  C351     1.0000 0.75487  0.94274  0.45607  Biso   1.000  C
  C352     1.0000 0.48458  0.07241  0.05207  Biso   1.000  C
  H392     1.0000 0.66742  0.28310  0.00762  Biso   1.000  H
  H393     1.0000 0.61175  0.28442  0.94347  Biso   1.000  H
  H394     1.0000 0.62336  0.22130  0.98566  Biso   1.000  H
  N39      1.0000 0.59757  0.01423  0.37574  Biso   1.000  N
  C353     1.0000 0.63354  0.95238  0.45706  Biso   1.000  C
  N40      1.0000 0.67211  0.97550  0.28873  Biso   1.000  N
  C354     1.0000 0.73238  0.89385  0.33607  Biso   1.000  C
  H395     1.0000 0.75856  0.96260  0.49439  Biso   1.000  H
  H396     1.0000 0.79388  0.94509  0.45219  Biso   1.000  H
  H397     1.0000 0.74278  0.89688  0.45517  Biso   1.000  H
  C355     1.0000 0.42698  0.08112  0.06298  Biso   1.000  C
  H398     1.0000 0.50049  0.02772  0.06388  Biso   1.000  H
  H399     1.0000 0.47580  0.07818  0.00870  Biso   1.000  H
  C356     1.0000 0.55247  0.01090  0.39774  Biso   1.000  C
  H400     1.0000 0.59477  0.03579  0.34319  Biso   1.000  H
  C357     1.0000 0.57414  0.97267  0.44818  Biso   1.000  C
  H401     1.0000 0.65908  0.92519  0.48880  Biso   1.000  H
  H402     1.0000 0.64969  0.01090  0.28197  Biso   1.000  H
  C358     1.0000 0.68077  0.93849  0.24465  Biso   1.000  C
  H403     1.0000 0.75749  0.86510  0.36650  Biso   1.000  H
  C359     1.0000 0.71779  0.88793  0.27341  Biso   1.000  C
  C360     1.0000 0.43150  0.06635  0.12712  Biso   1.000  C
  H404     1.0000 0.39552  0.05251  0.03462  Biso   1.000  H
  H405     1.0000 0.41308  0.12688  0.05310  Biso   1.000  H
  C361     1.0000 0.49121  0.04366  0.36618  Biso   1.000  C
  H406     1.0000 0.55305  0.96152  0.47297  Biso   1.000  H
  C362     1.0000 0.65153  0.95477  0.17829  Biso   1.000  C
  H407     1.0000 0.73148  0.85439  0.25461  Biso   1.000  H
  C363     1.0000 0.43165  0.99286  0.14439  Biso   1.000  C
  H408     1.0000 0.39719  0.08801  0.13258  Biso   1.000  H
  H409     1.0000 0.46910  0.08669  0.15597  Biso   1.000  H
  C364     1.0000 0.49905  0.11749  0.35739  Biso   1.000  C
  C365     1.0000 0.45626  0.01183  0.30627  Biso   1.000  C
  C366     1.0000 0.45475  0.03648  0.40621  Biso   1.000  C
  C367     1.0000 0.58381  0.94172  0.15422  Biso   1.000  C
  C368     1.0000 0.66344  0.02684  0.16661  Biso   1.000  C
  C369     1.0000 0.67921  0.91033  0.14398  Biso   1.000  C
  C370     1.0000 0.43012  0.98827  0.20700  Biso   1.000  C
  C371     1.0000 0.48569  0.95727  0.14128  Biso   1.000  C
  C372     1.0000 0.37355  0.95991  0.10017  Biso   1.000  C
  H410     1.0000 0.52368  0.12341  0.33359  Biso   1.000  H
  H411     1.0000 0.51917  0.13842  0.39688  Biso   1.000  H
  H412     1.0000 0.45929  0.13749  0.33620  Biso   1.000  H
  N41      1.0000 0.46901  0.02352  0.25574  Biso   1.000  N
  C373     1.0000 0.40896  0.96841  0.28918  Biso   1.000  C
  H413     1.0000 0.41479  0.05628  0.38579  Biso   1.000  H
  H414     1.0000 0.47619  0.05858  0.44480  Biso   1.000  H
  H415     1.0000 0.45019  0.98998  0.41338  Biso   1.000  H
  N42      1.0000 0.54441  0.97932  0.17040  Biso   1.000  N
  C374     1.0000 0.54963  0.89434  0.11563  Biso   1.000  C
  H416     1.0000 0.64540  0.05579  0.18740  Biso   1.000  H
  H417     1.0000 0.64540  0.03569  0.12320  Biso   1.000  H
  H418     1.0000 0.70708  0.03462  0.18190  Biso   1.000  H
  H419     1.0000 0.72289  0.91810  0.15881  Biso   1.000  H
  H420     1.0000 0.66059  0.92030  0.10080  Biso   1.000  H
  H421     1.0000 0.67168  0.86441  0.15048  Biso   1.000  H
  C375     1.0000 0.39291  0.95350  0.22761  Biso   1.000  C
  C376     1.0000 0.48834  0.90431  0.10724  Biso   1.000  C
  H422     1.0000 0.37368  0.96000  0.05960  Biso   1.000  H
  H423     1.0000 0.33820  0.98401  0.09990  Biso   1.000  H
  H424     1.0000 0.37180  0.91468  0.11301  Biso   1.000  H
  H425     1.0000 0.49769  0.04968  0.25479  Biso   1.000  H
  H426     1.0000 0.39028  0.95130  0.31438  Biso   1.000  H
  H427     1.0000 0.55528  0.01252  0.19560  Biso   1.000  H
  H428     1.0000 0.56437  0.86080  0.09769  Biso   1.000  H
  H429     1.0000 0.36169  0.92441  0.20430  Biso   1.000  H
  H430     1.0000 0.45489  0.87869  0.08241  Biso   1.000  H
  C377     1.0000 0.21940  0.56249  0.62543  Biso   1.000  C
  C378     1.0000 0.19404  0.62410  0.64229  Biso   1.000  C
  H431     1.0000 0.24265  0.53780  0.66208  Biso   1.000  H
  H432     1.0000 0.18608  0.53550  0.59870  Biso   1.000  H
  H433     1.0000 0.24585  0.57461  0.60479  Biso   1.000  H
  C379     1.0000 0.24255  0.67035  0.68084  Biso   1.000  C
  H434     1.0000 0.16845  0.61158  0.66429  Biso   1.000  H
  H435     1.0000 0.16806  0.64698  0.60497  Biso   1.000  H
  C380     1.0000 0.26366  0.72423  0.65951  Biso   1.000  C
  C381     1.0000 0.27567  0.66937  0.74489  Biso   1.000  C
  N43      1.0000 0.30709  0.75675  0.70761  Biso   1.000  N
  C382     1.0000 0.24246  0.75078  0.59879  Biso   1.000  C
  C383     1.0000 0.31400  0.72413  0.75905  Biso   1.000  C
  C384     1.0000 0.27475  0.62590  0.79259  Biso   1.000  C
  H436     1.0000 0.32665  0.79229  0.70518  Biso   1.000  H
  O37      1.0000 0.27011  0.80745  0.59609  Biso   1.000  O
  O38      1.0000 0.20325  0.72663  0.55466  Biso   1.000  O
  C385     1.0000 0.35112  0.73875  0.81950  Biso   1.000  C
  C386     1.0000 0.23858  0.56943  0.78109  Biso   1.000  C
  C387     1.0000 0.31239  0.64067  0.85385  Biso   1.000  C
  C388     1.0000 0.24384  0.84109  0.53825  Biso   1.000  C
  N44      1.0000 0.39097  0.78931  0.84240  Biso   1.000  N
  C389     1.0000 0.35184  0.69817  0.86692  Biso   1.000  C
  H437     1.0000 0.21364  0.55882  0.74057  Biso   1.000  H
  C390     1.0000 0.23795  0.52875  0.82676  Biso   1.000  C
  C391     1.0000 0.31032  0.59818  0.89893  Biso   1.000  C
  C392     1.0000 0.27584  0.90578  0.54420  Biso   1.000  C
  H438     1.0000 0.24889  0.81439  0.50629  Biso   1.000  H
  H439     1.0000 0.20006  0.84828  0.52729  Biso   1.000  H
  H440     1.0000 0.39776  0.82129  0.82148  Biso   1.000  H
  C393     1.0000 0.41870  0.78110  0.90438  Biso   1.000  C
  C394     1.0000 0.39606  0.72516  0.92097  Biso   1.000  C
  H441     1.0000 0.21284  0.49110  0.81770  Biso   1.000  H
  C395     1.0000 0.27426  0.54361  0.88559  Biso   1.000  C
  H442     1.0000 0.33463  0.60762  0.93986  Biso   1.000  H
  C396     1.0000 0.27218  0.94798  0.59509  Biso   1.000  C
  H443     1.0000 0.31889  0.89761  0.55191  Biso   1.000  H
  H444     1.0000 0.25769  0.92988  0.50570  Biso   1.000  H
  C397     1.0000 0.46630  0.82496  0.94221  Biso   1.000  C
  C398     1.0000 0.41477  0.70213  0.98521  Biso   1.000  C
  H445     1.0000 0.27424  0.51579  0.91719  Biso   1.000  H
  H446     1.0000 0.22986  0.94788  0.59189  Biso   1.000  H
  H447     1.0000 0.29727  0.92729  0.63409  Biso   1.000  H
  C399     1.0000 0.29292  0.02024  0.59640  Biso   1.000  C
  O39      1.0000 0.49884  0.81381  0.99396  Biso   1.000  O
  O40      1.0000 0.47022  0.87967  0.91259  Biso   1.000  O
  H448     1.0000 0.41255  0.65382  0.98580  Biso   1.000  H
  H449     1.0000 0.45726  0.71509  0.00870  Biso   1.000  H
  C400     1.0000 0.37438  0.73088  0.01478  Biso   1.000  C
  C401     1.0000 0.35227  0.02112  0.58793  Biso   1.000  C
  C402     1.0000 0.29603  0.05139  0.65482  Biso   1.000  C
  C403     1.0000 0.24507  0.05726  0.54393  Biso   1.000  C
  C404     1.0000 0.51534  0.92759  0.94789  Biso   1.000  C
  H450     1.0000 0.33256  0.71690  0.99238  Biso   1.000  H
  H451     1.0000 0.38817  0.71558  0.05648  Biso   1.000  H
  H452     1.0000 0.37656  0.77870  0.01429  Biso   1.000  H
  N45      1.0000 0.40239  0.98577  0.62422  Biso   1.000  N
  C405     1.0000 0.36638  0.04762  0.54289  Biso   1.000  C
  N46      1.0000 0.32781  0.02450  0.71122  Biso   1.000  N
  C406     1.0000 0.26754  0.10615  0.66389  Biso   1.000  C
  H453     1.0000 0.24138  0.03740  0.50561  Biso   1.000  H
  H454     1.0000 0.20606  0.05491  0.54781  Biso   1.000  H
  H455     1.0000 0.25718  0.10312  0.54479  Biso   1.000  H
  H456     1.0000 0.49944  0.97228  0.93608  Biso   1.000  H
  H457     1.0000 0.52414  0.92182  0.99130  Biso   1.000  H
  C407     1.0000 0.57296  0.91888  0.93702  Biso   1.000  C
  H458     1.0000 0.40517  0.96421  0.65681  Biso   1.000  H
  C408     1.0000 0.44747  0.98910  0.60226  Biso   1.000  C
  C409     1.0000 0.42579  0.02733  0.55177  Biso   1.000  C
  H459     1.0000 0.34086  0.07481  0.51120  Biso   1.000  H
  H460     1.0000 0.35027  0.98910  0.71798  Biso   1.000  H
  C410     1.0000 0.31916  0.06151  0.75531  Biso   1.000  C
  H461     1.0000 0.24249  0.13490  0.63350  Biso   1.000  H
  C411     1.0000 0.28213  0.11207  0.72655  Biso   1.000  C
  H462     1.0000 0.60446  0.94749  0.96538  Biso   1.000  H
  H463     1.0000 0.58686  0.87312  0.94689  Biso   1.000  H
  C412     1.0000 0.56842  0.93365  0.87283  Biso   1.000  C
  C413     1.0000 0.50873  0.95634  0.63382  Biso   1.000  C
  H464     1.0000 0.44687  0.03848  0.52698  Biso   1.000  H
  C414     1.0000 0.34843  0.04523  0.82166  Biso   1.000  C
  H465     1.0000 0.26846  0.14561  0.74539  Biso   1.000  H
  H466     1.0000 0.60274  0.91199  0.86737  Biso   1.000  H
  H467     1.0000 0.53086  0.91331  0.84398  Biso   1.000  H
  C415     1.0000 0.56827  0.00714  0.85556  Biso   1.000  C
  C416     1.0000 0.54366  0.98817  0.69368  Biso   1.000  C
  C417     1.0000 0.50088  0.88251  0.64256  Biso   1.000  C
  C418     1.0000 0.54519  0.96352  0.59379  Biso   1.000  C
  C419     1.0000 0.33648  0.97316  0.83334  Biso   1.000  C
  C420     1.0000 0.41612  0.05828  0.84574  Biso   1.000  C
  C421     1.0000 0.32077  0.08967  0.85601  Biso   1.000  C
  C422     1.0000 0.56984  0.01173  0.79295  Biso   1.000  C
  C423     1.0000 0.51425  0.04273  0.85872  Biso   1.000  C
  C424     1.0000 0.62637  0.04009  0.89979  Biso   1.000  C
  N47      1.0000 0.53097  0.97648  0.74426  Biso   1.000  N
  C425     1.0000 0.59096  0.03159  0.71077  Biso   1.000  C
  H468     1.0000 0.47624  0.87659  0.66636  Biso   1.000  H
  H469     1.0000 0.48075  0.86158  0.60307  Biso   1.000  H
  H470     1.0000 0.54065  0.86251  0.66380  Biso   1.000  H
  H471     1.0000 0.58519  0.94372  0.61421  Biso   1.000  H
  H472     1.0000 0.52375  0.94142  0.55520  Biso   1.000  H
  H473     1.0000 0.54977  0.01002  0.58657  Biso   1.000  H
  H474     1.0000 0.35458  0.94421  0.81260  Biso   1.000  H
  H475     1.0000 0.35454  0.96431  0.87680  Biso   1.000  H
  H476     1.0000 0.29286  0.96538  0.81810  Biso   1.000  H
  N48      1.0000 0.45557  0.02068  0.82960  Biso   1.000  N
  C426     1.0000 0.45031  0.10566  0.88437  Biso   1.000  C
  H477     1.0000 0.27705  0.08190  0.84118  Biso   1.000  H
  H478     1.0000 0.33935  0.07970  0.89920  Biso   1.000  H
  H479     1.0000 0.32824  0.13559  0.84948  Biso   1.000  H
  C427     1.0000 0.60705  0.04650  0.77235  Biso   1.000  C
  C428     1.0000 0.51162  0.09569  0.89271  Biso   1.000  C
  H480     1.0000 0.62624  0.04000  0.94036  Biso   1.000  H
  H481     1.0000 0.66174  0.01599  0.90010  Biso   1.000  H
  H482     1.0000 0.62814  0.08532  0.88698  Biso   1.000  H
  H483     1.0000 0.50223  0.95032  0.74516  Biso   1.000  H
  H484     1.0000 0.60964  0.04870  0.68557  Biso   1.000  H
  H485     1.0000 0.44466  0.98748  0.80440  Biso   1.000  H
  H486     1.0000 0.43555  0.13920  0.90227  Biso   1.000  H
  H487     1.0000 0.63825  0.07559  0.79570  Biso   1.000  H
  H488     1.0000 0.54505  0.12131  0.91759  Biso   1.000  H
