data_image0
_cell_length_a       43.217
_cell_length_b       43.216
_cell_length_c       12.466
_cell_angle_alpha    90
_cell_angle_beta     90
_cell_angle_gamma    120

_symmetry_space_group_name_H-M    "P 1"
_symmetry_int_tables_number       1

loop_
  _symmetry_equiv_pos_as_xyz
  'x, y, z'

loop_
  _atom_site_label
  _atom_site_occupancy
  _atom_site_fract_x
  _atom_site_fract_y
  _atom_site_fract_z
  _atom_site_thermal_displace_type
  _atom_site_B_iso_or_equiv
  _atom_site_type_symbol
  C1       1.0000 0.47426  0.39088  0.26737  Biso   1.000  C
  C2       1.0000 0.45605  0.39088  0.35456  Biso   1.000  C
  C3       1.0000 0.45613  0.36846  0.34029  Biso   1.000  C
  C4       1.0000 0.45490  0.42542  0.31181  Biso   1.000  C
  C5       1.0000 0.47283  0.34698  0.30948  Biso   1.000  C
  O1       1.0000 0.42730  0.41279  0.23279  Biso   1.000  O
  C6       1.0000 0.41502  0.43507  0.20087  Biso   1.000  C
  C7       1.0000 0.39116  0.42363  0.11696  Biso   1.000  C
  C8       1.0000 0.42583  0.46799  0.25229  Biso   1.000  C
  C9       1.0000 0.38231  0.38946  0.06040  Biso   1.000  C
  C10      1.0000 0.37736  0.44568  0.08118  Biso   1.000  C
  C11      1.0000 0.41297  0.48928  0.21867  Biso   1.000  C
  H1       1.0000 0.44183  0.47518  0.30924  Biso   1.000  H
  H2       1.0000 0.38227  0.37233  0.11086  Biso   1.000  H
  H3       1.0000 0.35887  0.37904  0.02751  Biso   1.000  H
  O2       1.0000 0.40903  0.39820  0.98051  Biso   1.000  O
  C12      1.0000 0.38824  0.47929  0.13220  Biso   1.000  C
  C13      1.0000 0.35290  0.43614  0.99438  Biso   1.000  C
  H4       1.0000 0.42053  0.51098  0.25317  Biso   1.000  H
  C14      1.0000 0.40290  0.36867  0.91296  Biso   1.000  C
  C15      1.0000 0.37462  0.50125  0.09779  Biso   1.000  C
  H5       1.0000 0.34573  0.41476  0.95829  Biso   1.000  H
  C16      1.0000 0.33981  0.45741  0.96270  Biso   1.000  C
  C17      1.0000 0.43741  0.38099  0.85336  Biso   1.000  C
  H6       1.0000 0.38346  0.36293  0.86323  Biso   1.000  H
  H7       1.0000 0.39697  0.34764  0.95564  Biso   1.000  H
  C18      1.0000 0.35066  0.49043  0.01356  Biso   1.000  C
  C19      1.0000 0.38683  0.53682  0.15121  Biso   1.000  C
  H8       1.0000 0.32343  0.45006  0.90663  Biso   1.000  H
  C20      1.0000 0.44521  0.40450  0.76873  Biso   1.000  C
  C21      1.0000 0.46343  0.37247  0.88890  Biso   1.000  C
  O3       1.0000 0.33889  0.51314  0.98372  Biso   1.000  O
  O4       1.0000 0.42234  0.56078  0.11447  Biso   1.000  O
  H9       1.0000 0.38662  0.53428  0.22854  Biso   1.000  H
  H10      1.0000 0.37104  0.54587  0.13228  Biso   1.000  H
  O5       1.0000 0.41903  0.41166  0.73849  Biso   1.000  O
  C22      1.0000 0.47905  0.42083  0.71827  Biso   1.000  C
  C23      1.0000 0.45769  0.34821  0.97377  Biso   1.000  C
  C24      1.0000 0.49803  0.38954  0.83964  Biso   1.000  C
  C25      1.0000 0.31511  0.50385  0.89371  Biso   1.000  C
  C26      1.0000 0.43717  0.59531  0.16244  Biso   1.000  C
  C27      1.0000 0.42368  0.43248  0.64487  Biso   1.000  C
  H11      1.0000 0.48386  0.43633  0.66084  Biso   1.000  H
  C28      1.0000 0.50455  0.41369  0.75413  Biso   1.000  C
  C29      1.0000 0.48337  0.34153  0.00955  Biso   1.000  C
  H12      1.0000 0.43526  0.33634  0.00602  Biso   1.000  H
  C30      1.0000 0.52525  0.38331  0.87959  Biso   1.000  C
  H13      1.0000 0.32574  0.49978  0.83058  Biso   1.000  H
  H14      1.0000 0.29273  0.48218  0.90887  Biso   1.000  H
  C31      1.0000 0.30881  0.53433  0.87510  Biso   1.000  C
  H15      1.0000 0.42333  0.60658  0.14295  Biso   1.000  H
  H16      1.0000 0.43722  0.59346  0.24009  Biso   1.000  H
  C32      1.0000 0.47473  0.61668  0.12049  Biso   1.000  C
  H17      1.0000 0.43385  0.42534  0.58728  Biso   1.000  H
  H18      1.0000 0.43957  0.45765  0.65971  Biso   1.000  H
  C33      1.0000 0.38724  0.42588  0.61399  Biso   1.000  C
  H19      1.0000 0.52686  0.42494  0.72156  Biso   1.000  H
  H20      1.0000 0.47826  0.32483  0.06377  Biso   1.000  H
  C34      1.0000 0.51801  0.35999  0.96414  Biso   1.000  C
  C35      1.0000 0.56281  0.40472  0.83756  Biso   1.000  C
  H21      1.0000 0.29922  0.53847  0.94048  Biso   1.000  H
  H22      1.0000 0.29073  0.52747  0.81991  Biso   1.000  H
  C36      1.0000 0.34086  0.56845  0.84253  Biso   1.000  C
  C37      1.0000 0.48198  0.64003  0.03586  Biso   1.000  C
  C38      1.0000 0.50195  0.61046  0.16036  Biso   1.000  C
  H23      1.0000 0.38975  0.44103  0.55335  Biso   1.000  H
  H24      1.0000 0.37756  0.43293  0.67327  Biso   1.000  H
  C39      1.0000 0.36086  0.38778  0.58479  Biso   1.000  C
  O6       1.0000 0.54599  0.35713  0.00393  Biso   1.000  O
  O7       1.0000 0.57764  0.43924  0.88553  Biso   1.000  O
  H25      1.0000 0.57666  0.39344  0.85705  Biso   1.000  H
  H26      1.0000 0.56275  0.40653  0.75999  Biso   1.000  H
  H27      1.0000 0.36003  0.57388  0.89291  Biso   1.000  H
  H28      1.0000 0.33522  0.58748  0.84670  Biso   1.000  H
  C40      1.0000 0.35313  0.56757  0.73632  Biso   1.000  C
  O8       1.0000 0.45400  0.64289  0.99607  Biso   1.000  O
  C41      1.0000 0.51661  0.65847  0.99053  Biso   1.000  C
  C42      1.0000 0.49544  0.58633  0.24587  Biso   1.000  C
  C43      1.0000 0.53654  0.62753  0.11118  Biso   1.000  C
  H29      1.0000 0.35636  0.37313  0.64824  Biso   1.000  H
  H30      1.0000 0.33856  0.38655  0.56538  Biso   1.000  H
  C44      1.0000 0.37121  0.37142  0.49503  Biso   1.000  C
  C45      1.0000 0.53964  0.32865  0.07532  Biso   1.000  C
  C46      1.0000 0.61318  0.46321  0.84887  Biso   1.000  C
  H31      1.0000 0.37374  0.59028  0.72020  Biso   1.000  H
  H32      1.0000 0.35932  0.54927  0.73199  Biso   1.000  H
  H33      1.0000 0.33452  0.56276  0.68571  Biso   1.000  H
  C47      1.0000 0.46034  0.67135  0.92468  Biso   1.000  C
  C48      1.0000 0.54230  0.65182  0.02623  Biso   1.000  C
  H34      1.0000 0.52172  0.67517  0.93631  Biso   1.000  H
  C49      1.0000 0.52093  0.57919  0.28181  Biso   1.000  C
  H35      1.0000 0.47313  0.57508  0.27844  Biso   1.000  H
  C50      1.0000 0.56258  0.61903  0.14664  Biso   1.000  C
  H36      1.0000 0.35257  0.34714  0.48436  Biso   1.000  H
  H37      1.0000 0.39306  0.37193  0.51324  Biso   1.000  H
  H38      1.0000 0.37456  0.38473  0.43021  Biso   1.000  H
  H39      1.0000 0.52277  0.30583  0.04372  Biso   1.000  H
  H40      1.0000 0.52987  0.33124  0.14255  Biso   1.000  H
  C51      1.0000 0.57484  0.33046  0.09442  Biso   1.000  C
  C52      1.0000 0.62537  0.49874  0.90229  Biso   1.000  C
  H41      1.0000 0.61336  0.46574  0.77146  Biso   1.000  H
  H42      1.0000 0.62897  0.45415  0.86780  Biso   1.000  H
  H43      1.0000 0.47723  0.69417  0.95628  Biso   1.000  H
  H44      1.0000 0.47014  0.66878  0.85753  Biso   1.000  H
  C53      1.0000 0.42514  0.66953  0.90558  Biso   1.000  C
  H45      1.0000 0.56473  0.66368  0.99398  Biso   1.000  H
  C54      1.0000 0.55478  0.59552  0.23127  Biso   1.000  C
  H46      1.0000 0.51613  0.56367  0.33916  Biso   1.000  H
  C55      1.0000 0.59707  0.63132  0.08704  Biso   1.000  C
  C56      1.0000 0.60026  0.33674  0.00642  Biso   1.000  C
  C57      1.0000 0.58136  0.31644  0.97874  Biso   1.000  C
  C58      1.0000 0.64934  0.50956  0.98644  Biso   1.000  C
  C59      1.0000 0.61175  0.52073  0.86788  Biso   1.000  C
  C60      1.0000 0.41863  0.68359  0.02126  Biso   1.000  C
  C61      1.0000 0.39973  0.66328  0.99358  Biso   1.000  C
  O9       1.0000 0.58097  0.58833  0.26159  Biso   1.000  O
  O10      1.0000 0.59098  0.60183  0.01949  Biso   1.000  O
  H47      1.0000 0.61653  0.63707  0.13677  Biso   1.000  H
  H48      1.0000 0.60302  0.65238  0.04436  Biso   1.000  H
  C62      1.0000 0.62117  0.32354  0.99495  Biso   1.000  C
  C63      1.0000 0.58615  0.31093  0.92235  Biso   1.000  C
  O11      1.0000 0.66109  0.48688  0.01628  Biso   1.000  O
  C64      1.0000 0.66020  0.54262  0.03730  Biso   1.000  C
  C65      1.0000 0.58704  0.51074  0.78133  Biso   1.000  C
  C66      1.0000 0.62263  0.55434  0.91890  Biso   1.000  C
  C67      1.0000 0.37884  0.67648  0.00505  Biso   1.000  C
  C68      1.0000 0.41383  0.68906  0.07765  Biso   1.000  C
  C69      1.0000 0.57630  0.56752  0.35521  Biso   1.000  C
  C70      1.0000 0.61766  0.61054  0.93960  Biso   1.000  C
  C71      1.0000 0.68490  0.49618  0.10637  Biso   1.000  C
  C72      1.0000 0.64709  0.56388  0.00562  Biso   1.000  C
  H49      1.0000 0.67656  0.54994  0.09345  Biso   1.000  H
  H50      1.0000 0.57945  0.48904  0.74683  Biso   1.000  H
  C73      1.0000 0.57416  0.53201  0.74779  Biso   1.000  C
  C74      1.0000 0.60883  0.57639  0.88304  Biso   1.000  C
  H51      1.0000 0.56613  0.57468  0.41280  Biso   1.000  H
  H52      1.0000 0.56042  0.54237  0.34029  Biso   1.000  H
  C75      1.0000 0.61273  0.57412  0.38609  Biso   1.000  C
  H53      1.0000 0.61771  0.62766  0.88922  Biso   1.000  H
  H54      1.0000 0.64114  0.62098  0.97249  Biso   1.000  H
  H55      1.0000 0.67425  0.50024  0.16942  Biso   1.000  H
  H56      1.0000 0.70726  0.51785  0.09113  Biso   1.000  H
  C76      1.0000 0.69120  0.46569  0.12490  Biso   1.000  C
  H57      1.0000 0.65425  0.58523  0.04171  Biso   1.000  H
  H58      1.0000 0.55816  0.52485  0.69076  Biso   1.000  H
  C77      1.0000 0.58497  0.56495  0.79913  Biso   1.000  C
  H59      1.0000 0.61023  0.55897  0.44665  Biso   1.000  H
  H60      1.0000 0.62242  0.56706  0.32681  Biso   1.000  H
  C78      1.0000 0.63914  0.61222  0.41529  Biso   1.000  C
  H61      1.0000 0.70077  0.46155  0.05952  Biso   1.000  H
  H62      1.0000 0.70924  0.47253  0.18017  Biso   1.000  H
  C79      1.0000 0.65915  0.43157  0.15755  Biso   1.000  C
  O12      1.0000 0.57268  0.58721  0.76729  Biso   1.000  O
  H63      1.0000 0.64362  0.62686  0.35176  Biso   1.000  H
  H64      1.0000 0.66143  0.61347  0.43470  Biso   1.000  H
  C80      1.0000 0.62880  0.62860  0.50497  Biso   1.000  C
  H65      1.0000 0.63996  0.42615  0.10717  Biso   1.000  H
  H66      1.0000 0.66477  0.41255  0.15338  Biso   1.000  H
  C81      1.0000 0.64686  0.43245  0.26376  Biso   1.000  C
  C82      1.0000 0.54507  0.57457  0.68827  Biso   1.000  C
  H67      1.0000 0.64742  0.65289  0.51572  Biso   1.000  H
  H68      1.0000 0.60692  0.62806  0.48676  Biso   1.000  H
  H69      1.0000 0.62542  0.61526  0.56979  Biso   1.000  H
  H70      1.0000 0.62625  0.40974  0.27988  Biso   1.000  H
  H71      1.0000 0.64066  0.45073  0.26801  Biso   1.000  H
  H72      1.0000 0.66545  0.43723  0.31438  Biso   1.000  H
  C83      1.0000 0.54394  0.60915  0.64544  Biso   1.000  C
  C84      1.0000 0.52573  0.60915  0.73263  Biso   1.000  C
  C85      1.0000 0.54387  0.63154  0.65971  Biso   1.000  C
  C86      1.0000 0.52715  0.65305  0.69052  Biso   1.000  C
  C87      1.0000 0.52206  0.35157  0.56032  Biso   1.000  C
  O13      1.0000 0.50756  0.32777  0.65041  Biso   1.000  O
  H73      1.0000 0.50737  0.34094  0.49727  Biso   1.000  H
  H74      1.0000 0.52276  0.37394  0.57557  Biso   1.000  H
  C88      1.0000 0.55885  0.35788  0.54171  Biso   1.000  C
  C89      1.0000 0.47311  0.31601  0.68025  Biso   1.000  C
  H75      1.0000 0.57257  0.36744  0.60717  Biso   1.000  H
  H76      1.0000 0.57006  0.37594  0.48652  Biso   1.000  H
  C90      1.0000 0.56092  0.32581  0.50914  Biso   1.000  C
  C91      1.0000 0.45093  0.32686  0.62939  Biso   1.000  C
  C92      1.0000 0.45997  0.29204  0.76448  Biso   1.000  C
  H77      1.0000 0.54716  0.30663  0.55952  Biso   1.000  H
  H78      1.0000 0.58554  0.33143  0.51332  Biso   1.000  H
  C93      1.0000 0.54776  0.31352  0.40294  Biso   1.000  C
  C94      1.0000 0.41654  0.31376  0.66108  Biso   1.000  C
  H79      1.0000 0.45995  0.34324  0.57324  Biso   1.000  H
  C95      1.0000 0.42438  0.27844  0.79889  Biso   1.000  C
  C96      1.0000 0.48331  0.27986  0.81782  Biso   1.000  C
  H80      1.0000 0.54986  0.29292  0.38681  Biso   1.000  H
  H81      1.0000 0.52326  0.30733  0.39868  Biso   1.000  H
  H82      1.0000 0.56156  0.33215  0.35232  Biso   1.000  H
  C97      1.0000 0.40164  0.28932  0.74787  Biso   1.000  C
  H83      1.0000 0.40235  0.32093  0.62498  Biso   1.000  H
  C98      1.0000 0.40963  0.25370  0.88537  Biso   1.000  C
  O14      1.0000 0.47177  0.24432  0.78116  Biso   1.000  O
  H84      1.0000 0.48097  0.28004  0.89524  Biso   1.000  H
  H85      1.0000 0.50817  0.29565  0.79897  Biso   1.000  H
  C99      1.0000 0.36578  0.27550  0.78365  Biso   1.000  C
  C100     1.0000 0.37548  0.24085  0.91898  Biso   1.000  C
  H86      1.0000 0.42376  0.24614  0.91986  Biso   1.000  H
  C101     1.0000 0.49145  0.22949  0.82914  Biso   1.000  C
  C102     1.0000 0.34047  0.28435  0.72710  Biso   1.000  C
  C103     1.0000 0.35334  0.25164  0.86756  Biso   1.000  C
  H87      1.0000 0.36667  0.22484  0.97593  Biso   1.000  H
  H88      1.0000 0.51655  0.24333  0.80964  Biso   1.000  H
  H89      1.0000 0.48957  0.22944  0.90679  Biso   1.000  H
  C104     1.0000 0.47528  0.19192  0.78718  Biso   1.000  C
  O15      1.0000 0.32250  0.25765  0.64720  Biso   1.000  O
  H90      1.0000 0.32340  0.28440  0.77755  Biso   1.000  H
  H91      1.0000 0.35350  0.30781  0.69421  Biso   1.000  H
  O16      1.0000 0.31881  0.23935  0.89949  Biso   1.000  O
  C105     1.0000 0.49137  0.18468  0.70255  Biso   1.000  C
  C106     1.0000 0.44181  0.16470  0.82705  Biso   1.000  C
  C107     1.0000 0.29907  0.26375  0.57966  Biso   1.000  C
  C108     1.0000 0.30383  0.21175  0.97850  Biso   1.000  C
  O17      1.0000 0.52220  0.21266  0.66276  Biso   1.000  O
  C109     1.0000 0.47517  0.15006  0.65715  Biso   1.000  C
  C110     1.0000 0.42420  0.17122  0.91256  Biso   1.000  C
  C111     1.0000 0.42432  0.13012  0.77788  Biso   1.000  C
  C112     1.0000 0.27690  0.22925  0.52005  Biso   1.000  C
  H92      1.0000 0.31280  0.28320  0.52992  Biso   1.000  H
  H93      1.0000 0.28400  0.26970  0.62233  Biso   1.000  H
  C113     1.0000 0.26814  0.21063  0.02126  Biso   1.000  C
  C114     1.0000 0.54433  0.20633  0.59137  Biso   1.000  C
  H94      1.0000 0.48677  0.14493  0.60292  Biso   1.000  H
  C115     1.0000 0.44281  0.12435  0.69292  Biso   1.000  C
  C116     1.0000 0.39158  0.14573  0.94850  Biso   1.000  C
  H95      1.0000 0.43526  0.19353  0.94513  Biso   1.000  H
  C117     1.0000 0.38977  0.10407  0.81333  Biso   1.000  C
  C118     1.0000 0.29262  0.22145  0.43542  Biso   1.000  C
  C119     1.0000 0.24235  0.20320  0.55551  Biso   1.000  C
  C120     1.0000 0.24994  0.19241  0.93406  Biso   1.000  C
  C121     1.0000 0.24568  0.21055  0.00690  Biso   1.000  C
  H96      1.0000 0.55026  0.18944  0.62297  Biso   1.000  H
  H97      1.0000 0.53197  0.19655  0.52415  Biso   1.000  H
  C122     1.0000 0.57770  0.24152  0.57228  Biso   1.000  C
  H98      1.0000 0.43225  0.10193  0.66068  Biso   1.000  H
  C123     1.0000 0.37405  0.11187  0.89796  Biso   1.000  C
  H99      1.0000 0.38086  0.15054  0.00586  Biso   1.000  H
  C124     1.0000 0.36757  0.06958  0.75373  Biso   1.000  C
  O18      1.0000 0.32596  0.24763  0.40510  Biso   1.000  O
  C125     1.0000 0.27510  0.18762  0.38489  Biso   1.000  C
  C126     1.0000 0.22383  0.20897  0.64038  Biso   1.000  C
  C127     1.0000 0.22483  0.16863  0.50634  Biso   1.000  C
  C128     1.0000 0.20748  0.19385  0.97618  Biso   1.000  C
  C129     1.0000 0.59687  0.26693  0.66028  Biso   1.000  C
  C130     1.0000 0.59825  0.24804  0.68795  Biso   1.000  C
  O19      1.0000 0.34069  0.08569  0.92828  Biso   1.000  O
  O20      1.0000 0.34418  0.07570  0.68619  Biso   1.000  O
  H100     1.0000 0.35387  0.05013  0.80347  Biso   1.000  H
  H101     1.0000 0.38268  0.06365  0.71105  Biso   1.000  H
  C131     1.0000 0.34212  0.24299  0.31149  Biso   1.000  C
  H102     1.0000 0.28580  0.18281  0.32753  Biso   1.000  H
  C132     1.0000 0.24248  0.16213  0.42082  Biso   1.000  C
  C133     1.0000 0.19149  0.18329  0.67624  Biso   1.000  C
  H103     1.0000 0.23441  0.23142  0.67271  Biso   1.000  H
  C134     1.0000 0.19137  0.14140  0.54621  Biso   1.000  C
  C135     1.0000 0.63097  0.28785  0.67175  Biso   1.000  C
  C136     1.0000 0.60857  0.25284  0.74434  Biso   1.000  C
  C137     1.0000 0.32454  0.09036  0.02182  Biso   1.000  C
  C138     1.0000 0.32619  0.04900  0.60629  Biso   1.000  C
  C139     1.0000 0.37195  0.27940  0.28060  Biso   1.000  C
  H104     1.0000 0.32479  0.23281  0.25389  Biso   1.000  H
  H105     1.0000 0.35140  0.22711  0.32641  Biso   1.000  H
  H106     1.0000 0.23138  0.13980  0.38818  Biso   1.000  H
  C140     1.0000 0.17531  0.14867  0.63084  Biso   1.000  C
  H107     1.0000 0.17990  0.18840  0.73039  Biso   1.000  H
  C141     1.0000 0.17521  0.10386  0.50425  Biso   1.000  C
  H108     1.0000 0.34187  0.10054  0.07942  Biso   1.000  H
  H109     1.0000 0.31526  0.10624  0.00690  Biso   1.000  H
  C142     1.0000 0.29470  0.05392  0.05270  Biso   1.000  C
  C143     1.0000 0.30088  0.05785  0.54974  Biso   1.000  C
  H110     1.0000 0.34325  0.04892  0.55583  Biso   1.000  H
  H111     1.0000 0.31316  0.02554  0.63918  Biso   1.000  H
  C144     1.0000 0.36025  0.30580  0.25140  Biso   1.000  C
  H112     1.0000 0.38460  0.27689  0.22004  Biso   1.000  H
  H113     1.0000 0.38869  0.28910  0.33988  Biso   1.000  H
  O21      1.0000 0.14445  0.12069  0.67062  Biso   1.000  O
  O22      1.0000 0.19490  0.08900  0.55222  Biso   1.000  O
  H114     1.0000 0.15009  0.08999  0.52374  Biso   1.000  H
  H115     1.0000 0.17711  0.10391  0.42660  Biso   1.000  H
  H116     1.0000 0.27797  0.04425  0.99350  Biso   1.000  H
  H117     1.0000 0.28207  0.05643  0.11335  Biso   1.000  H
  C145     1.0000 0.30640  0.02752  0.08190  Biso   1.000  C
  C146     1.0000 0.26502  0.04403  0.58551  Biso   1.000  C
  C147     1.0000 0.31332  0.08171  0.46583  Biso   1.000  C
  C148     1.0000 0.33353  0.29546  0.16172  Biso   1.000  C
  H118     1.0000 0.35009  0.31029  0.31494  Biso   1.000  H
  H119     1.0000 0.38131  0.32811  0.23199  Biso   1.000  H
  C149     1.0000 0.12233  0.12702  0.74202  Biso   1.000  C
  C150     1.0000 0.18335  0.05349  0.51548  Biso   1.000  C
  H120     1.0000 0.31656  0.02303  0.01845  Biso   1.000  H
  H121     1.0000 0.28535  0.00524  0.10132  Biso   1.000  H
  C151     1.0000 0.33311  0.03786  0.17167  Biso   1.000  C
  C152     1.0000 0.24230  0.05491  0.53449  Biso   1.000  C
  C153     1.0000 0.25010  0.01956  0.67231  Biso   1.000  C
  C154     1.0000 0.29118  0.09250  0.41441  Biso   1.000  C
  O23      1.0000 0.34786  0.09397  0.43390  Biso   1.000  O
  H122     1.0000 0.32791  0.31411  0.15097  Biso   1.000  H
  H123     1.0000 0.31219  0.27361  0.17993  Biso   1.000  H
  H124     1.0000 0.34349  0.29210  0.09690  Biso   1.000  H
  H125     1.0000 0.11640  0.14391  0.71041  Biso   1.000  H
  H126     1.0000 0.13469  0.13680  0.80924  Biso   1.000  H
  C155     1.0000 0.08895  0.09183  0.76111  Biso   1.000  C
  C156     1.0000 0.20670  0.04128  0.56891  Biso   1.000  C
  H127     1.0000 0.18571  0.05330  0.43815  Biso   1.000  H
  H128     1.0000 0.15849  0.03770  0.53441  Biso   1.000  H
  H129     1.0000 0.33877  0.01924  0.18234  Biso   1.000  H
  H130     1.0000 0.35447  0.05974  0.15346  Biso   1.000  H
  H131     1.0000 0.32316  0.04123  0.23640  Biso   1.000  H
  C157     1.0000 0.25702  0.07962  0.44802  Biso   1.000  C
  C158     1.0000 0.21574  0.00647  0.70399  Biso   1.000  C
  H132     1.0000 0.26429  0.01240  0.70841  Biso   1.000  H
  H133     1.0000 0.29999  0.10851  0.35737  Biso   1.000  H
  C159     1.0000 0.36283  0.12160  0.35489  Biso   1.000  C
  C160     1.0000 0.06980  0.06640  0.67311  Biso   1.000  C
  C161     1.0000 0.06840  0.08529  0.64544  Biso   1.000  C
  C162     1.0000 0.19354  0.01731  0.65314  Biso   1.000  C
  H134     1.0000 0.24290  0.08721  0.41352  Biso   1.000  H
  H135     1.0000 0.20671  0.99011  0.76015  Biso   1.000  H
  C163     1.0000 0.39852  0.12272  0.31213  Biso   1.000  C
  C164     1.0000 0.03571  0.04550  0.66164  Biso   1.000  C
  C165     1.0000 0.05809  0.08051  0.58904  Biso   1.000  C
  O24      1.0000 0.15908  0.00556  0.68298  Biso   1.000  O
  C166     1.0000 0.41675  0.14094  0.39933  Biso   1.000  C
  C167     1.0000 0.42100  0.12280  0.32641  Biso   1.000  C
  C168     1.0000 0.14460  0.98178  0.77306  Biso   1.000  C
  C169     1.0000 0.45920  0.13950  0.35721  Biso   1.000  C
  H136     1.0000 0.15929  0.99241  0.83611  Biso   1.000  H
  H137     1.0000 0.14390  0.95941  0.75782  Biso   1.000  H
  C170     1.0000 0.10782  0.97550  0.79159  Biso   1.000  C
  C171     1.0000 0.10575  0.00751  0.82424  Biso   1.000  C
  H138     1.0000 0.09409  0.96591  0.72622  Biso   1.000  H
  H139     1.0000 0.09660  0.95741  0.84686  Biso   1.000  H
  H140     1.0000 0.11948  0.02669  0.77386  Biso   1.000  H
  H141     1.0000 0.08110  0.00190  0.81999  Biso   1.000  H
  C172     1.0000 0.11891  0.01980  0.93045  Biso   1.000  C
  H142     1.0000 0.11680  0.04040  0.94649  Biso   1.000  H
  H143     1.0000 0.14339  0.02600  0.93470  Biso   1.000  H
  H144     1.0000 0.10510  0.00120  0.98107  Biso   1.000  H
  C173     1.0000 0.68028  0.54080  0.35721  Biso   1.000  C
  C174     1.0000 0.70179  0.57901  0.32641  Biso   1.000  C
  C175     1.0000 0.72418  0.60148  0.31213  Biso   1.000  C
  C176     1.0000 0.72418  0.58326  0.39933  Biso   1.000  C
  C177     1.0000 0.75875  0.63717  0.35489  Biso   1.000  C
  O25      1.0000 0.74610  0.65214  0.43390  Biso   1.000  O
  C178     1.0000 0.76838  0.68669  0.46583  Biso   1.000  C
  C179     1.0000 0.75695  0.69914  0.54974  Biso   1.000  C
  C180     1.0000 0.80132  0.70884  0.41441  Biso   1.000  C
  C181     1.0000 0.72279  0.67381  0.60629  Biso   1.000  C
  C182     1.0000 0.77899  0.73499  0.58551  Biso   1.000  C
  C183     1.0000 0.82260  0.74298  0.44802  Biso   1.000  C
  H145     1.0000 0.80850  0.70002  0.35737  Biso   1.000  H
  O26      1.0000 0.73150  0.65582  0.68619  Biso   1.000  O
  H146     1.0000 0.70566  0.65673  0.55583  Biso   1.000  H
  H147     1.0000 0.71237  0.68685  0.63918  Biso   1.000  H
  C184     1.0000 0.76946  0.74990  0.67231  Biso   1.000  C
  C185     1.0000 0.81259  0.75771  0.53449  Biso   1.000  C
  H148     1.0000 0.84429  0.75712  0.41352  Biso   1.000  H
  C186     1.0000 0.70200  0.63242  0.75373  Biso   1.000  C
  H149     1.0000 0.74809  0.73572  0.70841  Biso   1.000  H
  C187     1.0000 0.79072  0.78426  0.70399  Biso   1.000  C
  C188     1.0000 0.83458  0.79332  0.56891  Biso   1.000  C
  C189     1.0000 0.71430  0.61024  0.81333  Biso   1.000  C
  H150     1.0000 0.69626  0.64615  0.80347  Biso   1.000  H
  H151     1.0000 0.68097  0.61735  0.71105  Biso   1.000  H
  H152     1.0000 0.78340  0.79332  0.76015  Biso   1.000  H
  C190     1.0000 0.82375  0.80647  0.65314  Biso   1.000  C
  C191     1.0000 0.87012  0.81665  0.51548  Biso   1.000  C
  C192     1.0000 0.70580  0.57569  0.77788  Biso   1.000  C
  C193     1.0000 0.73783  0.62595  0.89796  Biso   1.000  C
  O27      1.0000 0.84646  0.84091  0.68298  Biso   1.000  O
  O28      1.0000 0.89411  0.80511  0.55222  Biso   1.000  O
  H153     1.0000 0.86758  0.81430  0.43815  Biso   1.000  H
  H154     1.0000 0.87919  0.84150  0.53441  Biso   1.000  H
  C194     1.0000 0.72287  0.55819  0.82705  Biso   1.000  C
  C195     1.0000 0.68153  0.55718  0.69292  Biso   1.000  C
  C196     1.0000 0.75414  0.60842  0.94850  Biso   1.000  C
  O29      1.0000 0.74499  0.65930  0.92828  Biso   1.000  O
  C197     1.0000 0.83717  0.85542  0.77306  Biso   1.000  C
  C198     1.0000 0.92862  0.82480  0.50425  Biso   1.000  C
  C199     1.0000 0.71664  0.52471  0.78718  Biso   1.000  C
  C200     1.0000 0.74700  0.57580  0.91256  Biso   1.000  C
  C201     1.0000 0.67486  0.52482  0.65715  Biso   1.000  C
  H155     1.0000 0.66966  0.56773  0.66068  Biso   1.000  H
  H156     1.0000 0.76966  0.61914  0.00586  Biso   1.000  H
  C202     1.0000 0.76580  0.67546  0.02182  Biso   1.000  C
  H157     1.0000 0.83311  0.84072  0.83611  Biso   1.000  H
  H158     1.0000 0.81549  0.85611  0.75782  Biso   1.000  H
  C203     1.0000 0.86767  0.89221  0.79159  Biso   1.000  C
  C204     1.0000 0.95002  0.80863  0.54621  Biso   1.000  C
  H159     1.0000 0.93988  0.84991  0.52374  Biso   1.000  H
  H160     1.0000 0.92679  0.82290  0.42660  Biso   1.000  H
  C205     1.0000 0.69330  0.50863  0.70255  Biso   1.000  C
  C206     1.0000 0.73801  0.50855  0.82914  Biso   1.000  C
  H161     1.0000 0.75826  0.56474  0.94513  Biso   1.000  H
  H162     1.0000 0.65817  0.51325  0.60292  Biso   1.000  H
  H163     1.0000 0.75867  0.65815  0.07942  Biso   1.000  H
  H164     1.0000 0.79096  0.68474  0.00690  Biso   1.000  H
  C207     1.0000 0.75922  0.70531  0.05270  Biso   1.000  C
  H165     1.0000 0.87179  0.90592  0.72622  Biso   1.000  H
  H166     1.0000 0.86079  0.90341  0.84686  Biso   1.000  H
  C208     1.0000 0.90176  0.89427  0.82424  Biso   1.000  C
  C209     1.0000 0.94377  0.77518  0.50634  Biso   1.000  C
  C210     1.0000 0.97336  0.82472  0.63084  Biso   1.000  C
  O30      1.0000 0.69043  0.47779  0.66276  Biso   1.000  O
  O31      1.0000 0.77255  0.52824  0.78116  Biso   1.000  O
  H167     1.0000 0.72675  0.48343  0.80964  Biso   1.000  H
  H168     1.0000 0.73986  0.51045  0.90679  Biso   1.000  H
  H169     1.0000 0.76624  0.72204  0.99350  Biso   1.000  H
  H170     1.0000 0.77436  0.71795  0.11335  Biso   1.000  H
  C211     1.0000 0.72112  0.69361  0.08190  Biso   1.000  C
  H171     1.0000 0.90719  0.88051  0.77386  Biso   1.000  H
  H172     1.0000 0.92079  0.91890  0.81999  Biso   1.000  H
  C212     1.0000 0.90090  0.88112  0.93045  Biso   1.000  C
  C213     1.0000 0.96086  0.75765  0.55551  Biso   1.000  C
  C214     1.0000 0.91964  0.75755  0.42082  Biso   1.000  C
  C215     1.0000 0.99180  0.80853  0.67624  Biso   1.000  C
  O32      1.0000 0.97621  0.85555  0.67062  Biso   1.000  O
  C216     1.0000 0.66199  0.45567  0.59137  Biso   1.000  C
  C217     1.0000 0.79651  0.51670  0.81782  Biso   1.000  C
  H173     1.0000 0.70646  0.68345  0.01845  Biso   1.000  H
  H174     1.0000 0.71985  0.71463  0.10132  Biso   1.000  H
  C218     1.0000 0.70475  0.66689  0.17167  Biso   1.000  C
  H175     1.0000 0.92358  0.88321  0.94649  Biso   1.000  H
  H176     1.0000 0.88259  0.85662  0.93470  Biso   1.000  H
  H177     1.0000 0.89609  0.89491  0.98107  Biso   1.000  H
  C219     1.0000 0.95237  0.72313  0.52005  Biso   1.000  C
  C220     1.0000 0.98513  0.77617  0.64038  Biso   1.000  C
  C221     1.0000 0.91251  0.72492  0.38489  Biso   1.000  C
  H178     1.0000 0.90839  0.76861  0.38818  Biso   1.000  H
  H179     1.0000 0.00850  0.82012  0.73039  Biso   1.000  H
  C222     1.0000 0.00467  0.87768  0.74202  Biso   1.000  C
  H180     1.0000 0.63917  0.44974  0.62297  Biso   1.000  H
  H181     1.0000 0.66456  0.46804  0.52415  Biso   1.000  H
  C223     1.0000 0.66379  0.42230  0.57228  Biso   1.000  C
  C224     1.0000 0.83207  0.54005  0.76448  Biso   1.000  C
  H182     1.0000 0.79905  0.51905  0.89524  Biso   1.000  H
  H183     1.0000 0.78746  0.49185  0.79897  Biso   1.000  H
  H184     1.0000 0.68046  0.66125  0.18234  Biso   1.000  H
  H185     1.0000 0.70525  0.64554  0.15346  Biso   1.000  H
  H186     1.0000 0.71806  0.67685  0.23640  Biso   1.000  H
  C225     1.0000 0.96466  0.70093  0.57966  Biso   1.000  C
  C226     1.0000 0.92883  0.70739  0.43542  Biso   1.000  C
  H187     1.0000 0.99700  0.76561  0.67271  Biso   1.000  H
  H188     1.0000 0.89700  0.71421  0.32753  Biso   1.000  H
  H189     1.0000 0.02749  0.88361  0.71041  Biso   1.000  H
  H190     1.0000 0.00209  0.86530  0.80924  Biso   1.000  H
  C227     1.0000 0.00287  0.91105  0.76111  Biso   1.000  C
  C228     1.0000 0.67006  0.40314  0.66028  Biso   1.000  C
  C229     1.0000 0.64977  0.40175  0.68795  Biso   1.000  C
  C230     1.0000 0.84288  0.52688  0.68025  Biso   1.000  C
  C231     1.0000 0.85405  0.57564  0.79889  Biso   1.000  C
  O33      1.0000 0.93514  0.67752  0.64720  Biso   1.000  O
  H191     1.0000 0.97039  0.68722  0.52992  Biso   1.000  H
  H192     1.0000 0.98568  0.71600  0.62233  Biso   1.000  H
  O34      1.0000 0.92167  0.67405  0.40510  Biso   1.000  O
  C232     1.0000 0.99660  0.93021  0.67311  Biso   1.000  C
  C233     1.0000 0.01690  0.93162  0.64544  Biso   1.000  C
  C234     1.0000 0.65686  0.36905  0.67175  Biso   1.000  C
  C235     1.0000 0.64426  0.39144  0.74434  Biso   1.000  C
  O35      1.0000 0.82018  0.49244  0.65041  Biso   1.000  O
  C236     1.0000 0.87592  0.54908  0.62939  Biso   1.000  C
  C237     1.0000 0.84406  0.59036  0.88537  Biso   1.000  C
  C238     1.0000 0.88764  0.59835  0.74787  Biso   1.000  C
  C239     1.0000 0.94385  0.65954  0.72710  Biso   1.000  C
  C240     1.0000 0.90084  0.65788  0.31149  Biso   1.000  C
  C241     1.0000 0.00980  0.96430  0.66164  Biso   1.000  C
  C242     1.0000 0.02239  0.94191  0.58904  Biso   1.000  C
  C243     1.0000 0.82949  0.47793  0.56032  Biso   1.000  C
  C244     1.0000 0.89719  0.58344  0.66108  Biso   1.000  C
  H193     1.0000 0.88327  0.54005  0.57324  Biso   1.000  H
  H194     1.0000 0.82234  0.57623  0.91986  Biso   1.000  H
  C245     1.0000 0.86534  0.62451  0.91898  Biso   1.000  C
  C246     1.0000 0.90969  0.63421  0.78365  Biso   1.000  C
  H195     1.0000 0.96099  0.67661  0.77755  Biso   1.000  H
  H196     1.0000 0.95429  0.64650  0.69421  Biso   1.000  H
  H197     1.0000 0.90799  0.67520  0.25389  Biso   1.000  H
  H198     1.0000 0.87570  0.64861  0.32641  Biso   1.000  H
  C247     1.0000 0.90743  0.62804  0.28060  Biso   1.000  C
  H199     1.0000 0.83357  0.49265  0.49727  Biso   1.000  H
  H200     1.0000 0.85115  0.47723  0.57557  Biso   1.000  H
  C248     1.0000 0.79899  0.44114  0.54171  Biso   1.000  C
  H201     1.0000 0.91854  0.59763  0.62498  Biso   1.000  H
  H202     1.0000 0.85817  0.63335  0.97593  Biso   1.000  H
  C249     1.0000 0.89828  0.64666  0.86756  Biso   1.000  C
  H203     1.0000 0.89228  0.61540  0.22004  Biso   1.000  H
  H204     1.0000 0.90039  0.61131  0.33988  Biso   1.000  H
  C250     1.0000 0.94554  0.63974  0.25140  Biso   1.000  C
  H205     1.0000 0.79485  0.42743  0.60717  Biso   1.000  H
  H206     1.0000 0.80587  0.42994  0.48652  Biso   1.000  H
  C251     1.0000 0.76487  0.43908  0.50914  Biso   1.000  C
  O36      1.0000 0.92053  0.68121  0.89949  Biso   1.000  O
  H207     1.0000 0.96019  0.64992  0.31494  Biso   1.000  H
  H208     1.0000 0.94678  0.61871  0.23199  Biso   1.000  H
  C252     1.0000 0.96191  0.66646  0.16172  Biso   1.000  C
  H209     1.0000 0.75947  0.45284  0.55952  Biso   1.000  H
  H210     1.0000 0.74587  0.41444  0.51332  Biso   1.000  H
  C253     1.0000 0.76577  0.45225  0.40294  Biso   1.000  C
  C254     1.0000 0.90790  0.69617  0.97850  Biso   1.000  C
  H211     1.0000 0.98618  0.67210  0.15097  Biso   1.000  H
  H212     1.0000 0.96138  0.68781  0.17993  Biso   1.000  H
  H213     1.0000 0.94859  0.65652  0.09690  Biso   1.000  H
  H214     1.0000 0.74306  0.45014  0.38681  Biso   1.000  H
  H215     1.0000 0.78406  0.47675  0.39868  Biso   1.000  H
  H216     1.0000 0.77055  0.43844  0.35232  Biso   1.000  H
  C255     1.0000 0.94246  0.73187  0.02126  Biso   1.000  C
  C256     1.0000 0.94245  0.75009  0.93406  Biso   1.000  C
  C257     1.0000 0.96485  0.75434  0.00690  Biso   1.000  C
  C258     1.0000 0.98636  0.79255  0.97618  Biso   1.000  C
  C259     1.0000 0.58343  0.68623  0.33900  Biso   1.000  C
  C260     1.0000 0.54907  0.67314  0.37069  Biso   1.000  C
  H217     1.0000 0.59762  0.67907  0.37510  Biso   1.000  H
  C261     1.0000 0.59835  0.71071  0.25221  Biso   1.000  C
  C262     1.0000 0.52687  0.68399  0.31975  Biso   1.000  C
  H218     1.0000 0.54004  0.65679  0.42676  Biso   1.000  H
  C263     1.0000 0.57563  0.72158  0.20119  Biso   1.000  C
  C264     1.0000 0.63420  0.72452  0.21635  Biso   1.000  C
  O37      1.0000 0.49243  0.67226  0.34967  Biso   1.000  O
  C265     1.0000 0.54003  0.70795  0.23560  Biso   1.000  C
  C266     1.0000 0.59035  0.74630  0.11463  Biso   1.000  C
  C267     1.0000 0.64664  0.74838  0.13244  Biso   1.000  C
  C268     1.0000 0.65952  0.71568  0.27290  Biso   1.000  C
  C269     1.0000 0.47793  0.64845  0.43968  Biso   1.000  C
  C270     1.0000 0.51668  0.72016  0.18218  Biso   1.000  C
  H219     1.0000 0.57623  0.75388  0.08014  Biso   1.000  H
  C271     1.0000 0.62451  0.75917  0.08110  Biso   1.000  C
  O38      1.0000 0.68119  0.76064  0.10059  Biso   1.000  O
  O39      1.0000 0.67751  0.74237  0.35288  Biso   1.000  O
  H220     1.0000 0.67658  0.71560  0.22253  Biso   1.000  H
  H221     1.0000 0.64649  0.69222  0.30579  Biso   1.000  H
  C272     1.0000 0.44113  0.64214  0.45829  Biso   1.000  C
  H222     1.0000 0.49264  0.65908  0.50281  Biso   1.000  H
  H223     1.0000 0.47723  0.62609  0.42451  Biso   1.000  H
  O40      1.0000 0.52823  0.75567  0.21884  Biso   1.000  O
  H224     1.0000 0.51904  0.71998  0.10476  Biso   1.000  H
  H225     1.0000 0.49182  0.70437  0.20111  Biso   1.000  H
  H226     1.0000 0.63332  0.77518  0.02407  Biso   1.000  H
  C273     1.0000 0.69616  0.78827  0.02158  Biso   1.000  C
  C274     1.0000 0.70090  0.73625  0.42042  Biso   1.000  C
  H227     1.0000 0.42744  0.63258  0.39291  Biso   1.000  H
  H228     1.0000 0.42993  0.62408  0.51348  Biso   1.000  H
  C275     1.0000 0.43909  0.67421  0.49086  Biso   1.000  C
  C276     1.0000 0.50854  0.77053  0.17086  Biso   1.000  C
  C277     1.0000 0.73185  0.78939  0.97882  Biso   1.000  C
  C278     1.0000 0.72311  0.77077  0.48003  Biso   1.000  C
  H229     1.0000 0.68720  0.71680  0.47008  Biso   1.000  H
  H230     1.0000 0.71601  0.73032  0.37775  Biso   1.000  H
  H231     1.0000 0.45281  0.69337  0.44048  Biso   1.000  H
  H232     1.0000 0.41443  0.66857  0.48668  Biso   1.000  H
  C279     1.0000 0.45224  0.68647  0.59706  Biso   1.000  C
  H233     1.0000 0.48342  0.75666  0.19036  Biso   1.000  H
  H234     1.0000 0.51044  0.77058  0.09329  Biso   1.000  H
  C280     1.0000 0.52470  0.80807  0.21290  Biso   1.000  C
  C281     1.0000 0.75007  0.80762  0.06594  Biso   1.000  C
  C282     1.0000 0.75433  0.78947  0.99310  Biso   1.000  C
  C283     1.0000 0.70738  0.77855  0.56466  Biso   1.000  C
  C284     1.0000 0.75765  0.79680  0.44449  Biso   1.000  C
  H235     1.0000 0.45013  0.70707  0.61319  Biso   1.000  H
  H236     1.0000 0.47672  0.69267  0.60140  Biso   1.000  H
  H237     1.0000 0.43843  0.66788  0.64768  Biso   1.000  H
  C285     1.0000 0.50864  0.81534  0.29745  Biso   1.000  C
  C286     1.0000 0.55816  0.83530  0.17295  Biso   1.000  C
  C287     1.0000 0.79253  0.80617  0.02391  Biso   1.000  C
  O41      1.0000 0.67402  0.75236  0.59490  Biso   1.000  O
  C288     1.0000 0.72491  0.81240  0.61511  Biso   1.000  C
  C289     1.0000 0.77614  0.79102  0.35962  Biso   1.000  C
  C290     1.0000 0.77514  0.83137  0.49374  Biso   1.000  C
  O42      1.0000 0.47778  0.78736  0.33732  Biso   1.000  O
  C291     1.0000 0.52482  0.84997  0.34285  Biso   1.000  C
  C292     1.0000 0.57581  0.82881  0.08744  Biso   1.000  C
  C293     1.0000 0.57569  0.86990  0.22220  Biso   1.000  C
  C294     1.0000 0.65787  0.75704  0.68851  Biso   1.000  C
  H238     1.0000 0.71419  0.81721  0.67255  Biso   1.000  H
  C295     1.0000 0.75753  0.83789  0.57926  Biso   1.000  C
  C296     1.0000 0.80850  0.81673  0.32384  Biso   1.000  C
  H239     1.0000 0.76558  0.76861  0.32729  Biso   1.000  H
  C297     1.0000 0.80861  0.85860  0.45379  Biso   1.000  C
  C298     1.0000 0.45566  0.79370  0.40871  Biso   1.000  C
  H240     1.0000 0.51323  0.85507  0.39708  Biso   1.000  H
  C299     1.0000 0.55716  0.87564  0.30708  Biso   1.000  C
  C300     1.0000 0.60843  0.85430  0.05158  Biso   1.000  C
  H241     1.0000 0.56471  0.80647  0.05487  Biso   1.000  H
  C301     1.0000 0.61023  0.89592  0.18667  Biso   1.000  C
  H242     1.0000 0.67520  0.76722  0.74611  Biso   1.000  H
  H243     1.0000 0.64859  0.77291  0.67359  Biso   1.000  H
  C302     1.0000 0.62803  0.72059  0.71940  Biso   1.000  C
  H244     1.0000 0.76859  0.86020  0.61182  Biso   1.000  H
  C303     1.0000 0.82470  0.85136  0.36924  Biso   1.000  C
  H245     1.0000 0.82009  0.81160  0.26961  Biso   1.000  H
  C304     1.0000 0.82478  0.89616  0.49583  Biso   1.000  C
  H246     1.0000 0.44973  0.81058  0.37711  Biso   1.000  H
  H247     1.0000 0.46802  0.80348  0.47585  Biso   1.000  H
  C305     1.0000 0.42228  0.75851  0.42780  Biso   1.000  C
  H248     1.0000 0.56774  0.89809  0.33940  Biso   1.000  H
  C306     1.0000 0.62596  0.88815  0.10204  Biso   1.000  C
  H249     1.0000 0.61912  0.84949  0.99422  Biso   1.000  H
  C307     1.0000 0.63240  0.93042  0.24627  Biso   1.000  C
  H250     1.0000 0.61540  0.72310  0.78004  Biso   1.000  H
  H251     1.0000 0.61130  0.71092  0.66012  Biso   1.000  H
  C308     1.0000 0.63973  0.69419  0.74860  Biso   1.000  C
  O43      1.0000 0.85553  0.87933  0.32938  Biso   1.000  O
  O44      1.0000 0.80509  0.91099  0.44786  Biso   1.000  O
  H252     1.0000 0.84988  0.91001  0.47634  Biso   1.000  H
  H253     1.0000 0.82290  0.89611  0.57340  Biso   1.000  H
  C309     1.0000 0.40313  0.73307  0.33980  Biso   1.000  C
  C310     1.0000 0.40174  0.75199  0.31205  Biso   1.000  C
  O45      1.0000 0.65929  0.91431  0.07180  Biso   1.000  O
  O46      1.0000 0.65583  0.92433  0.31381  Biso   1.000  O
  H254     1.0000 0.64613  0.94987  0.19653  Biso   1.000  H
  H255     1.0000 0.61733  0.93638  0.28895  Biso   1.000  H
  H256     1.0000 0.64989  0.68970  0.68514  Biso   1.000  H
  H257     1.0000 0.61868  0.67191  0.76801  Biso   1.000  H
  C311     1.0000 0.66645  0.70456  0.83836  Biso   1.000  C
  C312     1.0000 0.87766  0.87300  0.25798  Biso   1.000  C
  C313     1.0000 0.81664  0.94653  0.48452  Biso   1.000  C
  C314     1.0000 0.36904  0.71218  0.32825  Biso   1.000  C
  C315     1.0000 0.39142  0.74718  0.25566  Biso   1.000  C
  C316     1.0000 0.67545  0.90966  0.97818  Biso   1.000  C
  C317     1.0000 0.67380  0.95102  0.39379  Biso   1.000  C
  H258     1.0000 0.67210  0.68591  0.84903  Biso   1.000  H
  H259     1.0000 0.68779  0.72642  0.82015  Biso   1.000  H
  H260     1.0000 0.65649  0.70790  0.90310  Biso   1.000  H
  H261     1.0000 0.88358  0.85611  0.28959  Biso   1.000  H
  H262     1.0000 0.86530  0.86322  0.19084  Biso   1.000  H
  C318     1.0000 0.91103  0.90819  0.23889  Biso   1.000  C
  C319     1.0000 0.79330  0.95871  0.43109  Biso   1.000  C
  H263     1.0000 0.81430  0.94672  0.56193  Biso   1.000  H
  H264     1.0000 0.84149  0.96232  0.46559  Biso   1.000  H
  H265     1.0000 0.65812  0.89948  0.92058  Biso   1.000  H
  H266     1.0000 0.68473  0.89379  0.99310  Biso   1.000  H
  C320     1.0000 0.70527  0.94608  0.94730  Biso   1.000  C
  C321     1.0000 0.69911  0.94218  0.45034  Biso   1.000  C
  H267     1.0000 0.65673  0.95107  0.44417  Biso   1.000  H
  H268     1.0000 0.68683  0.97448  0.36090  Biso   1.000  H
  C322     1.0000 0.93019  0.93360  0.32689  Biso   1.000  C
  C323     1.0000 0.93158  0.91471  0.35464  Biso   1.000  C
  C324     1.0000 0.75771  0.94511  0.46551  Biso   1.000  C
  C325     1.0000 0.80644  0.98268  0.34694  Biso   1.000  C
  H269     1.0000 0.72202  0.95578  0.00658  Biso   1.000  H
  H270     1.0000 0.71792  0.94356  0.88673  Biso   1.000  H
  C326     1.0000 0.69358  0.97248  0.91810  Biso   1.000  C
  C327     1.0000 0.68667  0.91832  0.53425  Biso   1.000  C
  C328     1.0000 0.73497  0.95599  0.41449  Biso   1.000  C
  C329     1.0000 0.96430  0.95452  0.33844  Biso   1.000  C
  C330     1.0000 0.94190  0.91952  0.41104  Biso   1.000  C
  C331     1.0000 0.74296  0.92037  0.55198  Biso   1.000  C
  C332     1.0000 0.78426  0.99353  0.29601  Biso   1.000  C
  O47      1.0000 0.84089  0.99444  0.31702  Biso   1.000  O
  H271     1.0000 0.68343  0.97699  0.98163  Biso   1.000  H
  H272     1.0000 0.71463  0.99479  0.89868  Biso   1.000  H
  C333     1.0000 0.66686  0.96213  0.82841  Biso   1.000  C
  O48      1.0000 0.65214  0.90602  0.56610  Biso   1.000  O
  C334     1.0000 0.70881  0.90752  0.58559  Biso   1.000  C
  C335     1.0000 0.74987  0.98044  0.32769  Biso   1.000  C
  H273     1.0000 0.75709  0.91281  0.58656  Biso   1.000  H
  H274     1.0000 0.79330  0.00991  0.23993  Biso   1.000  H
  C336     1.0000 0.85537  0.01822  0.22702  Biso   1.000  C
  H275     1.0000 0.66124  0.98078  0.81766  Biso   1.000  H
  H276     1.0000 0.64552  0.94028  0.84662  Biso   1.000  H
  H277     1.0000 0.67682  0.95877  0.76360  Biso   1.000  H
  C337     1.0000 0.63716  0.87842  0.64511  Biso   1.000  C
  H278     1.0000 0.70000  0.89152  0.64263  Biso   1.000  H
  H279     1.0000 0.73568  0.98760  0.29159  Biso   1.000  H
  H280     1.0000 0.84068  0.00758  0.16389  Biso   1.000  H
  H281     1.0000 0.85609  0.04061  0.24218  Biso   1.000  H
  C338     1.0000 0.89217  0.02452  0.20841  Biso   1.000  C
  C339     1.0000 0.60147  0.87730  0.68795  Biso   1.000  C
  C340     1.0000 0.89425  0.99249  0.17584  Biso   1.000  C
  H282     1.0000 0.90588  0.03409  0.27378  Biso   1.000  H
  H283     1.0000 0.90338  0.04259  0.15322  Biso   1.000  H
  C341     1.0000 0.58327  0.85908  0.60075  Biso   1.000  C
  C342     1.0000 0.57901  0.87722  0.67359  Biso   1.000  C
  H284     1.0000 0.88049  0.97330  0.22622  Biso   1.000  H
  H285     1.0000 0.91887  0.99810  0.18001  Biso   1.000  H
  C343     1.0000 0.88110  0.98022  0.06963  Biso   1.000  C
  C344     1.0000 0.54081  0.86052  0.64279  Biso   1.000  C
  H286     1.0000 0.88321  0.95962  0.05351  Biso   1.000  H
  H287     1.0000 0.85659  0.97400  0.06530  Biso   1.000  H
  H288     1.0000 0.89489  0.99882  0.01901  Biso   1.000  H
  C345     1.0000 0.29800  0.36758  0.24627  Biso   1.000  C
  O49      1.0000 0.26848  0.34417  0.31381  Biso   1.000  O
  C346     1.0000 0.28568  0.38978  0.18667  Biso   1.000  C
  H289     1.0000 0.30373  0.35387  0.19653  Biso   1.000  H
  H290     1.0000 0.31904  0.38267  0.28895  Biso   1.000  H
  C347     1.0000 0.27719  0.32619  0.39379  Biso   1.000  C
  C348     1.0000 0.26217  0.37404  0.10204  Biso   1.000  C
  C349     1.0000 0.29419  0.42433  0.22220  Biso   1.000  C
  C350     1.0000 0.24304  0.30089  0.45034  Biso   1.000  C
  H291     1.0000 0.29433  0.34326  0.44417  Biso   1.000  H
  H292     1.0000 0.28764  0.31318  0.36090  Biso   1.000  H
  O50      1.0000 0.25499  0.34070  0.07180  Biso   1.000  O
  C351     1.0000 0.24585  0.39157  0.05158  Biso   1.000  C
  C352     1.0000 0.31847  0.44282  0.30708  Biso   1.000  C
  C353     1.0000 0.27711  0.44183  0.17295  Biso   1.000  C
  C354     1.0000 0.22099  0.26503  0.41449  Biso   1.000  C
  C355     1.0000 0.23160  0.31331  0.53425  Biso   1.000  C
  C356     1.0000 0.23418  0.32453  0.97818  Biso   1.000  C
  C357     1.0000 0.25298  0.42420  0.08744  Biso   1.000  C
  H293     1.0000 0.23033  0.38088  0.99422  Biso   1.000  H
  C358     1.0000 0.32512  0.47518  0.34285  Biso   1.000  C
  H294     1.0000 0.33032  0.43226  0.33940  Biso   1.000  H
  C359     1.0000 0.28334  0.47528  0.21290  Biso   1.000  C
  C360     1.0000 0.23055  0.25012  0.32769  Biso   1.000  C
  C361     1.0000 0.18739  0.24229  0.46551  Biso   1.000  C
  O51      1.0000 0.25387  0.34786  0.56610  Biso   1.000  O
  C362     1.0000 0.19867  0.29119  0.58559  Biso   1.000  C
  H295     1.0000 0.24132  0.34187  0.92058  Biso   1.000  H
  H296     1.0000 0.20902  0.31526  0.99310  Biso   1.000  H
  C363     1.0000 0.24079  0.29471  0.94730  Biso   1.000  C
  H297     1.0000 0.24175  0.43528  0.05487  Biso   1.000  H
  C364     1.0000 0.30670  0.49137  0.29745  Biso   1.000  C
  H298     1.0000 0.34184  0.48677  0.39708  Biso   1.000  H
  C365     1.0000 0.26196  0.49145  0.17086  Biso   1.000  C
  H299     1.0000 0.25190  0.26431  0.29159  Biso   1.000  H
  C366     1.0000 0.20926  0.21573  0.29601  Biso   1.000  C
  C367     1.0000 0.16541  0.20670  0.43109  Biso   1.000  C
  C368     1.0000 0.17741  0.25704  0.55198  Biso   1.000  C
  C369     1.0000 0.24122  0.36282  0.64511  Biso   1.000  C
  H300     1.0000 0.19149  0.30000  0.64263  Biso   1.000  H
  H301     1.0000 0.23373  0.27796  0.00658  Biso   1.000  H
  H302     1.0000 0.22563  0.28208  0.88673  Biso   1.000  H
  C370     1.0000 0.27887  0.30642  0.91810  Biso   1.000  C
  O52      1.0000 0.30955  0.52220  0.33732  Biso   1.000  O
  O53      1.0000 0.22744  0.47178  0.21884  Biso   1.000  O
  H303     1.0000 0.27322  0.51656  0.19036  Biso   1.000  H
  H304     1.0000 0.26012  0.48958  0.09329  Biso   1.000  H
  H305     1.0000 0.21659  0.20670  0.23993  Biso   1.000  H
  C371     1.0000 0.17623  0.19355  0.34694  Biso   1.000  C
  C372     1.0000 0.12985  0.18335  0.48452  Biso   1.000  C
  H306     1.0000 0.15570  0.24291  0.58656  Biso   1.000  H
  C373     1.0000 0.27580  0.39852  0.68795  Biso   1.000  C
  H307     1.0000 0.29353  0.31657  0.98163  Biso   1.000  H
  H308     1.0000 0.28012  0.28536  0.89868  Biso   1.000  H
  C374     1.0000 0.29526  0.33314  0.82841  Biso   1.000  C
  C375     1.0000 0.33802  0.54435  0.40871  Biso   1.000  C
  C376     1.0000 0.20348  0.48333  0.18218  Biso   1.000  C
  O54      1.0000 0.15353  0.15911  0.31702  Biso   1.000  O
  O55      1.0000 0.10589  0.19489  0.44786  Biso   1.000  O
  H309     1.0000 0.13239  0.18570  0.56193  Biso   1.000  H
  H310     1.0000 0.12081  0.15850  0.46559  Biso   1.000  H
  C377     1.0000 0.27579  0.41674  0.60075  Biso   1.000  C
  C378     1.0000 0.29820  0.42102  0.67359  Biso   1.000  C
  H311     1.0000 0.31953  0.33877  0.81766  Biso   1.000  H
  H312     1.0000 0.29472  0.35446  0.84662  Biso   1.000  H
  H313     1.0000 0.28193  0.32317  0.76360  Biso   1.000  H
  H314     1.0000 0.36084  0.55028  0.37711  Biso   1.000  H
  H315     1.0000 0.33542  0.53198  0.47585  Biso   1.000  H
  C379     1.0000 0.33620  0.57772  0.42780  Biso   1.000  C
  C380     1.0000 0.16792  0.45997  0.23560  Biso   1.000  C
  H316     1.0000 0.20094  0.48097  0.10476  Biso   1.000  H
  H317     1.0000 0.21252  0.50817  0.20111  Biso   1.000  H
  C381     1.0000 0.16282  0.14460  0.22702  Biso   1.000  C
  C382     1.0000 0.07137  0.17523  0.49583  Biso   1.000  C
  C383     1.0000 0.31970  0.45920  0.64279  Biso   1.000  C
  C384     1.0000 0.32993  0.59688  0.33980  Biso   1.000  C
  C385     1.0000 0.35022  0.59827  0.31205  Biso   1.000  C
  C386     1.0000 0.15709  0.47312  0.31975  Biso   1.000  C
  C387     1.0000 0.14594  0.42438  0.20119  Biso   1.000  C
  H318     1.0000 0.16691  0.15930  0.16389  Biso   1.000  H
  H319     1.0000 0.18450  0.14391  0.24218  Biso   1.000  H
  C388     1.0000 0.13235  0.10781  0.20841  Biso   1.000  C
  H320     1.0000 0.06010  0.15011  0.47634  Biso   1.000  H
  H321     1.0000 0.07320  0.17710  0.57340  Biso   1.000  H
  C389     1.0000 0.04999  0.19139  0.45379  Biso   1.000  C
  C390     1.0000 0.34313  0.63098  0.32825  Biso   1.000  C
  C391     1.0000 0.35572  0.60859  0.25566  Biso   1.000  C
  O56      1.0000 0.17980  0.50756  0.34967  Biso   1.000  O
  C392     1.0000 0.12407  0.45094  0.37069  Biso   1.000  C
  C393     1.0000 0.11233  0.40164  0.25221  Biso   1.000  C
  C394     1.0000 0.15592  0.40963  0.11463  Biso   1.000  C
  H322     1.0000 0.12820  0.09411  0.27378  Biso   1.000  H
  H323     1.0000 0.13918  0.09659  0.15322  Biso   1.000  H
  C395     1.0000 0.09823  0.10575  0.17584  Biso   1.000  C
  C396     1.0000 0.02663  0.17531  0.36924  Biso   1.000  C
  C397     1.0000 0.05621  0.22484  0.49374  Biso   1.000  C
  C398     1.0000 0.17051  0.52207  0.43968  Biso   1.000  C
  C399     1.0000 0.10278  0.41655  0.33900  Biso   1.000  C
  H324     1.0000 0.11674  0.45997  0.42676  Biso   1.000  H
  C400     1.0000 0.09029  0.36579  0.21635  Biso   1.000  C
  C401     1.0000 0.13466  0.37549  0.08110  Biso   1.000  C
  H325     1.0000 0.17763  0.42377  0.08014  Biso   1.000  H
  H326     1.0000 0.09279  0.11949  0.22622  Biso   1.000  H
  H327     1.0000 0.07919  0.08109  0.18001  Biso   1.000  H
  C402     1.0000 0.09911  0.11890  0.06963  Biso   1.000  C
  O57      1.0000 0.02378  0.14447  0.32938  Biso   1.000  O
  C403     1.0000 0.00821  0.19150  0.32384  Biso   1.000  C
  C404     1.0000 0.08035  0.24248  0.57926  Biso   1.000  C
  C405     1.0000 0.03914  0.24234  0.44449  Biso   1.000  C
  H328     1.0000 0.16642  0.50737  0.50281  Biso   1.000  H
  H329     1.0000 0.14883  0.52276  0.42451  Biso   1.000  H
  C406     1.0000 0.20098  0.55886  0.45829  Biso   1.000  C
  H330     1.0000 0.08143  0.40237  0.37510  Biso   1.000  H
  C407     1.0000 0.05614  0.34048  0.27290  Biso   1.000  C
  C408     1.0000 0.10173  0.35336  0.13244  Biso   1.000  C
  H331     1.0000 0.14184  0.36667  0.02407  Biso   1.000  H
  H332     1.0000 0.07640  0.11679  0.05351  Biso   1.000  H
  H333     1.0000 0.11740  0.14340  0.06530  Biso   1.000  H
  H334     1.0000 0.10390  0.10511  0.01901  Biso   1.000  H
  C409     1.0000 0.99531  0.12232  0.25798  Biso   1.000  C
  C410     1.0000 0.01486  0.22385  0.35962  Biso   1.000  C
  H335     1.0000 0.99149  0.17990  0.26961  Biso   1.000  H
  C411     1.0000 0.08747  0.27510  0.61511  Biso   1.000  C
  H336     1.0000 0.09159  0.23142  0.61182  Biso   1.000  H
  C412     1.0000 0.04765  0.27689  0.48003  Biso   1.000  C
  H337     1.0000 0.20513  0.57257  0.39291  Biso   1.000  H
  H338     1.0000 0.19414  0.57008  0.51348  Biso   1.000  H
  C413     1.0000 0.23510  0.56092  0.49086  Biso   1.000  C
  O58      1.0000 0.06485  0.32250  0.35288  Biso   1.000  O
  H339     1.0000 0.03900  0.32341  0.22253  Biso   1.000  H
  H340     1.0000 0.04568  0.35350  0.30579  Biso   1.000  H
  O59      1.0000 0.07946  0.31881  0.10059  Biso   1.000  O
  H341     1.0000 0.97249  0.11639  0.28959  Biso   1.000  H
  H342     1.0000 0.99788  0.13469  0.19084  Biso   1.000  H
  C414     1.0000 0.99711  0.08895  0.23889  Biso   1.000  C
  H343     1.0000 0.00301  0.23441  0.32729  Biso   1.000  H
  C415     1.0000 0.07116  0.29263  0.56466  Biso   1.000  C
  H344     1.0000 0.10301  0.28582  0.67255  Biso   1.000  H
  C416     1.0000 0.03533  0.29910  0.42042  Biso   1.000  C
  H345     1.0000 0.24054  0.54718  0.44048  Biso   1.000  H
  H346     1.0000 0.25414  0.58558  0.48668  Biso   1.000  H
  C417     1.0000 0.23422  0.54777  0.59706  Biso   1.000  C
  C418     1.0000 0.09211  0.30385  0.02158  Biso   1.000  C
  C419     1.0000 0.00340  0.06979  0.32689  Biso   1.000  C
  C420     1.0000 0.98309  0.06840  0.35464  Biso   1.000  C
  O60      1.0000 0.07834  0.32598  0.59490  Biso   1.000  O
  H347     1.0000 0.02960  0.31280  0.47008  Biso   1.000  H
  H348     1.0000 0.01429  0.28400  0.37775  Biso   1.000  H
  H349     1.0000 0.25693  0.54988  0.61319  Biso   1.000  H
  H350     1.0000 0.21593  0.52327  0.60140  Biso   1.000  H
  H351     1.0000 0.22944  0.56159  0.64768  Biso   1.000  H
  C421     1.0000 0.05753  0.26815  0.97882  Biso   1.000  C
  C422     1.0000 0.99020  0.03570  0.33844  Biso   1.000  C
  C423     1.0000 0.97758  0.05809  0.41104  Biso   1.000  C
  C424     1.0000 0.09915  0.34214  0.68851  Biso   1.000  C
  C425     1.0000 0.05754  0.24993  0.06594  Biso   1.000  C
  C426     1.0000 0.03513  0.24566  0.99310  Biso   1.000  C
  H352     1.0000 0.09201  0.32480  0.74611  Biso   1.000  H
  H353     1.0000 0.12431  0.35141  0.67359  Biso   1.000  H
  C427     1.0000 0.09254  0.37196  0.71940  Biso   1.000  C
  C428     1.0000 0.01363  0.20748  0.02391  Biso   1.000  C
  H354     1.0000 0.10770  0.38460  0.78004  Biso   1.000  H
  H355     1.0000 0.09960  0.38871  0.66012  Biso   1.000  H
  C429     1.0000 0.05446  0.36026  0.74860  Biso   1.000  C
  H356     1.0000 0.03980  0.35010  0.68514  Biso   1.000  H
  H357     1.0000 0.05321  0.38131  0.76801  Biso   1.000  H
  C430     1.0000 0.03807  0.33354  0.83836  Biso   1.000  C
  H358     1.0000 0.01380  0.32790  0.84903  Biso   1.000  H
  H359     1.0000 0.03860  0.31221  0.82015  Biso   1.000  H
  H360     1.0000 0.05140  0.34350  0.90310  Biso   1.000  H
  C431     1.0000 0.70235  0.37883  0.99495  Biso   1.000  C
  C432     1.0000 0.73646  0.39975  0.00642  Biso   1.000  C
  C433     1.0000 0.72476  0.41383  0.92235  Biso   1.000  C
  C434     1.0000 0.73506  0.41864  0.97874  Biso   1.000  C
  C435     1.0000 0.75560  0.42516  0.09442  Biso   1.000  C
  C436     1.0000 0.78898  0.46035  0.07532  Biso   1.000  C
  O61      1.0000 0.81112  0.45401  0.00393  Biso   1.000  O
  H361     1.0000 0.78305  0.47723  0.04372  Biso   1.000  H
  H362     1.0000 0.80136  0.47013  0.14255  Biso   1.000  H
  C437     1.0000 0.84196  0.48199  0.96414  Biso   1.000  C
  C438     1.0000 0.85814  0.51662  0.00955  Biso   1.000  C
  C439     1.0000 0.85805  0.47475  0.87959  Biso   1.000  C
  H363     1.0000 0.84656  0.52175  0.06377  Biso   1.000  H
  C440     1.0000 0.89049  0.54232  0.97377  Biso   1.000  C
  C441     1.0000 0.84188  0.43718  0.83756  Biso   1.000  C
  C442     1.0000 0.89149  0.50198  0.83964  Biso   1.000  C
  H364     1.0000 0.90105  0.56474  0.00602  Biso   1.000  H
  C443     1.0000 0.90901  0.53655  0.88890  Biso   1.000  C
  O62      1.0000 0.86156  0.42235  0.88553  Biso   1.000  O
  H365     1.0000 0.81675  0.42334  0.85705  Biso   1.000  H
  H366     1.0000 0.84376  0.43723  0.75999  Biso   1.000  H
  C444     1.0000 0.90913  0.49546  0.75413  Biso   1.000  C
  C445     1.0000 0.94356  0.56260  0.85336  Biso   1.000  C
  C446     1.0000 0.85000  0.38682  0.84887  Biso   1.000  C
  C447     1.0000 0.94175  0.52095  0.71827  Biso   1.000  C
  H367     1.0000 0.89807  0.47315  0.72156  Biso   1.000  H
  C448     1.0000 0.95928  0.55480  0.76873  Biso   1.000  C
  C449     1.0000 0.96576  0.59710  0.91296  Biso   1.000  C
  C450     1.0000 0.87336  0.37463  0.90229  Biso   1.000  C
  H368     1.0000 0.85236  0.38663  0.77146  Biso   1.000  H
  H369     1.0000 0.82515  0.37105  0.86780  Biso   1.000  H
  H370     1.0000 0.95246  0.51614  0.66084  Biso   1.000  H
  O63      1.0000 0.99262  0.58098  0.73849  Biso   1.000  O
  O64      1.0000 0.98914  0.59098  0.98051  Biso   1.000  O
  H371     1.0000 0.97946  0.61655  0.86323  Biso   1.000  H
  H372     1.0000 0.95065  0.60303  0.95564  Biso   1.000  H
  C451     1.0000 0.86022  0.35066  0.98644  Biso   1.000  C
  C452     1.0000 0.90895  0.38823  0.86788  Biso   1.000  C
  C453     1.0000 0.00879  0.57631  0.64487  Biso   1.000  C
  C454     1.0000 0.00714  0.61767  0.06040  Biso   1.000  C
  O65      1.0000 0.82577  0.33891  0.01628  Biso   1.000  O
  C455     1.0000 0.88240  0.33982  0.03730  Biso   1.000  C
  C456     1.0000 0.92370  0.41297  0.78133  Biso   1.000  C
  C457     1.0000 0.93167  0.37736  0.91890  Biso   1.000  C
  H373     1.0000 0.99146  0.56613  0.58728  Biso   1.000  H
  H374     1.0000 0.01807  0.56044  0.65971  Biso   1.000  H
  C458     1.0000 0.03863  0.61275  0.61399  Biso   1.000  C
  H375     1.0000 0.99006  0.61775  0.11086  Biso   1.000  H
  C459     1.0000 0.03245  0.60883  0.11696  Biso   1.000  C
  H376     1.0000 0.02017  0.64113  0.02751  Biso   1.000  H
  C460     1.0000 0.81125  0.31510  0.10637  Biso   1.000  C
  C461     1.0000 0.91676  0.35291  0.00562  Biso   1.000  C
  H377     1.0000 0.87336  0.32344  0.09345  Biso   1.000  H
  H378     1.0000 0.90955  0.42053  0.74683  Biso   1.000  H
  C462     1.0000 0.95782  0.42583  0.74779  Biso   1.000  C
  C463     1.0000 0.96752  0.39117  0.88304  Biso   1.000  C
  H379     1.0000 0.05126  0.61024  0.55335  Biso   1.000  H
  H380     1.0000 0.05537  0.62245  0.67327  Biso   1.000  H
  C464     1.0000 0.02693  0.63915  0.58479  Biso   1.000  C
  C465     1.0000 0.02001  0.58497  0.20087  Biso   1.000  C
  C466     1.0000 0.06832  0.62267  0.08118  Biso   1.000  C
  H381     1.0000 0.82596  0.32573  0.16942  Biso   1.000  H
  H382     1.0000 0.81055  0.29274  0.09113  Biso   1.000  H
  C467     1.0000 0.77445  0.30879  0.12490  Biso   1.000  C
  H383     1.0000 0.93095  0.34575  0.04171  Biso   1.000  H
  H384     1.0000 0.96666  0.44183  0.69076  Biso   1.000  H
  C468     1.0000 0.97996  0.41503  0.79913  Biso   1.000  C
  C469     1.0000 0.99286  0.38233  0.93960  Biso   1.000  C
  H385     1.0000 0.01677  0.64364  0.64824  Biso   1.000  H
  H386     1.0000 0.04797  0.66144  0.56538  Biso   1.000  H
  C470     1.0000 0.00022  0.62881  0.49503  Biso   1.000  C
  O66      1.0000 0.98547  0.57270  0.23279  Biso   1.000  O
  C471     1.0000 0.04215  0.57417  0.25229  Biso   1.000  C
  C472     1.0000 0.08323  0.64711  0.99438  Biso   1.000  C
  C473     1.0000 0.09103  0.61176  0.13220  Biso   1.000  C
  H387     1.0000 0.76076  0.29923  0.05952  Biso   1.000  H
  H388     1.0000 0.76324  0.29073  0.18017  Biso   1.000  H
  C474     1.0000 0.77241  0.34086  0.15755  Biso   1.000  C
  O67      1.0000 0.01452  0.42732  0.76729  Biso   1.000  O
  H389     1.0000 0.97981  0.35887  0.97249  Biso   1.000  H
  H390     1.0000 0.00993  0.38227  0.88922  Biso   1.000  H
  O68      1.0000 0.01083  0.40902  0.01949  Biso   1.000  O
  H391     1.0000 0.99456  0.64743  0.48436  Biso   1.000  H
  H392     1.0000 0.97884  0.60693  0.51324  Biso   1.000  H
  H393     1.0000 0.01017  0.62544  0.43021  Biso   1.000  H
  C475     1.0000 0.97050  0.54507  0.31181  Biso   1.000  C
  C476     1.0000 0.07631  0.58705  0.21867  Biso   1.000  C
  H394     1.0000 0.03334  0.55817  0.30924  Biso   1.000  H
  H395     1.0000 0.06904  0.65428  0.95829  Biso   1.000  H
  C477     1.0000 0.11759  0.66021  0.96270  Biso   1.000  C
  C478     1.0000 0.12663  0.62539  0.09779  Biso   1.000  C
  H396     1.0000 0.78617  0.36004  0.10717  Biso   1.000  H
  H397     1.0000 0.74776  0.33525  0.15338  Biso   1.000  H
  C479     1.0000 0.78557  0.35315  0.26376  Biso   1.000  C
  C480     1.0000 0.02950  0.45492  0.68827  Biso   1.000  C
  C481     1.0000 0.03426  0.40293  0.08704  Biso   1.000  C
  C482     1.0000 0.93481  0.54395  0.35456  Biso   1.000  C
  H398     1.0000 0.09043  0.57946  0.25317  Biso   1.000  H
  H399     1.0000 0.12663  0.67659  0.90663  Biso   1.000  H
  C483     1.0000 0.13979  0.64936  0.01356  Biso   1.000  C
  C484     1.0000 0.14998  0.61318  0.15121  Biso   1.000  C
  H400     1.0000 0.78346  0.37375  0.27988  Biso   1.000  H
  H401     1.0000 0.81007  0.35935  0.26801  Biso   1.000  H
  H402     1.0000 0.77174  0.33453  0.31438  Biso   1.000  H
  C485     1.0000 0.06520  0.45607  0.64544  Biso   1.000  C
  C486     1.0000 0.05643  0.43742  0.14664  Biso   1.000  C
  H403     1.0000 0.02053  0.38348  0.13677  Biso   1.000  H
  H404     1.0000 0.04933  0.39697  0.04436  Biso   1.000  H
  C487     1.0000 0.91658  0.52573  0.26737  Biso   1.000  C
  C488     1.0000 0.91233  0.54387  0.34029  Biso   1.000  C
  O69      1.0000 0.17425  0.66112  0.98372  Biso   1.000  O
  O70      1.0000 0.13842  0.57767  0.11447  Biso   1.000  O
  H405     1.0000 0.14762  0.61337  0.22854  Biso   1.000  H
  H406     1.0000 0.17483  0.62897  0.13228  Biso   1.000  H
  C489     1.0000 0.08339  0.47427  0.73263  Biso   1.000  C
  C490     1.0000 0.08766  0.45615  0.65971  Biso   1.000  C
  C491     1.0000 0.04071  0.44522  0.23127  Biso   1.000  C
  C492     1.0000 0.09098  0.46347  0.11118  Biso   1.000  C
  C493     1.0000 0.87413  0.52717  0.30948  Biso   1.000  C
  C494     1.0000 0.18873  0.68490  0.89371  Biso   1.000  C
  C495     1.0000 0.15812  0.56281  0.16244  Biso   1.000  C
  C496     1.0000 0.12586  0.47285  0.69052  Biso   1.000  C
  O71      1.0000 0.00737  0.41904  0.26159  Biso   1.000  O
  C497     1.0000 0.05823  0.47905  0.28181  Biso   1.000  C
  C498     1.0000 0.10949  0.45770  0.02623  Biso   1.000  C
  C499     1.0000 0.10849  0.49805  0.16036  Biso   1.000  C
  H407     1.0000 0.17402  0.67426  0.83058  Biso   1.000  H
  H408     1.0000 0.18944  0.70729  0.90887  Biso   1.000  H
  C500     1.0000 0.22552  0.69120  0.87510  Biso   1.000  C
  H409     1.0000 0.18324  0.57668  0.14295  Biso   1.000  H
  H410     1.0000 0.15622  0.56276  0.24009  Biso   1.000  H
  C501     1.0000 0.14196  0.52527  0.12049  Biso   1.000  C
  C502     1.0000 0.99119  0.42369  0.35521  Biso   1.000  C
  H411     1.0000 0.04753  0.48386  0.33916  Biso   1.000  H
  C503     1.0000 0.09085  0.50454  0.24587  Biso   1.000  C
  C504     1.0000 0.14184  0.48338  0.99053  Biso   1.000  C
  H412     1.0000 0.09893  0.43528  0.99398  Biso   1.000  H
  H413     1.0000 0.23922  0.70077  0.94048  Biso   1.000  H
  H414     1.0000 0.23673  0.70926  0.81991  Biso   1.000  H
  C505     1.0000 0.22758  0.65916  0.84253  Biso   1.000  C
  C506     1.0000 0.15802  0.51801  0.03586  Biso   1.000  C
  H415     1.0000 0.98191  0.43956  0.34029  Biso   1.000  H
  C507     1.0000 0.96136  0.38727  0.38609  Biso   1.000  C
  H416     1.0000 0.00854  0.43387  0.41280  Biso   1.000  H
  H417     1.0000 0.10195  0.52688  0.27844  Biso   1.000  H
  H418     1.0000 0.15343  0.47828  0.93631  Biso   1.000  H
  H419     1.0000 0.21384  0.63998  0.89291  Biso   1.000  H
  H420     1.0000 0.25223  0.66478  0.84670  Biso   1.000  H
  C508     1.0000 0.21442  0.64687  0.73632  Biso   1.000  C
  O72      1.0000 0.18887  0.54598  0.99607  Biso   1.000  O
  H421     1.0000 0.94873  0.38978  0.44665  Biso   1.000  H
  H422     1.0000 0.94462  0.37757  0.32681  Biso   1.000  H
  C509     1.0000 0.97306  0.36087  0.41529  Biso   1.000  C
  H423     1.0000 0.21652  0.62627  0.72020  Biso   1.000  H
  H424     1.0000 0.18994  0.64067  0.73199  Biso   1.000  H
  H425     1.0000 0.22823  0.66547  0.68571  Biso   1.000  H
  C510     1.0000 0.21101  0.53968  0.92468  Biso   1.000  C
  H426     1.0000 0.98322  0.35638  0.35176  Biso   1.000  H
  H427     1.0000 0.95202  0.33856  0.43470  Biso   1.000  H
  C511     1.0000 0.99977  0.37121  0.50497  Biso   1.000  C
  H428     1.0000 0.21693  0.52276  0.95628  Biso   1.000  H
  H429     1.0000 0.19864  0.52987  0.85753  Biso   1.000  H
  C512     1.0000 0.24439  0.57487  0.90558  Biso   1.000  C
  H430     1.0000 0.98982  0.37458  0.56979  Biso   1.000  H
  H431     1.0000 0.00542  0.35256  0.51572  Biso   1.000  H
  H432     1.0000 0.02114  0.39307  0.48676  Biso   1.000  H
  C513     1.0000 0.26352  0.60028  0.99358  Biso   1.000  C
  C514     1.0000 0.26493  0.58138  0.02126  Biso   1.000  C
  C515     1.0000 0.29762  0.62117  0.00505  Biso   1.000  C
  C516     1.0000 0.27524  0.58617  0.07765  Biso   1.000  C
  C517     1.0000 0.53434  0.22554  0.12490  Biso   1.000  C
  C518     1.0000 0.50384  0.18875  0.10637  Biso   1.000  C
  H433     1.0000 0.53846  0.23924  0.05952  Biso   1.000  H
  H434     1.0000 0.52746  0.23673  0.18017  Biso   1.000  H
  C519     1.0000 0.56843  0.22759  0.15755  Biso   1.000  C
  O73      1.0000 0.51313  0.17424  0.01628  Biso   1.000  O
  H435     1.0000 0.49976  0.17402  0.16942  Biso   1.000  H
  H436     1.0000 0.48216  0.18944  0.09113  Biso   1.000  H
  H437     1.0000 0.57386  0.21383  0.10717  Biso   1.000  H
  H438     1.0000 0.58746  0.25223  0.15338  Biso   1.000  H
  C520     1.0000 0.56757  0.21445  0.26376  Biso   1.000  C
  C521     1.0000 0.49042  0.13980  0.98644  Biso   1.000  C
  H439     1.0000 0.59025  0.21653  0.27988  Biso   1.000  H
  H440     1.0000 0.54926  0.18995  0.26801  Biso   1.000  H
  H441     1.0000 0.56276  0.22824  0.31438  Biso   1.000  H
  C522     1.0000 0.45739  0.11759  0.03730  Biso   1.000  C
  C523     1.0000 0.50124  0.12662  0.90229  Biso   1.000  C
  C524     1.0000 0.43613  0.08323  0.00562  Biso   1.000  C
  H442     1.0000 0.45006  0.12662  0.09345  Biso   1.000  H
  C525     1.0000 0.47926  0.09103  0.86788  Biso   1.000  C
  C526     1.0000 0.53679  0.14998  0.84887  Biso   1.000  C
  H443     1.0000 0.41476  0.06904  0.04171  Biso   1.000  H
  C527     1.0000 0.44566  0.06832  0.91890  Biso   1.000  C
  C528     1.0000 0.48927  0.07631  0.78133  Biso   1.000  C
  O74      1.0000 0.56078  0.13843  0.88553  Biso   1.000  O
  H444     1.0000 0.53425  0.14762  0.77146  Biso   1.000  H
  H445     1.0000 0.54586  0.17482  0.86780  Biso   1.000  H
  C529     1.0000 0.42362  0.03246  0.88304  Biso   1.000  C
  H446     1.0000 0.51096  0.09044  0.74683  Biso   1.000  H
  C530     1.0000 0.46799  0.04216  0.74779  Biso   1.000  C
  C531     1.0000 0.59529  0.15812  0.83756  Biso   1.000  C
  C532     1.0000 0.43505  0.02001  0.79913  Biso   1.000  C
  C533     1.0000 0.38946  0.00713  0.93960  Biso   1.000  C
  H447     1.0000 0.47517  0.03335  0.69076  Biso   1.000  H
  H448     1.0000 0.60655  0.18324  0.85705  Biso   1.000  H
  H449     1.0000 0.59346  0.15623  0.75999  Biso   1.000  H
  C534     1.0000 0.61669  0.14196  0.87959  Biso   1.000  C
  O75      1.0000 0.41279  0.98549  0.76729  Biso   1.000  O
  H450     1.0000 0.37233  0.99009  0.88922  Biso   1.000  H
  O76      1.0000 0.39818  0.98918  0.01949  Biso   1.000  O
  H451     1.0000 0.37904  0.02017  0.97249  Biso   1.000  H
  C535     1.0000 0.64003  0.15804  0.96414  Biso   1.000  C
  C536     1.0000 0.61045  0.10851  0.83964  Biso   1.000  C
  C537     1.0000 0.42544  0.97053  0.68827  Biso   1.000  C
  C538     1.0000 0.36866  0.96577  0.08704  Biso   1.000  C
  O77      1.0000 0.64288  0.18888  0.00393  Biso   1.000  O
  C539     1.0000 0.65847  0.14185  0.00955  Biso   1.000  C
  C540     1.0000 0.58631  0.09087  0.75413  Biso   1.000  C
  C541     1.0000 0.62753  0.09098  0.88890  Biso   1.000  C
  C542     1.0000 0.39086  0.93483  0.64544  Biso   1.000  C
  C543     1.0000 0.38098  0.94357  0.14664  Biso   1.000  C
  H452     1.0000 0.36293  0.97948  0.13677  Biso   1.000  H
  H453     1.0000 0.34762  0.95068  0.04436  Biso   1.000  H
  C544     1.0000 0.67134  0.21100  0.07532  Biso   1.000  C
  H454     1.0000 0.67515  0.15342  0.06377  Biso   1.000  H
  C545     1.0000 0.65180  0.10950  0.97377  Biso   1.000  C
  C546     1.0000 0.57918  0.05825  0.71827  Biso   1.000  C
  H455     1.0000 0.57507  0.10193  0.72156  Biso   1.000  H
  C547     1.0000 0.61902  0.05643  0.85336  Biso   1.000  C
  C548     1.0000 0.39087  0.91661  0.73263  Biso   1.000  C
  C549     1.0000 0.36847  0.91236  0.65971  Biso   1.000  C
  C550     1.0000 0.40449  0.95931  0.23127  Biso   1.000  C
  C551     1.0000 0.37247  0.90902  0.11118  Biso   1.000  C
  H456     1.0000 0.69416  0.21693  0.04372  Biso   1.000  H
  H457     1.0000 0.66877  0.19863  0.14255  Biso   1.000  H
  C552     1.0000 0.66952  0.24437  0.09442  Biso   1.000  C
  H458     1.0000 0.66367  0.09894  0.00602  Biso   1.000  H
  C553     1.0000 0.59550  0.04072  0.76873  Biso   1.000  C
  H459     1.0000 0.56367  0.04753  0.66084  Biso   1.000  H
  C554     1.0000 0.63133  0.03425  0.91296  Biso   1.000  C
  C555     1.0000 0.34696  0.87415  0.69052  Biso   1.000  C
  O78      1.0000 0.41167  0.99265  0.26159  Biso   1.000  O
  C556     1.0000 0.42081  0.94178  0.28181  Biso   1.000  C
  C557     1.0000 0.34819  0.89053  0.02623  Biso   1.000  C
  C558     1.0000 0.38954  0.89152  0.16036  Biso   1.000  C
  C559     1.0000 0.66327  0.26353  0.00642  Biso   1.000  C
  C560     1.0000 0.68357  0.26495  0.97874  Biso   1.000  C
  O79      1.0000 0.58834  0.00737  0.73849  Biso   1.000  O
  O80      1.0000 0.60181  0.01085  0.98051  Biso   1.000  O
  H460     1.0000 0.63705  0.02052  0.86323  Biso   1.000  H
  H461     1.0000 0.65235  0.04932  0.95564  Biso   1.000  H
  C561     1.0000 0.43247  0.00879  0.35521  Biso   1.000  C
  H462     1.0000 0.43634  0.95249  0.33916  Biso   1.000  H
  C562     1.0000 0.41368  0.90915  0.24587  Biso   1.000  C
  C563     1.0000 0.34154  0.85817  0.99053  Biso   1.000  C
  H463     1.0000 0.33634  0.90109  0.99398  Biso   1.000  H
  C564     1.0000 0.38332  0.85807  0.12049  Biso   1.000  C
  C565     1.0000 0.67645  0.29763  0.99495  Biso   1.000  C
  C566     1.0000 0.68906  0.27524  0.92235  Biso   1.000  C
  C567     1.0000 0.56751  0.99121  0.64487  Biso   1.000  C
  C568     1.0000 0.61052  0.99287  0.06040  Biso   1.000  C
  H464     1.0000 0.45763  0.01806  0.34029  Biso   1.000  H
  C569     1.0000 0.42589  0.03864  0.38609  Biso   1.000  C
  H465     1.0000 0.42534  0.99148  0.41280  Biso   1.000  H
  H466     1.0000 0.42493  0.89809  0.27844  Biso   1.000  H
  H467     1.0000 0.32482  0.84658  0.93631  Biso   1.000  H
  C570     1.0000 0.35996  0.84198  0.03586  Biso   1.000  C
  C571     1.0000 0.40470  0.84190  0.16244  Biso   1.000  C
  H468     1.0000 0.54235  0.98194  0.65971  Biso   1.000  H
  C572     1.0000 0.57412  0.96139  0.61399  Biso   1.000  C
  H469     1.0000 0.57466  0.00852  0.58728  Biso   1.000  H
  H470     1.0000 0.62766  0.00994  0.11086  Biso   1.000  H
  C573     1.0000 0.57637  0.96756  0.11696  Biso   1.000  C
  H471     1.0000 0.62098  0.97985  0.02751  Biso   1.000  H
  H472     1.0000 0.44103  0.05127  0.44665  Biso   1.000  H
  H473     1.0000 0.43291  0.05536  0.32681  Biso   1.000  H
  C574     1.0000 0.38779  0.02693  0.41529  Biso   1.000  C
  O81      1.0000 0.35711  0.81115  0.99607  Biso   1.000  O
  O82      1.0000 0.43922  0.86157  0.11447  Biso   1.000  O
  H474     1.0000 0.39344  0.81679  0.14295  Biso   1.000  H
  H475     1.0000 0.40654  0.84377  0.24009  Biso   1.000  H
  H476     1.0000 0.55896  0.94875  0.55335  Biso   1.000  H
  H477     1.0000 0.56706  0.94464  0.67327  Biso   1.000  H
  C575     1.0000 0.61220  0.97309  0.58479  Biso   1.000  C
  C576     1.0000 0.56493  0.97999  0.20087  Biso   1.000  C
  C577     1.0000 0.55433  0.93171  0.08118  Biso   1.000  C
  H478     1.0000 0.37313  0.01678  0.35176  Biso   1.000  H
  H479     1.0000 0.38652  0.04796  0.43470  Biso   1.000  H
  C578     1.0000 0.37142  0.00021  0.50497  Biso   1.000  C
  C579     1.0000 0.32864  0.78900  0.92468  Biso   1.000  C
  C580     1.0000 0.46318  0.85002  0.15121  Biso   1.000  C
  H480     1.0000 0.62686  0.98325  0.64824  Biso   1.000  H
  H481     1.0000 0.61345  0.95204  0.56538  Biso   1.000  H
  C581     1.0000 0.62859  0.99981  0.49503  Biso   1.000  C
  O83      1.0000 0.58720  0.01454  0.23279  Biso   1.000  O
  C582     1.0000 0.53200  0.95786  0.25229  Biso   1.000  C
  C583     1.0000 0.56388  0.91680  0.99438  Biso   1.000  C
  C584     1.0000 0.52072  0.90897  0.13220  Biso   1.000  C
  H482     1.0000 0.38473  0.01018  0.56979  Biso   1.000  H
  H483     1.0000 0.34713  0.99458  0.51572  Biso   1.000  H
  H484     1.0000 0.37193  0.97889  0.48676  Biso   1.000  H
  H485     1.0000 0.30583  0.78309  0.95628  Biso   1.000  H
  H486     1.0000 0.33123  0.80137  0.85753  Biso   1.000  H
  C585     1.0000 0.33046  0.75563  0.90558  Biso   1.000  C
  C586     1.0000 0.49874  0.87338  0.09779  Biso   1.000  C
  H487     1.0000 0.46572  0.85238  0.22854  Biso   1.000  H
  H488     1.0000 0.45414  0.82518  0.13228  Biso   1.000  H
  H489     1.0000 0.61526  0.98985  0.43021  Biso   1.000  H
  H490     1.0000 0.65285  0.00542  0.48436  Biso   1.000  H
  H491     1.0000 0.62806  0.02113  0.51324  Biso   1.000  H
  C587     1.0000 0.57457  0.02950  0.31181  Biso   1.000  C
  C588     1.0000 0.51074  0.92372  0.21867  Biso   1.000  C
  H492     1.0000 0.52482  0.96668  0.30924  Biso   1.000  H
  H493     1.0000 0.58523  0.93098  0.95829  Biso   1.000  H
  C589     1.0000 0.54259  0.88241  0.96270  Biso   1.000  C
  C590     1.0000 0.33673  0.73647  0.99358  Biso   1.000  C
  C591     1.0000 0.31644  0.73508  0.02126  Biso   1.000  C
  C592     1.0000 0.50957  0.86023  0.01356  Biso   1.000  C
  C593     1.0000 0.60913  0.06520  0.35456  Biso   1.000  C
  H494     1.0000 0.48903  0.90958  0.25317  Biso   1.000  H
  H495     1.0000 0.54992  0.87338  0.90663  Biso   1.000  H
  C594     1.0000 0.32353  0.70237  0.00505  Biso   1.000  C
  C595     1.0000 0.31095  0.72479  0.07765  Biso   1.000  C
  O84      1.0000 0.48686  0.82579  0.98372  Biso   1.000  O
  C596     1.0000 0.60912  0.08342  0.26737  Biso   1.000  C
  C597     1.0000 0.63152  0.08767  0.34029  Biso   1.000  C
  C598     1.0000 0.49615  0.81128  0.89371  Biso   1.000  C
  C599     1.0000 0.65303  0.12587  0.30948  Biso   1.000  C
  H496     1.0000 0.50024  0.82598  0.83058  Biso   1.000  H
  H497     1.0000 0.51783  0.81059  0.90887  Biso   1.000  H
  C600     1.0000 0.46568  0.77449  0.87510  Biso   1.000  C
  H498     1.0000 0.46153  0.76078  0.94048  Biso   1.000  H
  H499     1.0000 0.47251  0.76327  0.81991  Biso   1.000  H
  C601     1.0000 0.43156  0.77243  0.84253  Biso   1.000  C
  H500     1.0000 0.42613  0.78619  0.89291  Biso   1.000  H
  H501     1.0000 0.41252  0.74777  0.84670  Biso   1.000  H
  C602     1.0000 0.43244  0.78558  0.73632  Biso   1.000  C
  H502     1.0000 0.40973  0.78347  0.72020  Biso   1.000  H
  H503     1.0000 0.45073  0.81008  0.73199  Biso   1.000  H
  H504     1.0000 0.43723  0.77179  0.68571  Biso   1.000  H
  C603     1.0000 0.71216  0.34313  0.67175  Biso   1.000  C
  C604     1.0000 0.73305  0.32993  0.66028  Biso   1.000  C
  C605     1.0000 0.75195  0.35024  0.68795  Biso   1.000  C
  C606     1.0000 0.74716  0.35574  0.74434  Biso   1.000  C
  C607     1.0000 0.75847  0.33621  0.57228  Biso   1.000  C
  C608     1.0000 0.79367  0.33803  0.59137  Biso   1.000  C
  O85      1.0000 0.78733  0.30957  0.66276  Biso   1.000  O
  H505     1.0000 0.81056  0.36084  0.62297  Biso   1.000  H
  H506     1.0000 0.80346  0.33543  0.52415  Biso   1.000  H
  C609     1.0000 0.81530  0.30668  0.70255  Biso   1.000  C
  C610     1.0000 0.80806  0.28336  0.78718  Biso   1.000  C
  C611     1.0000 0.84996  0.32515  0.65715  Biso   1.000  C
  C612     1.0000 0.77049  0.26196  0.82914  Biso   1.000  C
  C613     1.0000 0.83528  0.27713  0.82705  Biso   1.000  C
  H507     1.0000 0.85507  0.34185  0.60292  Biso   1.000  H
  C614     1.0000 0.87564  0.31847  0.69292  Biso   1.000  C
  O86      1.0000 0.75566  0.22743  0.78116  Biso   1.000  O
  H508     1.0000 0.75665  0.27323  0.80964  Biso   1.000  H
  H509     1.0000 0.77056  0.26014  0.90679  Biso   1.000  H
  C615     1.0000 0.82878  0.25298  0.91256  Biso   1.000  C
  C616     1.0000 0.86987  0.29421  0.77788  Biso   1.000  C
  H510     1.0000 0.89804  0.33033  0.66068  Biso   1.000  H
  C617     1.0000 0.72015  0.20347  0.81782  Biso   1.000  C
  C618     1.0000 0.85425  0.24584  0.94850  Biso   1.000  C
  H511     1.0000 0.80645  0.24173  0.94513  Biso   1.000  H
  C619     1.0000 0.89591  0.28571  0.81333  Biso   1.000  C
  C620     1.0000 0.70795  0.16793  0.76448  Biso   1.000  C
  H512     1.0000 0.71996  0.20093  0.89524  Biso   1.000  H
  H513     1.0000 0.70436  0.21253  0.79897  Biso   1.000  H
  C621     1.0000 0.88812  0.26217  0.89796  Biso   1.000  C
  H514     1.0000 0.84947  0.23035  0.00586  Biso   1.000  H
  C622     1.0000 0.93040  0.29800  0.75373  Biso   1.000  C
  C623     1.0000 0.68399  0.15711  0.68025  Biso   1.000  C
  C624     1.0000 0.72156  0.14594  0.79889  Biso   1.000  C
  O87      1.0000 0.91430  0.25501  0.92828  Biso   1.000  O
  O88      1.0000 0.92429  0.26848  0.68619  Biso   1.000  O
  H515     1.0000 0.94987  0.30374  0.80347  Biso   1.000  H
  H516     1.0000 0.93636  0.31903  0.71105  Biso   1.000  H
  O89      1.0000 0.67221  0.17979  0.65041  Biso   1.000  O
  C625     1.0000 0.67313  0.12406  0.62939  Biso   1.000  C
  C626     1.0000 0.71067  0.11233  0.74787  Biso   1.000  C
  C627     1.0000 0.74629  0.15593  0.88537  Biso   1.000  C
  C628     1.0000 0.90963  0.23419  0.02182  Biso   1.000  C
  C629     1.0000 0.95099  0.27721  0.60629  Biso   1.000  C
  C630     1.0000 0.64843  0.17050  0.56032  Biso   1.000  C
  C631     1.0000 0.68624  0.10279  0.66108  Biso   1.000  C
  H517     1.0000 0.65677  0.11674  0.57324  Biso   1.000  H
  C632     1.0000 0.72450  0.09028  0.78365  Biso   1.000  C
  H518     1.0000 0.75385  0.17763  0.91986  Biso   1.000  H
  C633     1.0000 0.75917  0.13467  0.91898  Biso   1.000  C
  H519     1.0000 0.89945  0.24133  0.07942  Biso   1.000  H
  H520     1.0000 0.89376  0.20902  0.00690  Biso   1.000  H
  C634     1.0000 0.94606  0.24079  0.05270  Biso   1.000  C
  C635     1.0000 0.94214  0.24304  0.54974  Biso   1.000  C
  H521     1.0000 0.95106  0.29434  0.55583  Biso   1.000  H
  H522     1.0000 0.97446  0.28763  0.63918  Biso   1.000  H
  C636     1.0000 0.64213  0.20098  0.54171  Biso   1.000  C
  H523     1.0000 0.65905  0.16643  0.49727  Biso   1.000  H
  H524     1.0000 0.62605  0.14883  0.57557  Biso   1.000  H
  H525     1.0000 0.67906  0.08144  0.62498  Biso   1.000  H
  C637     1.0000 0.74836  0.10172  0.86756  Biso   1.000  C
  C638     1.0000 0.71564  0.05614  0.72710  Biso   1.000  C
  H526     1.0000 0.77515  0.14183  0.97593  Biso   1.000  H
  H527     1.0000 0.95575  0.23374  0.99350  Biso   1.000  H
  H528     1.0000 0.94356  0.22564  0.11335  Biso   1.000  H
  C639     1.0000 0.97247  0.27890  0.08190  Biso   1.000  C
  C640     1.0000 0.91828  0.23160  0.46583  Biso   1.000  C
  C641     1.0000 0.95597  0.22100  0.58551  Biso   1.000  C
  H529     1.0000 0.63256  0.20512  0.60717  Biso   1.000  H
  H530     1.0000 0.62406  0.19414  0.48652  Biso   1.000  H
  C642     1.0000 0.67418  0.23510  0.50914  Biso   1.000  C
  O90      1.0000 0.76065  0.07946  0.89949  Biso   1.000  O
  O91      1.0000 0.74235  0.06485  0.64720  Biso   1.000  O
  H531     1.0000 0.71560  0.03901  0.77755  Biso   1.000  H
  H532     1.0000 0.69219  0.04569  0.69421  Biso   1.000  H
  H533     1.0000 0.97695  0.29354  0.01845  Biso   1.000  H
  H534     1.0000 0.99475  0.28012  0.10132  Biso   1.000  H
  C643     1.0000 0.96211  0.29525  0.17167  Biso   1.000  C
  O92      1.0000 0.90601  0.25389  0.43390  Biso   1.000  O
  C644     1.0000 0.90749  0.19868  0.41441  Biso   1.000  C
  C645     1.0000 0.98041  0.23053  0.67231  Biso   1.000  C
  C646     1.0000 0.94509  0.18738  0.53449  Biso   1.000  C
  H535     1.0000 0.69335  0.24053  0.55952  Biso   1.000  H
  H536     1.0000 0.66856  0.25413  0.51332  Biso   1.000  H
  C647     1.0000 0.68646  0.23425  0.40294  Biso   1.000  C
  C648     1.0000 0.78826  0.09210  0.97850  Biso   1.000  C
  C649     1.0000 0.73626  0.03535  0.57966  Biso   1.000  C
  H537     1.0000 0.98076  0.31954  0.18234  Biso   1.000  H
  H538     1.0000 0.94025  0.29474  0.15346  Biso   1.000  H
  H539     1.0000 0.95875  0.28194  0.23640  Biso   1.000  H
  C650     1.0000 0.87840  0.24125  0.35489  Biso   1.000  C
  C651     1.0000 0.92036  0.17739  0.44802  Biso   1.000  C
  H540     1.0000 0.89150  0.19150  0.35737  Biso   1.000  H
  H541     1.0000 0.98758  0.25191  0.70841  Biso   1.000  H
  C652     1.0000 0.99352  0.20927  0.70399  Biso   1.000  C
  C653     1.0000 0.95871  0.16542  0.56891  Biso   1.000  C
  H542     1.0000 0.70706  0.25693  0.38681  Biso   1.000  H
  H543     1.0000 0.69267  0.21595  0.39868  Biso   1.000  H
  H544     1.0000 0.66786  0.22944  0.35232  Biso   1.000  H
  C654     1.0000 0.78937  0.05753  0.02126  Biso   1.000  C
  C655     1.0000 0.77075  0.04764  0.52005  Biso   1.000  C
  H545     1.0000 0.71679  0.02960  0.52992  Biso   1.000  H
  H546     1.0000 0.73029  0.01429  0.62233  Biso   1.000  H
  C656     1.0000 0.87726  0.27580  0.31213  Biso   1.000  C
  H547     1.0000 0.91279  0.15569  0.41352  Biso   1.000  H
  C657     1.0000 0.98267  0.17624  0.65314  Biso   1.000  C
  H548     1.0000 0.00989  0.21661  0.76015  Biso   1.000  H
  C658     1.0000 0.94650  0.12986  0.51548  Biso   1.000  C
  C659     1.0000 0.80760  0.05753  0.93406  Biso   1.000  C
  C660     1.0000 0.78946  0.03514  0.00690  Biso   1.000  C
  C661     1.0000 0.77852  0.07115  0.43542  Biso   1.000  C
  C662     1.0000 0.79679  0.03914  0.55551  Biso   1.000  C
  C663     1.0000 0.85905  0.27580  0.39933  Biso   1.000  C
  C664     1.0000 0.87720  0.29821  0.32641  Biso   1.000  C
  O93      1.0000 0.99441  0.15353  0.68298  Biso   1.000  O
  O94      1.0000 0.91099  0.10589  0.55222  Biso   1.000  O
  H549     1.0000 0.94668  0.13239  0.43815  Biso   1.000  H
  H550     1.0000 0.96229  0.12080  0.53441  Biso   1.000  H
  C665     1.0000 0.80615  0.01363  0.97618  Biso   1.000  C
  O95      1.0000 0.75236  0.07834  0.40510  Biso   1.000  O
  C666     1.0000 0.81237  0.08748  0.38489  Biso   1.000  C
  C667     1.0000 0.79101  0.01486  0.64038  Biso   1.000  C
  C668     1.0000 0.83136  0.05622  0.50634  Biso   1.000  C
  C669     1.0000 0.86049  0.31970  0.35721  Biso   1.000  C
  C670     1.0000 0.01822  0.16283  0.77306  Biso   1.000  C
  C671     1.0000 0.89613  0.07137  0.50425  Biso   1.000  C
  C672     1.0000 0.75701  0.09916  0.31149  Biso   1.000  C
  H551     1.0000 0.81719  0.10300  0.32753  Biso   1.000  H
  C673     1.0000 0.83787  0.08034  0.42082  Biso   1.000  C
  C674     1.0000 0.81670  0.00820  0.67624  Biso   1.000  C
  H552     1.0000 0.76858  0.00299  0.67271  Biso   1.000  H
  C675     1.0000 0.85860  0.04999  0.54621  Biso   1.000  C
  H553     1.0000 0.00759  0.16689  0.83611  Biso   1.000  H
  H554     1.0000 0.04060  0.18450  0.75782  Biso   1.000  H
  C676     1.0000 0.02452  0.13234  0.79159  Biso   1.000  C
  H555     1.0000 0.90998  0.06009  0.52374  Biso   1.000  H
  H556     1.0000 0.89610  0.07321  0.42660  Biso   1.000  H
  H557     1.0000 0.76719  0.09199  0.25389  Biso   1.000  H
  H558     1.0000 0.77289  0.12430  0.32641  Biso   1.000  H
  C677     1.0000 0.72059  0.09256  0.28060  Biso   1.000  C
  H559     1.0000 0.86020  0.09159  0.38818  Biso   1.000  H
  C678     1.0000 0.85132  0.02664  0.63084  Biso   1.000  C
  H560     1.0000 0.81159  0.99150  0.73039  Biso   1.000  H
  C679     1.0000 0.99246  0.09822  0.82424  Biso   1.000  C
  H561     1.0000 0.03411  0.12820  0.72622  Biso   1.000  H
  H562     1.0000 0.04260  0.13921  0.84686  Biso   1.000  H
  H563     1.0000 0.72310  0.10771  0.22004  Biso   1.000  H
  H564     1.0000 0.71089  0.09961  0.33988  Biso   1.000  H
  C680     1.0000 0.69419  0.05445  0.25140  Biso   1.000  C
  O96      1.0000 0.87930  0.02378  0.67062  Biso   1.000  O
  H565     1.0000 0.97328  0.09280  0.77386  Biso   1.000  H
  H566     1.0000 0.99809  0.07920  0.81999  Biso   1.000  H
  C681     1.0000 0.98018  0.09910  0.93045  Biso   1.000  C
  H567     1.0000 0.68969  0.03981  0.31494  Biso   1.000  H
  H568     1.0000 0.67190  0.05320  0.23199  Biso   1.000  H
  C682     1.0000 0.70453  0.03807  0.16172  Biso   1.000  C
  C683     1.0000 0.87297  0.99532  0.74202  Biso   1.000  C
  H569     1.0000 0.95959  0.07639  0.94649  Biso   1.000  H
  H570     1.0000 0.97399  0.11740  0.93470  Biso   1.000  H
  H571     1.0000 0.99880  0.10391  0.98107  Biso   1.000  H
  H572     1.0000 0.68589  0.01379  0.15097  Biso   1.000  H
  H573     1.0000 0.72639  0.03861  0.17993  Biso   1.000  H
  H574     1.0000 0.70789  0.05141  0.09690  Biso   1.000  H
  H575     1.0000 0.85610  0.97251  0.71041  Biso   1.000  H
  H576     1.0000 0.86320  0.99792  0.80924  Biso   1.000  H
  C684     1.0000 0.90817  0.99714  0.76111  Biso   1.000  C
  C685     1.0000 0.93358  0.00339  0.67311  Biso   1.000  C
  C686     1.0000 0.91469  0.98311  0.64544  Biso   1.000  C
  C687     1.0000 0.95450  0.99022  0.66164  Biso   1.000  C
  C688     1.0000 0.91948  0.97761  0.58904  Biso   1.000  C
  C689     1.0000 0.28782  0.65687  0.32825  Biso   1.000  C
  C690     1.0000 0.26693  0.67007  0.33980  Biso   1.000  C
  C691     1.0000 0.24804  0.64979  0.31205  Biso   1.000  C
  C692     1.0000 0.25283  0.64428  0.25566  Biso   1.000  C
  C693     1.0000 0.24152  0.66381  0.42780  Biso   1.000  C
  C694     1.0000 0.20632  0.66200  0.40871  Biso   1.000  C
  O97      1.0000 0.21265  0.69045  0.33732  Biso   1.000  O
  H577     1.0000 0.18942  0.63918  0.37711  Biso   1.000  H
  H578     1.0000 0.19652  0.66456  0.47585  Biso   1.000  H
  C695     1.0000 0.18467  0.69331  0.29745  Biso   1.000  C
  C696     1.0000 0.19193  0.71666  0.21290  Biso   1.000  C
  C697     1.0000 0.15005  0.67488  0.34285  Biso   1.000  C
  C698     1.0000 0.22948  0.73804  0.17086  Biso   1.000  C
  C699     1.0000 0.16471  0.72289  0.17295  Biso   1.000  C
  H579     1.0000 0.14494  0.65818  0.39708  Biso   1.000  H
  C700     1.0000 0.12436  0.68153  0.30708  Biso   1.000  C
  O98      1.0000 0.24431  0.77256  0.21884  Biso   1.000  O
  H580     1.0000 0.24333  0.72676  0.19036  Biso   1.000  H
  H581     1.0000 0.22943  0.73988  0.09329  Biso   1.000  H
  C701     1.0000 0.17122  0.74702  0.08744  Biso   1.000  C
  C702     1.0000 0.13012  0.70582  0.22220  Biso   1.000  C
  H582     1.0000 0.10193  0.66967  0.33940  Biso   1.000  H
  C703     1.0000 0.27983  0.79653  0.18218  Biso   1.000  C
  C704     1.0000 0.14572  0.75415  0.05158  Biso   1.000  C
  H583     1.0000 0.19353  0.75827  0.05487  Biso   1.000  H
  C705     1.0000 0.10408  0.71431  0.18667  Biso   1.000  C
  C706     1.0000 0.29203  0.83209  0.23560  Biso   1.000  C
  H584     1.0000 0.28003  0.79907  0.10476  Biso   1.000  H
  H585     1.0000 0.29562  0.78747  0.20111  Biso   1.000  H
  C707     1.0000 0.11188  0.73783  0.10204  Biso   1.000  C
  H586     1.0000 0.15052  0.76968  0.99422  Biso   1.000  H
  C708     1.0000 0.06959  0.70202  0.24627  Biso   1.000  C
  C709     1.0000 0.31600  0.84291  0.31975  Biso   1.000  C
  C710     1.0000 0.27842  0.85406  0.20119  Biso   1.000  C
  O99      1.0000 0.08569  0.74501  0.07180  Biso   1.000  O
  O100     1.0000 0.07568  0.73152  0.31381  Biso   1.000  O
  H587     1.0000 0.05012  0.69628  0.19653  Biso   1.000  H
  H588     1.0000 0.06364  0.68097  0.28895  Biso   1.000  H
  O101     1.0000 0.32776  0.82020  0.34967  Biso   1.000  O
  C711     1.0000 0.32685  0.87594  0.37069  Biso   1.000  C
  C712     1.0000 0.25370  0.84409  0.11463  Biso   1.000  C
  C713     1.0000 0.28930  0.88767  0.25221  Biso   1.000  C
  C714     1.0000 0.09036  0.76583  0.97818  Biso   1.000  C
  C715     1.0000 0.04900  0.72281  0.39379  Biso   1.000  C
  C716     1.0000 0.35155  0.82950  0.43968  Biso   1.000  C
  C717     1.0000 0.31376  0.89721  0.33900  Biso   1.000  C
  H589     1.0000 0.34322  0.88329  0.42676  Biso   1.000  H
  H590     1.0000 0.24612  0.82237  0.08014  Biso   1.000  H
  C718     1.0000 0.24082  0.86536  0.08110  Biso   1.000  C
  C719     1.0000 0.27549  0.90971  0.21635  Biso   1.000  C
  H591     1.0000 0.10052  0.75867  0.92058  Biso   1.000  H
  H592     1.0000 0.10624  0.79097  0.99310  Biso   1.000  H
  C720     1.0000 0.05392  0.75923  0.94730  Biso   1.000  C
  C721     1.0000 0.05783  0.75696  0.45034  Biso   1.000  C
  H593     1.0000 0.04895  0.70568  0.44417  Biso   1.000  H
  H594     1.0000 0.02552  0.71236  0.36090  Biso   1.000  H
  H595     1.0000 0.34093  0.83359  0.50281  Biso   1.000  H
  H596     1.0000 0.37393  0.85117  0.42451  Biso   1.000  H
  C722     1.0000 0.35785  0.79901  0.45829  Biso   1.000  C
  H597     1.0000 0.32093  0.91858  0.37510  Biso   1.000  H
  H598     1.0000 0.22483  0.85817  0.02407  Biso   1.000  H
  C723     1.0000 0.25164  0.89828  0.13244  Biso   1.000  C
  C724     1.0000 0.28434  0.94389  0.27290  Biso   1.000  C
  H599     1.0000 0.04424  0.76628  0.00658  Biso   1.000  H
  H600     1.0000 0.05643  0.77438  0.88673  Biso   1.000  H
  C725     1.0000 0.02751  0.72113  0.91810  Biso   1.000  C
  C726     1.0000 0.08169  0.76839  0.53425  Biso   1.000  C
  C727     1.0000 0.04403  0.77900  0.41449  Biso   1.000  C
  H601     1.0000 0.36744  0.79487  0.39291  Biso   1.000  H
  H602     1.0000 0.37593  0.80588  0.51348  Biso   1.000  H
  C728     1.0000 0.32579  0.76489  0.49086  Biso   1.000  C
  O102     1.0000 0.23936  0.92056  0.10059  Biso   1.000  O
  O103     1.0000 0.25762  0.93515  0.35288  Biso   1.000  O
  H603     1.0000 0.28439  0.96101  0.22253  Biso   1.000  H
  H604     1.0000 0.30779  0.95431  0.30579  Biso   1.000  H
  H605     1.0000 0.02304  0.70648  0.98163  Biso   1.000  H
  H606     1.0000 0.00523  0.71987  0.89868  Biso   1.000  H
  C729     1.0000 0.03786  0.70475  0.82841  Biso   1.000  C
  O104     1.0000 0.09398  0.74614  0.56610  Biso   1.000  O
  C730     1.0000 0.09249  0.80134  0.58559  Biso   1.000  C
  C731     1.0000 0.01956  0.76946  0.32769  Biso   1.000  C
  C732     1.0000 0.05491  0.81261  0.46551  Biso   1.000  C
  H607     1.0000 0.30663  0.75947  0.44048  Biso   1.000  H
  H608     1.0000 0.33144  0.74587  0.48668  Biso   1.000  H
  C733     1.0000 0.31353  0.76577  0.59706  Biso   1.000  C
  C734     1.0000 0.21175  0.90792  0.02158  Biso   1.000  C
  C735     1.0000 0.26375  0.96467  0.42042  Biso   1.000  C
  H609     1.0000 0.01925  0.68049  0.81766  Biso   1.000  H
  H610     1.0000 0.05974  0.70528  0.84662  Biso   1.000  H
  H611     1.0000 0.04124  0.71808  0.76360  Biso   1.000  H
  C736     1.0000 0.12159  0.75877  0.64511  Biso   1.000  C
  C737     1.0000 0.07962  0.82261  0.55198  Biso   1.000  C
  H612     1.0000 0.10850  0.80850  0.64263  Biso   1.000  H
  H613     1.0000 0.01241  0.74811  0.29159  Biso   1.000  H
  C738     1.0000 0.00646  0.79073  0.29601  Biso   1.000  C
  C739     1.0000 0.04128  0.83460  0.43109  Biso   1.000  C
  H614     1.0000 0.29292  0.74306  0.61319  Biso   1.000  H
  H615     1.0000 0.30734  0.78408  0.60140  Biso   1.000  H
  H616     1.0000 0.33213  0.77058  0.64768  Biso   1.000  H
  C740     1.0000 0.21061  0.94247  0.97882  Biso   1.000  C
  C741     1.0000 0.22926  0.95238  0.48003  Biso   1.000  C
  H617     1.0000 0.28319  0.97042  0.47008  Biso   1.000  H
  H618     1.0000 0.26969  0.98570  0.37775  Biso   1.000  H
  C742     1.0000 0.12272  0.72420  0.68795  Biso   1.000  C
  H619     1.0000 0.08720  0.84430  0.58656  Biso   1.000  H
  C743     1.0000 0.01731  0.82378  0.34694  Biso   1.000  C
  H620     1.0000 0.99009  0.78341  0.23993  Biso   1.000  H
  C744     1.0000 0.05347  0.87014  0.48452  Biso   1.000  C
  C745     1.0000 0.19240  0.94247  0.06594  Biso   1.000  C
  C746     1.0000 0.21053  0.96489  0.99310  Biso   1.000  C
  C747     1.0000 0.22145  0.92884  0.56466  Biso   1.000  C
  C748     1.0000 0.20322  0.96088  0.44449  Biso   1.000  C
  C749     1.0000 0.14093  0.72420  0.60075  Biso   1.000  C
  C750     1.0000 0.12279  0.70181  0.67359  Biso   1.000  C
  O105     1.0000 0.00556  0.84647  0.31702  Biso   1.000  O
  O106     1.0000 0.08901  0.89411  0.44786  Biso   1.000  O
  H621     1.0000 0.05329  0.86760  0.56193  Biso   1.000  H
  H622     1.0000 0.03769  0.87920  0.46559  Biso   1.000  H
  C751     1.0000 0.19382  0.98637  0.02391  Biso   1.000  C
  O107     1.0000 0.24763  0.92168  0.59490  Biso   1.000  O
  C752     1.0000 0.18762  0.91254  0.61511  Biso   1.000  C
  C753     1.0000 0.20897  0.98514  0.35962  Biso   1.000  C
  C754     1.0000 0.16863  0.94381  0.49374  Biso   1.000  C
  C755     1.0000 0.13950  0.68030  0.64279  Biso   1.000  C
  C756     1.0000 0.98176  0.83717  0.22702  Biso   1.000  C
  C757     1.0000 0.10384  0.92863  0.49583  Biso   1.000  C
  C758     1.0000 0.24298  0.90087  0.68851  Biso   1.000  C
  H623     1.0000 0.18279  0.89702  0.67255  Biso   1.000  H
  C759     1.0000 0.16211  0.91965  0.57926  Biso   1.000  C
  C760     1.0000 0.18329  0.99182  0.32384  Biso   1.000  C
  H624     1.0000 0.23140  0.99700  0.32729  Biso   1.000  H
  C761     1.0000 0.14141  0.95003  0.45379  Biso   1.000  C
  H625     1.0000 0.99238  0.83311  0.16389  Biso   1.000  H
  H626     1.0000 0.95937  0.81550  0.24218  Biso   1.000  H
  C762     1.0000 0.97547  0.86768  0.20841  Biso   1.000  C
  H627     1.0000 0.09000  0.93990  0.47634  Biso   1.000  H
  H628     1.0000 0.10391  0.92681  0.57340  Biso   1.000  H
  H629     1.0000 0.23280  0.90800  0.74611  Biso   1.000  H
  H630     1.0000 0.22709  0.87570  0.67359  Biso   1.000  H
  C763     1.0000 0.27942  0.90747  0.71940  Biso   1.000  C
  H631     1.0000 0.13980  0.90840  0.61182  Biso   1.000  H
  C764     1.0000 0.14867  0.97338  0.36924  Biso   1.000  C
  H632     1.0000 0.18839  0.00849  0.26961  Biso   1.000  H
  C765     1.0000 0.00751  0.90178  0.17584  Biso   1.000  C
  H633     1.0000 0.96589  0.87180  0.27378  Biso   1.000  H
  H634     1.0000 0.95739  0.86082  0.15322  Biso   1.000  H
  H635     1.0000 0.27691  0.89232  0.78004  Biso   1.000  H
  H636     1.0000 0.28910  0.90041  0.66012  Biso   1.000  H
  C766     1.0000 0.30580  0.94557  0.74860  Biso   1.000  C
  O108     1.0000 0.12069  0.97624  0.32938  Biso   1.000  O
  H637     1.0000 0.02670  0.90720  0.22622  Biso   1.000  H
  H638     1.0000 0.00189  0.92080  0.18001  Biso   1.000  H
  C767     1.0000 0.01981  0.90092  0.06963  Biso   1.000  C
  H639     1.0000 0.31030  0.96021  0.68514  Biso   1.000  H
  H640     1.0000 0.32810  0.94680  0.76801  Biso   1.000  H
  C768     1.0000 0.29544  0.96192  0.83836  Biso   1.000  C
  C769     1.0000 0.12701  0.00467  0.25798  Biso   1.000  C
  H641     1.0000 0.04041  0.92361  0.05351  Biso   1.000  H
  H642     1.0000 0.02600  0.88262  0.06530  Biso   1.000  H
  H643     1.0000 0.00121  0.89611  0.01901  Biso   1.000  H
  H644     1.0000 0.31409  0.98621  0.84903  Biso   1.000  H
  H645     1.0000 0.27360  0.96141  0.82015  Biso   1.000  H
  H646     1.0000 0.29210  0.94861  0.90310  Biso   1.000  H
  H647     1.0000 0.14390  0.02749  0.28959  Biso   1.000  H
  H648     1.0000 0.13681  0.00211  0.19084  Biso   1.000  H
  C770     1.0000 0.09181  0.00285  0.23889  Biso   1.000  C
  C771     1.0000 0.06640  0.99660  0.32689  Biso   1.000  C
  C772     1.0000 0.08530  0.01691  0.35464  Biso   1.000  C
  C773     1.0000 0.04551  0.00980  0.33844  Biso   1.000  C
  C774     1.0000 0.08049  0.02239  0.41104  Biso   1.000  C
  Ne1      1.0000 0.16666  0.33334  0.33335  Biso   1.000  Ne
  He1      1.0000 0.18726  0.42079  0.52412  Biso   1.000  He
  He2      1.0000 0.31892  0.39947  0.48072  Biso   1.000  He
  He3      1.0000 0.04056  0.27539  0.22565  Biso   1.000  He
  He4      1.0000 0.14552  0.24371  0.13526  Biso   1.000  He
  Ar1      1.0000 0.16666  0.33334  0.33335  Biso   1.000  Ar
  Ne2      1.0000 0.33333  0.16667  0.66669  Biso   1.000  Ne
  He5      1.0000 0.24535  0.09942  0.85926  Biso   1.000  He
  He6      1.0000 0.27548  0.20531  0.73852  Biso   1.000  He
  He7      1.0000 0.39114  0.12998  0.59724  Biso   1.000  He
  He8      1.0000 0.45508  0.23956  0.15658  Biso   1.000  He
  Ar2      1.0000 0.33333  0.16667  0.66670  Biso   1.000  Ar
  Ne3      1.0000 0.49999  0.50001  0.00001  Biso   1.000  Ne
  He9      1.0000 0.56656  0.47952  0.18950  Biso   1.000  He
  He10     1.0000 0.42941  0.37150  0.10962  Biso   1.000  He
  He11     1.0000 0.57090  0.62883  0.89017  Biso   1.000  He
  He12     1.0000 0.43388  0.52035  0.81248  Biso   1.000  He
  Ar3      1.0000 0.50000  0.50001  0.00001  Biso   1.000  Ar
  Ne4      1.0000 0.50000  0.00001  0.00001  Biso   1.000  Ne
  He13     1.0000 0.52057  0.08744  0.19080  Biso   1.000  He
  He14     1.0000 0.65227  0.06616  0.14738  Biso   1.000  He
  He15     1.0000 0.37389  0.94208  0.89233  Biso   1.000  He
  He16     1.0000 0.47886  0.91040  0.80192  Biso   1.000  He
  Ar4      1.0000 0.49999  0.00001  0.00001  Biso   1.000  Ar
  Ne5      1.0000 0.66666  0.83334  0.33335  Biso   1.000  Ne
  He17     1.0000 0.57867  0.76608  0.52593  Biso   1.000  He
  He18     1.0000 0.60881  0.87198  0.40520  Biso   1.000  He
  He19     1.0000 0.72447  0.79666  0.26389  Biso   1.000  He
  He20     1.0000 0.78843  0.90624  0.82323  Biso   1.000  He
  Ar5      1.0000 0.66666  0.83335  0.33336  Biso   1.000  Ar
  Ne6      1.0000 0.83332  0.66667  0.66669  Biso   1.000  Ne
  He21     1.0000 0.85391  0.75411  0.85742  Biso   1.000  He
  He22     1.0000 0.98560  0.73283  0.81407  Biso   1.000  He
  He23     1.0000 0.70721  0.60872  0.55898  Biso   1.000  He
  He24     1.0000 0.81219  0.57706  0.46858  Biso   1.000  He
  Ar6      1.0000 0.83333  0.66667  0.66670  Biso   1.000  Ar
  Ne7      1.0000 0.16666  0.83334  0.33335  Biso   1.000  Ne
  He25     1.0000 0.23322  0.81284  0.52282  Biso   1.000  He
  He26     1.0000 0.09606  0.70481  0.44294  Biso   1.000  He
  He27     1.0000 0.23756  0.96216  0.22352  Biso   1.000  He
  He28     1.0000 0.10055  0.85368  0.14588  Biso   1.000  He
  Ar7      1.0000 0.16666  0.83334  0.33335  Biso   1.000  Ar
  Ne8      1.0000 0.99999  0.50001  0.00001  Biso   1.000  Ne
  He29     1.0000 0.91199  0.43274  0.19265  Biso   1.000  He
  He30     1.0000 0.94213  0.53864  0.07184  Biso   1.000  He
  He31     1.0000 0.05780  0.46332  0.93058  Biso   1.000  He
  He32     1.0000 0.12176  0.57292  0.48988  Biso   1.000  He
  Ar8      1.0000 0.99999  0.50000  1.00000  Biso   1.000  Ar
  Ne9      1.0000 0.83332  0.16667  0.66669  Biso   1.000  Ne
  He33     1.0000 0.89988  0.14617  0.85614  Biso   1.000  He
  He34     1.0000 0.76274  0.03815  0.77632  Biso   1.000  He
  He35     1.0000 0.90423  0.29548  0.55686  Biso   1.000  He
  He36     1.0000 0.76720  0.18700  0.47917  Biso   1.000  He
  Ar9      1.0000 0.83332  0.16667  0.66669  Biso   1.000  Ar
