data_image0
_cell_length_a       23.321
_cell_length_b       23.577
_cell_length_c       26.891
_cell_angle_alpha    90
_cell_angle_beta     90
_cell_angle_gamma    90

_symmetry_space_group_name_H-M    "P 1"
_symmetry_int_tables_number       1

loop_
  _symmetry_equiv_pos_as_xyz
  'x, y, z'

loop_
  _atom_site_label
  _atom_site_occupancy
  _atom_site_fract_x
  _atom_site_fract_y
  _atom_site_fract_z
  _atom_site_thermal_displace_type
  _atom_site_B_iso_or_equiv
  _atom_site_type_symbol
  C1       1.0000 0.31109  0.50159  0.50162  Biso   1.000  C
  C2       1.0000 0.27962  0.45082  0.51460  Biso   1.000  C
  C3       1.0000 0.29892  0.53378  0.46131  Biso   1.000  C
  H1       1.0000 0.34188  0.51300  0.52252  Biso   1.000  H
  C4       1.0000 0.23168  0.43788  0.48440  Biso   1.000  C
  C5       1.0000 0.29278  0.41638  0.55710  Biso   1.000  C
  C6       1.0000 0.25029  0.51750  0.43260  Biso   1.000  C
  C7       1.0000 0.33382  0.58362  0.44509  Biso   1.000  C
  C8       1.0000 0.21770  0.47012  0.44431  Biso   1.000  C
  H2       1.0000 0.20870  0.40590  0.49228  Biso   1.000  H
  N1       1.0000 0.33592  0.42541  0.58421  Biso   1.000  N
  H3       1.0000 0.26808  0.38571  0.56510  Biso   1.000  H
  H4       1.0000 0.23991  0.53981  0.40460  Biso   1.000  H
  N2       1.0000 0.32439  0.61178  0.40861  Biso   1.000  N
  H5       1.0000 0.36581  0.59388  0.46499  Biso   1.000  H
  C9       1.0000 0.16779  0.45438  0.41229  Biso   1.000  C
  C10      1.0000 0.34591  0.38771  0.62720  Biso   1.000  C
  C11      1.0000 0.36242  0.66060  0.40181  Biso   1.000  C
  N3       1.0000 0.13722  0.41171  0.42088  Biso   1.000  N
  H6       1.0000 0.15891  0.47771  0.38452  Biso   1.000  H
  C12      1.0000 0.40410  0.36230  0.62720  Biso   1.000  C
  H7       1.0000 0.31971  0.35479  0.62129  Biso   1.000  H
  C13      1.0000 0.31821  0.42011  0.67290  Biso   1.000  C
  C14      1.0000 0.38759  0.66060  0.34818  Biso   1.000  C
  C15      1.0000 0.33202  0.71349  0.40642  Biso   1.000  C
  H8       1.0000 0.39428  0.65912  0.42669  Biso   1.000  H
  C16      1.0000 0.08580  0.40590  0.38760  Biso   1.000  C
  N4       1.0000 0.41409  0.32460  0.58421  Biso   1.000  N
  H9       1.0000 0.43030  0.39522  0.62129  Biso   1.000  H
  C17      1.0000 0.43180  0.32990  0.67290  Biso   1.000  C
  H10      1.0000 0.32361  0.39772  0.70328  Biso   1.000  H
  H11      1.0000 0.33669  0.45718  0.67692  Biso   1.000  H
  H12      1.0000 0.27709  0.42550  0.66691  Biso   1.000  H
  N5       1.0000 0.42558  0.61178  0.34142  Biso   1.000  N
  C18      1.0000 0.41799  0.71349  0.34361  Biso   1.000  C
  H13      1.0000 0.35569  0.65912  0.32331  Biso   1.000  H
  H14      1.0000 0.35852  0.74501  0.40039  Biso   1.000  H
  H15      1.0000 0.30089  0.71468  0.38191  Biso   1.000  H
  H16      1.0000 0.31590  0.71672  0.44000  Biso   1.000  H
  C19      1.0000 0.08580  0.34411  0.36239  Biso   1.000  C
  H17      1.0000 0.08919  0.43470  0.36049  Biso   1.000  H
  C20      1.0000 0.03859  0.41748  0.41371  Biso   1.000  C
  C21      1.0000 0.45718  0.33359  0.55710  Biso   1.000  C
  H18      1.0000 0.42640  0.35229  0.70328  Biso   1.000  H
  H19      1.0000 0.41332  0.29279  0.67692  Biso   1.000  H
  H20      1.0000 0.47292  0.32451  0.66691  Biso   1.000  H
  C22      1.0000 0.41619  0.58362  0.30490  Biso   1.000  C
  H21      1.0000 0.39149  0.74501  0.34960  Biso   1.000  H
  H22      1.0000 0.44908  0.71468  0.36812  Biso   1.000  H
  H23      1.0000 0.43412  0.71672  0.30999  Biso   1.000  H
  N6       1.0000 0.13722  0.33830  0.32911  Biso   1.000  N
  H24      1.0000 0.08919  0.31531  0.38950  Biso   1.000  H
  C23      1.0000 0.03859  0.33249  0.33628  Biso   1.000  C
  H25      1.0000 0.00502  0.41540  0.39192  Biso   1.000  H
  H26      1.0000 0.03452  0.38991  0.44082  Biso   1.000  H
  H27      1.0000 0.04151  0.45578  0.42769  Biso   1.000  H
  C24      1.0000 0.47039  0.29919  0.51460  Biso   1.000  C
  H28      1.0000 0.48188  0.36430  0.56510  Biso   1.000  H
  C25      1.0000 0.45110  0.53378  0.28868  Biso   1.000  C
  H29      1.0000 0.38420  0.59388  0.28500  Biso   1.000  H
  C26      1.0000 0.16779  0.29558  0.33770  Biso   1.000  C
  H30      1.0000 0.00502  0.33461  0.35811  Biso   1.000  H
  H31      1.0000 0.03452  0.36010  0.30921  Biso   1.000  H
  H32      1.0000 0.04151  0.29419  0.32230  Biso   1.000  H
  C27      1.0000 0.43892  0.24842  0.50162  Biso   1.000  C
  C28      1.0000 0.51829  0.31208  0.48440  Biso   1.000  C
  C29      1.0000 0.43892  0.50159  0.24841  Biso   1.000  C
  C30      1.0000 0.49972  0.51750  0.31739  Biso   1.000  C
  C31      1.0000 0.21770  0.27989  0.30572  Biso   1.000  C
  H33      1.0000 0.15891  0.27230  0.36551  Biso   1.000  H
  C32      1.0000 0.45110  0.21619  0.46131  Biso   1.000  C
  H34      1.0000 0.40809  0.23701  0.52252  Biso   1.000  H
  C33      1.0000 0.53231  0.27989  0.44431  Biso   1.000  C
  H35      1.0000 0.54131  0.34411  0.49228  Biso   1.000  H
  C34      1.0000 0.47039  0.45082  0.23539  Biso   1.000  C
  H36      1.0000 0.40809  0.51300  0.22751  Biso   1.000  H
  C35      1.0000 0.53231  0.47012  0.30572  Biso   1.000  C
  H37      1.0000 0.51010  0.53981  0.34539  Biso   1.000  H
  C36      1.0000 0.25029  0.23251  0.31739  Biso   1.000  C
  C37      1.0000 0.23168  0.31208  0.26559  Biso   1.000  C
  C38      1.0000 0.41619  0.16639  0.44509  Biso   1.000  C
  C39      1.0000 0.49972  0.23251  0.43260  Biso   1.000  C
  C40      1.0000 0.58218  0.29558  0.41229  Biso   1.000  C
  C41      1.0000 0.45718  0.41638  0.19289  Biso   1.000  C
  C42      1.0000 0.51829  0.43788  0.26559  Biso   1.000  C
  C43      1.0000 0.58218  0.45438  0.33770  Biso   1.000  C
  C44      1.0000 0.29892  0.21619  0.28868  Biso   1.000  C
  H38      1.0000 0.23991  0.21020  0.34539  Biso   1.000  H
  C45      1.0000 0.27962  0.29919  0.23539  Biso   1.000  C
  H39      1.0000 0.20870  0.34411  0.25771  Biso   1.000  H
  N7       1.0000 0.42558  0.13819  0.40861  Biso   1.000  N
  H40      1.0000 0.38420  0.15608  0.46499  Biso   1.000  H
  H41      1.0000 0.51010  0.21020  0.40460  Biso   1.000  H
  N8       1.0000 0.61280  0.33830  0.42088  Biso   1.000  N
  H42      1.0000 0.59110  0.27230  0.38452  Biso   1.000  H
  N9       1.0000 0.41409  0.42541  0.16582  Biso   1.000  N
  H43      1.0000 0.48188  0.38571  0.18489  Biso   1.000  H
  H44      1.0000 0.54131  0.40590  0.25771  Biso   1.000  H
  N10      1.0000 0.61280  0.41171  0.32911  Biso   1.000  N
  H45      1.0000 0.59110  0.47771  0.36551  Biso   1.000  H
  C46      1.0000 0.31109  0.24842  0.24841  Biso   1.000  C
  C47      1.0000 0.33382  0.16639  0.30490  Biso   1.000  C
  C48      1.0000 0.29278  0.33359  0.19289  Biso   1.000  C
  C49      1.0000 0.38759  0.08941  0.40181  Biso   1.000  C
  C50      1.0000 0.66421  0.34411  0.38760  Biso   1.000  C
  C51      1.0000 0.40410  0.38771  0.12279  Biso   1.000  C
  C52      1.0000 0.66421  0.40590  0.36239  Biso   1.000  C
  H46      1.0000 0.34188  0.23701  0.22751  Biso   1.000  H
  N11      1.0000 0.32439  0.13819  0.34142  Biso   1.000  N
  H47      1.0000 0.36581  0.15608  0.28500  Biso   1.000  H
  N12      1.0000 0.33592  0.32460  0.16582  Biso   1.000  N
  H48      1.0000 0.26808  0.36430  0.18489  Biso   1.000  H
  C53      1.0000 0.36242  0.08941  0.34818  Biso   1.000  C
  C54      1.0000 0.41799  0.03652  0.40642  Biso   1.000  C
  H49      1.0000 0.35569  0.09089  0.42669  Biso   1.000  H
  H50      1.0000 0.66082  0.31531  0.36049  Biso   1.000  H
  C55      1.0000 0.71142  0.33249  0.41371  Biso   1.000  C
  C56      1.0000 0.34591  0.36230  0.12279  Biso   1.000  C
  H51      1.0000 0.43030  0.35479  0.12870  Biso   1.000  H
  C57      1.0000 0.43180  0.42011  0.07709  Biso   1.000  C
  H52      1.0000 0.66082  0.43470  0.38950  Biso   1.000  H
  C58      1.0000 0.71142  0.41748  0.33628  Biso   1.000  C
  C59      1.0000 0.33202  0.03652  0.34361  Biso   1.000  C
  H53      1.0000 0.39428  0.09089  0.32331  Biso   1.000  H
  H54      1.0000 0.39149  0.00500  0.40039  Biso   1.000  H
  H55      1.0000 0.44908  0.03529  0.38191  Biso   1.000  H
  H56      1.0000 0.43412  0.03330  0.44000  Biso   1.000  H
  H57      1.0000 0.74499  0.33461  0.39192  Biso   1.000  H
  H58      1.0000 0.71549  0.36010  0.44082  Biso   1.000  H
  H59      1.0000 0.70850  0.29419  0.42769  Biso   1.000  H
  H60      1.0000 0.31971  0.39522  0.12870  Biso   1.000  H
  C60      1.0000 0.31821  0.32990  0.07709  Biso   1.000  C
  H61      1.0000 0.42640  0.39772  0.04671  Biso   1.000  H
  H62      1.0000 0.41332  0.45718  0.07311  Biso   1.000  H
  H63      1.0000 0.47292  0.42550  0.08311  Biso   1.000  H
  H64      1.0000 0.74499  0.41540  0.35811  Biso   1.000  H
  H65      1.0000 0.71549  0.38991  0.30921  Biso   1.000  H
  H66      1.0000 0.70850  0.45578  0.32230  Biso   1.000  H
  H67      1.0000 0.35852  0.00500  0.34960  Biso   1.000  H
  H68      1.0000 0.30089  0.03529  0.36812  Biso   1.000  H
  H69      1.0000 0.31590  0.03330  0.30999  Biso   1.000  H
  H70      1.0000 0.32361  0.35229  0.04671  Biso   1.000  H
  H71      1.0000 0.33669  0.29279  0.07311  Biso   1.000  H
  H72      1.0000 0.27709  0.32451  0.08311  Biso   1.000  H
  C61      1.0000 0.54282  0.66641  0.44290  Biso   1.000  C
  N13      1.0000 0.58591  0.67540  0.41579  Biso   1.000  N
  C62      1.0000 0.52961  0.70081  0.48540  Biso   1.000  C
  H73      1.0000 0.51812  0.63570  0.43490  Biso   1.000  H
  C63      1.0000 0.59590  0.63770  0.37280  Biso   1.000  C
  C64      1.0000 0.56108  0.75158  0.49838  Biso   1.000  C
  C65      1.0000 0.48171  0.68792  0.51560  Biso   1.000  C
  C66      1.0000 0.56820  0.67010  0.32710  Biso   1.000  C
  C67      1.0000 0.65409  0.61229  0.37280  Biso   1.000  C
  H74      1.0000 0.56970  0.60478  0.37871  Biso   1.000  H
  C68      1.0000 0.54890  0.78381  0.53869  Biso   1.000  C
  H75      1.0000 0.59191  0.76299  0.47748  Biso   1.000  H
  H76      1.0000 0.45869  0.65589  0.50772  Biso   1.000  H
  C69      1.0000 0.46769  0.72011  0.55569  Biso   1.000  C
  H77      1.0000 0.57360  0.64771  0.29672  Biso   1.000  H
  H78      1.0000 0.58668  0.70721  0.32308  Biso   1.000  H
  H79      1.0000 0.52708  0.67549  0.33309  Biso   1.000  H
  N14      1.0000 0.66408  0.57459  0.41579  Biso   1.000  N
  H80      1.0000 0.68029  0.64521  0.37871  Biso   1.000  H
  C70      1.0000 0.68179  0.57989  0.32710  Biso   1.000  C
  C71      1.0000 0.50028  0.76749  0.56740  Biso   1.000  C
  C72      1.0000 0.58381  0.83361  0.55491  Biso   1.000  C
  C73      1.0000 0.41782  0.70442  0.58771  Biso   1.000  C
  C74      1.0000 0.70722  0.58362  0.44290  Biso   1.000  C
  H81      1.0000 0.67639  0.60228  0.29672  Biso   1.000  H
  H82      1.0000 0.66331  0.54282  0.32308  Biso   1.000  H
  H83      1.0000 0.72291  0.57450  0.33309  Biso   1.000  H
  H84      1.0000 0.48990  0.78980  0.59540  Biso   1.000  H
  N15      1.0000 0.57442  0.86181  0.59139  Biso   1.000  N
  H85      1.0000 0.61580  0.84392  0.53501  Biso   1.000  H
  N16      1.0000 0.38720  0.66170  0.57912  Biso   1.000  N
  H86      1.0000 0.40890  0.72770  0.61548  Biso   1.000  H
  C75      1.0000 0.72038  0.54918  0.48540  Biso   1.000  C
  H87      1.0000 0.73192  0.61429  0.43490  Biso   1.000  H
  C76      1.0000 0.61241  0.91059  0.59819  Biso   1.000  C
  C77      1.0000 0.33579  0.65589  0.61240  Biso   1.000  C
  C78      1.0000 0.68891  0.49841  0.49838  Biso   1.000  C
  C79      1.0000 0.76832  0.56212  0.51560  Biso   1.000  C
  C80      1.0000 0.63758  0.91059  0.65182  Biso   1.000  C
  C81      1.0000 0.58201  0.96348  0.59358  Biso   1.000  C
  H88      1.0000 0.64431  0.90911  0.57331  Biso   1.000  H
  C82      1.0000 0.33579  0.59410  0.63761  Biso   1.000  C
  H89      1.0000 0.33918  0.68469  0.63951  Biso   1.000  H
  C83      1.0000 0.28858  0.66751  0.58629  Biso   1.000  C
  C84      1.0000 0.70108  0.46622  0.53869  Biso   1.000  C
  H90      1.0000 0.65812  0.48700  0.47748  Biso   1.000  H
  H91      1.0000 0.79130  0.59410  0.50772  Biso   1.000  H
  C85      1.0000 0.78230  0.52988  0.55569  Biso   1.000  C
  N17      1.0000 0.67561  0.86181  0.65858  Biso   1.000  N
  C86      1.0000 0.66798  0.96348  0.65639  Biso   1.000  C
  H92      1.0000 0.60572  0.90911  0.67669  Biso   1.000  H
  H93      1.0000 0.60851  0.99500  0.59961  Biso   1.000  H
  H94      1.0000 0.55092  0.96471  0.61809  Biso   1.000  H
  H95      1.0000 0.56588  0.96670  0.56000  Biso   1.000  H
  N18      1.0000 0.38720  0.58829  0.67089  Biso   1.000  N
  H96      1.0000 0.33918  0.56530  0.61050  Biso   1.000  H
  C87      1.0000 0.28858  0.58252  0.66372  Biso   1.000  C
  H97      1.0000 0.25501  0.66539  0.60808  Biso   1.000  H
  H98      1.0000 0.28451  0.63990  0.55918  Biso   1.000  H
  H99      1.0000 0.29150  0.70581  0.57231  Biso   1.000  H
  C88      1.0000 0.74971  0.48250  0.56740  Biso   1.000  C
  C89      1.0000 0.66618  0.41638  0.55491  Biso   1.000  C
  C90      1.0000 0.83221  0.54562  0.58771  Biso   1.000  C
  C91      1.0000 0.66618  0.83361  0.69510  Biso   1.000  C
  H100     1.0000 0.64148  0.99500  0.65040  Biso   1.000  H
  H101     1.0000 0.69911  0.96471  0.63188  Biso   1.000  H
  H102     1.0000 0.68410  0.96670  0.69001  Biso   1.000  H
  C92      1.0000 0.41782  0.54562  0.66230  Biso   1.000  C
  H103     1.0000 0.25501  0.58460  0.64189  Biso   1.000  H
  H104     1.0000 0.28451  0.61009  0.69079  Biso   1.000  H
  H105     1.0000 0.29150  0.54422  0.67770  Biso   1.000  H
  H106     1.0000 0.76009  0.46019  0.59540  Biso   1.000  H
  N19      1.0000 0.67561  0.38822  0.59139  Biso   1.000  N
  H107     1.0000 0.63419  0.40612  0.53501  Biso   1.000  H
  N20      1.0000 0.86278  0.58829  0.57912  Biso   1.000  N
  H108     1.0000 0.84109  0.52229  0.61548  Biso   1.000  H
  C93      1.0000 0.70108  0.78381  0.71132  Biso   1.000  C
  H109     1.0000 0.63419  0.84392  0.71500  Biso   1.000  H
  C94      1.0000 0.46769  0.52988  0.69428  Biso   1.000  C
  H110     1.0000 0.40890  0.52229  0.63449  Biso   1.000  H
  C95      1.0000 0.63758  0.33940  0.59819  Biso   1.000  C
  C96      1.0000 0.91420  0.59410  0.61240  Biso   1.000  C
  C97      1.0000 0.68891  0.75158  0.75159  Biso   1.000  C
  C98      1.0000 0.74971  0.76749  0.68261  Biso   1.000  C
  C99      1.0000 0.48171  0.56212  0.73441  Biso   1.000  C
  C100     1.0000 0.50028  0.48250  0.68261  Biso   1.000  C
  C101     1.0000 0.61241  0.33940  0.65182  Biso   1.000  C
  C102     1.0000 0.66798  0.28651  0.59358  Biso   1.000  C
  H111     1.0000 0.60572  0.34088  0.57331  Biso   1.000  H
  C103     1.0000 0.91420  0.65589  0.63761  Biso   1.000  C
  H112     1.0000 0.91081  0.56530  0.63951  Biso   1.000  H
  C104     1.0000 0.96141  0.58252  0.58629  Biso   1.000  C
  H113     1.0000 0.65812  0.76299  0.77249  Biso   1.000  H
  C105     1.0000 0.72038  0.70081  0.76461  Biso   1.000  C
  C106     1.0000 0.78230  0.72011  0.69428  Biso   1.000  C
  H114     1.0000 0.76009  0.78980  0.65461  Biso   1.000  H
  C107     1.0000 0.52961  0.54918  0.76461  Biso   1.000  C
  H115     1.0000 0.45869  0.59410  0.74229  Biso   1.000  H
  C108     1.0000 0.54890  0.46622  0.71132  Biso   1.000  C
  H116     1.0000 0.48990  0.46019  0.65461  Biso   1.000  H
  N21      1.0000 0.57442  0.38822  0.65858  Biso   1.000  N
  C109     1.0000 0.58201  0.28651  0.65639  Biso   1.000  C
  H117     1.0000 0.64431  0.34088  0.67669  Biso   1.000  H
  H118     1.0000 0.64148  0.25499  0.59961  Biso   1.000  H
  H119     1.0000 0.69911  0.28532  0.61809  Biso   1.000  H
  H120     1.0000 0.68410  0.28328  0.56000  Biso   1.000  H
  N22      1.0000 0.86278  0.66170  0.67089  Biso   1.000  N
  H121     1.0000 0.91081  0.68469  0.61050  Biso   1.000  H
  C110     1.0000 0.96141  0.66751  0.66372  Biso   1.000  C
  H122     1.0000 0.99498  0.58460  0.60808  Biso   1.000  H
  H123     1.0000 0.96548  0.61009  0.55918  Biso   1.000  H
  H124     1.0000 0.95849  0.54422  0.57231  Biso   1.000  H
  C111     1.0000 0.76832  0.68792  0.73441  Biso   1.000  C
  C112     1.0000 0.70722  0.66641  0.80711  Biso   1.000  C
  C113     1.0000 0.83221  0.70442  0.66230  Biso   1.000  C
  C114     1.0000 0.56108  0.49841  0.75159  Biso   1.000  C
  C115     1.0000 0.54282  0.58362  0.80711  Biso   1.000  C
  C116     1.0000 0.58381  0.41638  0.69510  Biso   1.000  C
  H125     1.0000 0.60851  0.25499  0.65040  Biso   1.000  H
  H126     1.0000 0.55092  0.28532  0.63188  Biso   1.000  H
  H127     1.0000 0.56588  0.28328  0.69001  Biso   1.000  H
  H128     1.0000 0.99498  0.66539  0.64189  Biso   1.000  H
  H129     1.0000 0.96548  0.63990  0.69079  Biso   1.000  H
  H130     1.0000 0.95849  0.70581  0.67770  Biso   1.000  H
  H131     1.0000 0.79130  0.65589  0.74229  Biso   1.000  H
  N23      1.0000 0.66408  0.67540  0.83418  Biso   1.000  N
  H132     1.0000 0.73192  0.63570  0.81511  Biso   1.000  H
  H133     1.0000 0.84109  0.72770  0.63449  Biso   1.000  H
  H134     1.0000 0.59191  0.48700  0.77249  Biso   1.000  H
  N24      1.0000 0.58591  0.57459  0.83418  Biso   1.000  N
  H135     1.0000 0.51812  0.61429  0.81511  Biso   1.000  H
  H136     1.0000 0.61580  0.40612  0.71500  Biso   1.000  H
  C117     1.0000 0.65409  0.63770  0.87721  Biso   1.000  C
  C118     1.0000 0.59590  0.61229  0.87721  Biso   1.000  C
  H137     1.0000 0.68029  0.60478  0.87130  Biso   1.000  H
  C119     1.0000 0.68179  0.67010  0.92291  Biso   1.000  C
  H138     1.0000 0.56970  0.64521  0.87130  Biso   1.000  H
  C120     1.0000 0.56820  0.57989  0.92291  Biso   1.000  C
  H139     1.0000 0.67639  0.64771  0.95329  Biso   1.000  H
  H140     1.0000 0.66331  0.70721  0.92689  Biso   1.000  H
  H141     1.0000 0.72291  0.67549  0.91689  Biso   1.000  H
  H142     1.0000 0.57360  0.60228  0.95329  Biso   1.000  H
  H143     1.0000 0.58668  0.54282  0.92689  Biso   1.000  H
  H144     1.0000 0.52708  0.57450  0.91689  Biso   1.000  H
  C121     1.0000 0.18181  0.67010  0.42289  Biso   1.000  C
  C122     1.0000 0.15411  0.63770  0.37719  Biso   1.000  C
  H145     1.0000 0.17641  0.64771  0.45331  Biso   1.000  H
  H146     1.0000 0.16329  0.70721  0.42691  Biso   1.000  H
  H147     1.0000 0.22289  0.67549  0.41691  Biso   1.000  H
  C123     1.0000 0.09588  0.61229  0.37719  Biso   1.000  C
  N25      1.0000 0.16410  0.67540  0.33420  Biso   1.000  N
  H148     1.0000 0.18031  0.60478  0.37131  Biso   1.000  H
  N26      1.0000 0.08589  0.57459  0.33420  Biso   1.000  N
  H149     1.0000 0.06968  0.64521  0.37131  Biso   1.000  H
  C124     1.0000 0.06818  0.57989  0.42289  Biso   1.000  C
  C125     1.0000 0.20720  0.66641  0.30709  Biso   1.000  C
  C126     1.0000 0.04279  0.58362  0.30709  Biso   1.000  C
  H150     1.0000 0.07358  0.60228  0.45331  Biso   1.000  H
  H151     1.0000 0.08670  0.54282  0.42691  Biso   1.000  H
  H152     1.0000 0.02710  0.57450  0.41691  Biso   1.000  H
  C127     1.0000 0.22040  0.70081  0.26459  Biso   1.000  C
  H153     1.0000 0.23189  0.63570  0.31509  Biso   1.000  H
  C128     1.0000 0.02959  0.54918  0.26459  Biso   1.000  C
  H154     1.0000 0.01810  0.61429  0.31509  Biso   1.000  H
  C129     1.0000 0.26830  0.68792  0.23439  Biso   1.000  C
  C130     1.0000 0.18889  0.75158  0.25161  Biso   1.000  C
  C131     1.0000 0.06110  0.49841  0.25161  Biso   1.000  C
  C132     1.0000 0.98169  0.56212  0.23439  Biso   1.000  C
  C133     1.0000 0.28232  0.72011  0.19430  Biso   1.000  C
  H155     1.0000 0.29128  0.65589  0.24231  Biso   1.000  H
  C134     1.0000 0.20111  0.78381  0.21130  Biso   1.000  C
  H156     1.0000 0.15810  0.76299  0.27251  Biso   1.000  H
  C135     1.0000 0.04888  0.46622  0.21130  Biso   1.000  C
  H157     1.0000 0.09189  0.48700  0.27251  Biso   1.000  H
  C136     1.0000 0.96771  0.52988  0.19430  Biso   1.000  C
  H158     1.0000 0.95871  0.59410  0.24231  Biso   1.000  H
  C137     1.0000 0.33219  0.70442  0.16228  Biso   1.000  C
  C138     1.0000 0.24969  0.76749  0.18259  Biso   1.000  C
  C139     1.0000 0.16620  0.83361  0.19508  Biso   1.000  C
  C140     1.0000 0.08379  0.41638  0.19508  Biso   1.000  C
  C141     1.0000 0.00030  0.48250  0.18259  Biso   1.000  C
  C142     1.0000 0.91780  0.54562  0.16228  Biso   1.000  C
  N27      1.0000 0.36281  0.66170  0.17091  Biso   1.000  N
  H159     1.0000 0.34111  0.72770  0.13451  Biso   1.000  H
  H160     1.0000 0.26011  0.78980  0.15459  Biso   1.000  H
  N28      1.0000 0.17559  0.86181  0.15860  Biso   1.000  N
  H161     1.0000 0.13421  0.84392  0.21502  Biso   1.000  H
  N29      1.0000 0.07440  0.38822  0.15860  Biso   1.000  N
  H162     1.0000 0.11582  0.40612  0.21502  Biso   1.000  H
  H163     1.0000 0.98988  0.46019  0.15459  Biso   1.000  H
  N30      1.0000 0.88718  0.58829  0.17091  Biso   1.000  N
  H164     1.0000 0.90888  0.52229  0.13451  Biso   1.000  H
  C143     1.0000 0.41422  0.65589  0.13759  Biso   1.000  C
  C144     1.0000 0.13760  0.91059  0.15180  Biso   1.000  C
  C145     1.0000 0.11239  0.33940  0.15180  Biso   1.000  C
  C146     1.0000 0.83581  0.59410  0.13759  Biso   1.000  C
  C147     1.0000 0.41422  0.59410  0.11242  Biso   1.000  C
  H165     1.0000 0.41079  0.68469  0.11048  Biso   1.000  H
  C148     1.0000 0.46139  0.66751  0.16370  Biso   1.000  C
  C149     1.0000 0.11239  0.91059  0.09821  Biso   1.000  C
  C150     1.0000 0.16800  0.96348  0.15641  Biso   1.000  C
  H166     1.0000 0.10570  0.90911  0.17671  Biso   1.000  H
  C151     1.0000 0.13760  0.33940  0.09821  Biso   1.000  C
  C152     1.0000 0.08199  0.28651  0.15641  Biso   1.000  C
  H167     1.0000 0.14429  0.34088  0.17671  Biso   1.000  H
  C153     1.0000 0.83581  0.65589  0.11242  Biso   1.000  C
  H168     1.0000 0.83920  0.56530  0.11048  Biso   1.000  H
  C154     1.0000 0.78860  0.58252  0.16370  Biso   1.000  C
  N31      1.0000 0.36281  0.58829  0.07910  Biso   1.000  N
  H169     1.0000 0.41079  0.56530  0.13949  Biso   1.000  H
  C155     1.0000 0.46139  0.58252  0.08631  Biso   1.000  C
  H170     1.0000 0.49500  0.66539  0.14191  Biso   1.000  H
  H171     1.0000 0.46550  0.63990  0.19081  Biso   1.000  H
  H172     1.0000 0.45851  0.70581  0.17772  Biso   1.000  H
  N32      1.0000 0.07440  0.86181  0.09141  Biso   1.000  N
  C156     1.0000 0.08199  0.96348  0.09360  Biso   1.000  C
  H173     1.0000 0.14429  0.90911  0.07330  Biso   1.000  H
  H174     1.0000 0.14150  0.99500  0.15038  Biso   1.000  H
  H175     1.0000 0.19909  0.96471  0.13190  Biso   1.000  H
  H176     1.0000 0.18408  0.96670  0.18999  Biso   1.000  H
  C157     1.0000 0.16800  0.28651  0.09360  Biso   1.000  C
  N33      1.0000 0.17559  0.38822  0.09141  Biso   1.000  N
  H177     1.0000 0.10570  0.34088  0.07330  Biso   1.000  H
  H178     1.0000 0.10849  0.25499  0.15038  Biso   1.000  H
  H179     1.0000 0.05090  0.28532  0.13190  Biso   1.000  H
  H180     1.0000 0.06591  0.28328  0.18999  Biso   1.000  H
  N34      1.0000 0.88718  0.66170  0.07910  Biso   1.000  N
  H181     1.0000 0.83920  0.68469  0.13949  Biso   1.000  H
  C158     1.0000 0.78860  0.66751  0.08631  Biso   1.000  C
  H182     1.0000 0.75498  0.58460  0.14191  Biso   1.000  H
  H183     1.0000 0.78449  0.61009  0.19081  Biso   1.000  H
  H184     1.0000 0.79152  0.54422  0.17772  Biso   1.000  H
  C159     1.0000 0.33219  0.54562  0.08769  Biso   1.000  C
  H185     1.0000 0.49500  0.58460  0.10810  Biso   1.000  H
  H186     1.0000 0.46550  0.61009  0.05920  Biso   1.000  H
  H187     1.0000 0.45851  0.54422  0.07229  Biso   1.000  H
  C160     1.0000 0.08379  0.83361  0.05489  Biso   1.000  C
  H188     1.0000 0.10849  0.99500  0.09959  Biso   1.000  H
  H189     1.0000 0.05090  0.96471  0.11811  Biso   1.000  H
  H190     1.0000 0.06591  0.96670  0.05998  Biso   1.000  H
  H191     1.0000 0.14150  0.25499  0.09959  Biso   1.000  H
  H192     1.0000 0.19909  0.28532  0.11811  Biso   1.000  H
  H193     1.0000 0.18408  0.28328  0.05998  Biso   1.000  H
  C161     1.0000 0.16620  0.41638  0.05489  Biso   1.000  C
  C162     1.0000 0.91780  0.70442  0.08769  Biso   1.000  C
  H194     1.0000 0.75498  0.66539  0.10810  Biso   1.000  H
  H195     1.0000 0.78449  0.63990  0.05920  Biso   1.000  H
  H196     1.0000 0.79152  0.70581  0.07229  Biso   1.000  H
  C163     1.0000 0.28232  0.52988  0.05571  Biso   1.000  C
  H197     1.0000 0.34111  0.52229  0.11550  Biso   1.000  H
  C164     1.0000 0.04888  0.78381  0.03871  Biso   1.000  C
  H198     1.0000 0.11582  0.84392  0.03499  Biso   1.000  H
  C165     1.0000 0.20111  0.46622  0.03871  Biso   1.000  C
  H199     1.0000 0.13421  0.40612  0.03499  Biso   1.000  H
  C166     1.0000 0.96771  0.72011  0.05571  Biso   1.000  C
  H200     1.0000 0.90888  0.72770  0.11550  Biso   1.000  H
  C167     1.0000 0.24969  0.48250  0.06738  Biso   1.000  C
  C168     1.0000 0.26830  0.56212  0.01558  Biso   1.000  C
  C169     1.0000 0.06110  0.75158  0.99840  Biso   1.000  C
  C170     1.0000 0.00030  0.76749  0.06738  Biso   1.000  C
  C171     1.0000 0.18889  0.49841  0.99840  Biso   1.000  C
  C172     1.0000 0.98169  0.68792  0.01558  Biso   1.000  C
  H201     1.0000 0.26011  0.46019  0.09539  Biso   1.000  H
  C173     1.0000 0.22040  0.54918  0.98539  Biso   1.000  C
  H202     1.0000 0.29128  0.59410  0.00770  Biso   1.000  H
  C174     1.0000 0.02959  0.70081  0.98539  Biso   1.000  C
  H203     1.0000 0.09189  0.76299  0.97750  Biso   1.000  H
  H204     1.0000 0.98988  0.78980  0.09539  Biso   1.000  H
  H205     1.0000 0.15810  0.48700  0.97750  Biso   1.000  H
  H206     1.0000 0.95871  0.65589  0.00770  Biso   1.000  H
  C175     1.0000 0.20720  0.58362  0.94292  Biso   1.000  C
  C176     1.0000 0.04279  0.66641  0.94292  Biso   1.000  C
  N35      1.0000 0.16410  0.57459  0.91581  Biso   1.000  N
  H207     1.0000 0.23189  0.61429  0.93489  Biso   1.000  H
  N36      1.0000 0.08589  0.67540  0.91581  Biso   1.000  N
  H208     1.0000 0.01810  0.63570  0.93489  Biso   1.000  H
  C177     1.0000 0.15411  0.61229  0.87278  Biso   1.000  C
  C178     1.0000 0.09588  0.63770  0.87278  Biso   1.000  C
  H209     1.0000 0.18031  0.64521  0.87870  Biso   1.000  H
  C179     1.0000 0.18181  0.57989  0.82712  Biso   1.000  C
  H210     1.0000 0.06968  0.60478  0.87870  Biso   1.000  H
  C180     1.0000 0.06818  0.67010  0.82712  Biso   1.000  C
  H211     1.0000 0.17641  0.60228  0.79670  Biso   1.000  H
  H212     1.0000 0.16329  0.54282  0.82310  Biso   1.000  H
  H213     1.0000 0.22289  0.57450  0.83310  Biso   1.000  H
  H214     1.0000 0.07358  0.64771  0.79670  Biso   1.000  H
  H215     1.0000 0.08670  0.70721  0.82310  Biso   1.000  H
  H216     1.0000 0.02710  0.67549  0.83310  Biso   1.000  H
  C181     1.0000 0.16800  0.46350  0.65639  Biso   1.000  C
  C182     1.0000 0.13760  0.41061  0.65182  Biso   1.000  C
  H217     1.0000 0.14150  0.49502  0.65040  Biso   1.000  H
  H218     1.0000 0.19909  0.46469  0.63188  Biso   1.000  H
  H219     1.0000 0.18408  0.46668  0.69001  Biso   1.000  H
  C183     1.0000 0.11239  0.41061  0.59819  Biso   1.000  C
  N37      1.0000 0.17559  0.36179  0.65858  Biso   1.000  N
  H220     1.0000 0.10570  0.40909  0.67669  Biso   1.000  H
  N38      1.0000 0.07440  0.36179  0.59139  Biso   1.000  N
  C184     1.0000 0.08199  0.46350  0.59358  Biso   1.000  C
  H221     1.0000 0.14429  0.40909  0.57331  Biso   1.000  H
  C185     1.0000 0.16620  0.33359  0.69510  Biso   1.000  C
  C186     1.0000 0.08379  0.33359  0.55491  Biso   1.000  C
  H222     1.0000 0.10849  0.49502  0.59961  Biso   1.000  H
  H223     1.0000 0.05090  0.46469  0.61809  Biso   1.000  H
  H224     1.0000 0.06591  0.46668  0.56000  Biso   1.000  H
  C187     1.0000 0.20111  0.28379  0.71132  Biso   1.000  C
  H225     1.0000 0.13421  0.34389  0.71500  Biso   1.000  H
  C188     1.0000 0.04888  0.28379  0.53869  Biso   1.000  C
  H226     1.0000 0.11582  0.34389  0.53501  Biso   1.000  H
  C189     1.0000 0.24969  0.26751  0.68261  Biso   1.000  C
  C190     1.0000 0.18889  0.25160  0.75159  Biso   1.000  C
  C191     1.0000 0.06110  0.25160  0.49838  Biso   1.000  C
  C192     1.0000 0.00030  0.26751  0.56740  Biso   1.000  C
  C193     1.0000 0.28232  0.22009  0.69428  Biso   1.000  C
  H227     1.0000 0.26011  0.28982  0.65461  Biso   1.000  H
  C194     1.0000 0.22040  0.20079  0.76461  Biso   1.000  C
  H228     1.0000 0.15810  0.26301  0.77249  Biso   1.000  H
  C195     1.0000 0.02959  0.20079  0.48540  Biso   1.000  C
  H229     1.0000 0.09189  0.26301  0.47748  Biso   1.000  H
  C196     1.0000 0.96771  0.22009  0.55569  Biso   1.000  C
  H230     1.0000 0.98988  0.28982  0.59540  Biso   1.000  H
  C197     1.0000 0.33219  0.20439  0.66230  Biso   1.000  C
  C198     1.0000 0.26830  0.18789  0.73441  Biso   1.000  C
  C199     1.0000 0.20720  0.16639  0.80711  Biso   1.000  C
  C200     1.0000 0.04279  0.16639  0.44290  Biso   1.000  C
  C201     1.0000 0.98169  0.18789  0.51560  Biso   1.000  C
  C202     1.0000 0.91780  0.20439  0.58771  Biso   1.000  C
  N39      1.0000 0.36281  0.16168  0.67089  Biso   1.000  N
  H231     1.0000 0.34111  0.22768  0.63449  Biso   1.000  H
  H232     1.0000 0.29128  0.15591  0.74229  Biso   1.000  H
  N40      1.0000 0.16410  0.17538  0.83418  Biso   1.000  N
  H233     1.0000 0.23189  0.13568  0.81511  Biso   1.000  H
  N41      1.0000 0.08589  0.17538  0.41579  Biso   1.000  N
  H234     1.0000 0.01810  0.13568  0.43490  Biso   1.000  H
  H235     1.0000 0.95871  0.15591  0.50772  Biso   1.000  H
  N42      1.0000 0.88718  0.16168  0.57912  Biso   1.000  N
  H236     1.0000 0.90888  0.22768  0.61548  Biso   1.000  H
  C203     1.0000 0.41422  0.15591  0.63761  Biso   1.000  C
  C204     1.0000 0.15411  0.13772  0.87721  Biso   1.000  C
  C205     1.0000 0.09588  0.13772  0.37280  Biso   1.000  C
  C206     1.0000 0.83581  0.15591  0.61240  Biso   1.000  C
  C207     1.0000 0.41422  0.09412  0.61240  Biso   1.000  C
  H237     1.0000 0.41079  0.18471  0.61050  Biso   1.000  H
  C208     1.0000 0.46139  0.16749  0.66372  Biso   1.000  C
  C209     1.0000 0.09588  0.11231  0.87721  Biso   1.000  C
  H238     1.0000 0.18031  0.10481  0.87130  Biso   1.000  H
  C210     1.0000 0.18181  0.17008  0.92291  Biso   1.000  C
  C211     1.0000 0.15411  0.11231  0.37280  Biso   1.000  C
  H239     1.0000 0.06968  0.10481  0.37871  Biso   1.000  H
  C212     1.0000 0.06818  0.17008  0.32710  Biso   1.000  C
  C213     1.0000 0.83581  0.09412  0.63761  Biso   1.000  C
  H240     1.0000 0.83920  0.18471  0.63951  Biso   1.000  H
  C214     1.0000 0.78860  0.16749  0.58629  Biso   1.000  C
  N43      1.0000 0.36281  0.08831  0.57912  Biso   1.000  N
  H241     1.0000 0.41079  0.06532  0.63951  Biso   1.000  H
  C215     1.0000 0.46139  0.08250  0.58629  Biso   1.000  C
  H242     1.0000 0.49500  0.16542  0.64189  Biso   1.000  H
  H243     1.0000 0.46550  0.13988  0.69079  Biso   1.000  H
  H244     1.0000 0.45851  0.20579  0.67770  Biso   1.000  H
  N44      1.0000 0.08589  0.07461  0.83418  Biso   1.000  N
  H245     1.0000 0.06968  0.14518  0.87130  Biso   1.000  H
  C216     1.0000 0.06818  0.07991  0.92291  Biso   1.000  C
  H246     1.0000 0.17641  0.14769  0.95329  Biso   1.000  H
  H247     1.0000 0.16329  0.20719  0.92689  Biso   1.000  H
  H248     1.0000 0.22289  0.17551  0.91689  Biso   1.000  H
  C217     1.0000 0.18181  0.07991  0.32710  Biso   1.000  C
  N45      1.0000 0.16410  0.07461  0.41579  Biso   1.000  N
  H249     1.0000 0.18031  0.14518  0.37871  Biso   1.000  H
  H250     1.0000 0.07358  0.14769  0.29672  Biso   1.000  H
  H251     1.0000 0.08670  0.20719  0.32308  Biso   1.000  H
  H252     1.0000 0.02710  0.17551  0.33309  Biso   1.000  H
  N46      1.0000 0.88718  0.08831  0.67089  Biso   1.000  N
  H253     1.0000 0.83920  0.06532  0.61050  Biso   1.000  H
  C218     1.0000 0.78860  0.08250  0.66372  Biso   1.000  C
  H254     1.0000 0.75498  0.16542  0.60808  Biso   1.000  H
  H255     1.0000 0.78449  0.13988  0.55918  Biso   1.000  H
  H256     1.0000 0.79152  0.20579  0.57231  Biso   1.000  H
  C219     1.0000 0.33219  0.04560  0.58771  Biso   1.000  C
  H257     1.0000 0.49500  0.08462  0.60808  Biso   1.000  H
  H258     1.0000 0.46550  0.11011  0.55918  Biso   1.000  H
  H259     1.0000 0.45851  0.04420  0.57231  Biso   1.000  H
  C220     1.0000 0.04279  0.08360  0.80711  Biso   1.000  C
  H260     1.0000 0.07358  0.10230  0.95329  Biso   1.000  H
  H261     1.0000 0.08670  0.04280  0.92689  Biso   1.000  H
  H262     1.0000 0.02710  0.07448  0.91689  Biso   1.000  H
  H263     1.0000 0.17641  0.10230  0.29672  Biso   1.000  H
  H264     1.0000 0.16329  0.04280  0.32308  Biso   1.000  H
  H265     1.0000 0.22289  0.07448  0.33309  Biso   1.000  H
  C221     1.0000 0.20720  0.08360  0.44290  Biso   1.000  C
  C222     1.0000 0.91780  0.04560  0.66230  Biso   1.000  C
  H266     1.0000 0.75498  0.08462  0.64189  Biso   1.000  H
  H267     1.0000 0.78449  0.11011  0.69079  Biso   1.000  H
  H268     1.0000 0.79152  0.04420  0.67770  Biso   1.000  H
  C223     1.0000 0.28232  0.02990  0.55569  Biso   1.000  C
  H269     1.0000 0.34111  0.02231  0.61548  Biso   1.000  H
  C224     1.0000 0.02959  0.04920  0.76461  Biso   1.000  C
  H270     1.0000 0.01810  0.11431  0.81511  Biso   1.000  H
  C225     1.0000 0.22040  0.04920  0.48540  Biso   1.000  C
  H271     1.0000 0.23189  0.11431  0.43490  Biso   1.000  H
  C226     1.0000 0.96771  0.02990  0.69428  Biso   1.000  C
  H272     1.0000 0.90888  0.02231  0.63449  Biso   1.000  H
  C227     1.0000 0.26830  0.06209  0.51560  Biso   1.000  C
  C228     1.0000 0.24969  0.98248  0.56740  Biso   1.000  C
  C229     1.0000 0.06110  0.99839  0.75159  Biso   1.000  C
  C230     1.0000 0.98169  0.06209  0.73441  Biso   1.000  C
  C231     1.0000 0.18889  0.99839  0.49838  Biso   1.000  C
  C232     1.0000 0.00030  0.98248  0.68261  Biso   1.000  C
  H273     1.0000 0.29128  0.09412  0.50772  Biso   1.000  H
  C233     1.0000 0.20111  0.96620  0.53869  Biso   1.000  C
  H274     1.0000 0.26011  0.96022  0.59540  Biso   1.000  H
  C234     1.0000 0.04888  0.96620  0.71132  Biso   1.000  C
  H275     1.0000 0.09189  0.98698  0.77249  Biso   1.000  H
  H276     1.0000 0.95871  0.09412  0.74229  Biso   1.000  H
  H277     1.0000 0.15810  0.98698  0.47748  Biso   1.000  H
  H278     1.0000 0.98988  0.96022  0.65461  Biso   1.000  H
  C235     1.0000 0.16620  0.91640  0.55491  Biso   1.000  C
  C236     1.0000 0.08379  0.91640  0.69510  Biso   1.000  C
  N47      1.0000 0.17559  0.88820  0.59139  Biso   1.000  N
  H279     1.0000 0.13421  0.90609  0.53501  Biso   1.000  H
  N48      1.0000 0.07440  0.88820  0.65858  Biso   1.000  N
  H280     1.0000 0.11582  0.90609  0.71500  Biso   1.000  H
  C237     1.0000 0.13760  0.83942  0.59819  Biso   1.000  C
  C238     1.0000 0.11239  0.83942  0.65182  Biso   1.000  C
  C239     1.0000 0.16800  0.78649  0.59358  Biso   1.000  C
  H281     1.0000 0.10570  0.84090  0.57331  Biso   1.000  H
  C240     1.0000 0.08199  0.78649  0.65639  Biso   1.000  C
  H282     1.0000 0.14429  0.84090  0.67669  Biso   1.000  H
  H283     1.0000 0.14150  0.75502  0.59961  Biso   1.000  H
  H284     1.0000 0.19909  0.78530  0.61809  Biso   1.000  H
  H285     1.0000 0.18408  0.78331  0.56000  Biso   1.000  H
  H286     1.0000 0.10849  0.75502  0.65040  Biso   1.000  H
  H287     1.0000 0.05090  0.78530  0.63188  Biso   1.000  H
  H288     1.0000 0.06591  0.78331  0.69001  Biso   1.000  H
  C241     1.0000 0.68179  0.17008  0.42289  Biso   1.000  C
  C242     1.0000 0.65409  0.13772  0.37719  Biso   1.000  C
  H289     1.0000 0.67639  0.14769  0.45331  Biso   1.000  H
  H290     1.0000 0.66331  0.20719  0.42691  Biso   1.000  H
  H291     1.0000 0.72291  0.17551  0.41691  Biso   1.000  H
  C243     1.0000 0.59590  0.11231  0.37719  Biso   1.000  C
  N49      1.0000 0.66408  0.17538  0.33420  Biso   1.000  N
  H292     1.0000 0.68029  0.10481  0.37131  Biso   1.000  H
  N50      1.0000 0.58591  0.07461  0.33420  Biso   1.000  N
  H293     1.0000 0.56970  0.14518  0.37131  Biso   1.000  H
  C244     1.0000 0.56820  0.07991  0.42289  Biso   1.000  C
  C245     1.0000 0.70722  0.16639  0.30709  Biso   1.000  C
  C246     1.0000 0.54282  0.08360  0.30709  Biso   1.000  C
  H294     1.0000 0.57360  0.10230  0.45331  Biso   1.000  H
  H295     1.0000 0.58668  0.04280  0.42691  Biso   1.000  H
  H296     1.0000 0.52708  0.07448  0.41691  Biso   1.000  H
  C247     1.0000 0.72038  0.20079  0.26459  Biso   1.000  C
  H297     1.0000 0.73192  0.13568  0.31509  Biso   1.000  H
  C248     1.0000 0.52961  0.04920  0.26459  Biso   1.000  C
  H298     1.0000 0.51812  0.11431  0.31509  Biso   1.000  H
  C249     1.0000 0.68891  0.25160  0.25161  Biso   1.000  C
  C250     1.0000 0.76832  0.18789  0.23439  Biso   1.000  C
  C251     1.0000 0.48171  0.06209  0.23439  Biso   1.000  C
  C252     1.0000 0.56108  0.99839  0.25161  Biso   1.000  C
  C253     1.0000 0.70108  0.28379  0.21130  Biso   1.000  C
  H299     1.0000 0.65812  0.26301  0.27251  Biso   1.000  H
  H300     1.0000 0.79130  0.15591  0.24231  Biso   1.000  H
  C254     1.0000 0.78230  0.22009  0.19430  Biso   1.000  C
  C255     1.0000 0.46769  0.02990  0.19430  Biso   1.000  C
  H301     1.0000 0.45869  0.09412  0.24231  Biso   1.000  H
  C256     1.0000 0.54890  0.96620  0.21130  Biso   1.000  C
  H302     1.0000 0.59191  0.98698  0.27251  Biso   1.000  H
  C257     1.0000 0.66618  0.33359  0.19508  Biso   1.000  C
  C258     1.0000 0.74971  0.26751  0.18259  Biso   1.000  C
  C259     1.0000 0.83221  0.20439  0.16228  Biso   1.000  C
  C260     1.0000 0.41782  0.04560  0.16228  Biso   1.000  C
  C261     1.0000 0.50028  0.98248  0.18259  Biso   1.000  C
  C262     1.0000 0.58381  0.91640  0.19508  Biso   1.000  C
  N51      1.0000 0.67561  0.36179  0.15860  Biso   1.000  N
  H303     1.0000 0.63419  0.34389  0.21502  Biso   1.000  H
  H304     1.0000 0.76009  0.28982  0.15459  Biso   1.000  H
  N52      1.0000 0.86278  0.16168  0.17091  Biso   1.000  N
  H305     1.0000 0.84109  0.22768  0.13451  Biso   1.000  H
  N53      1.0000 0.38720  0.08831  0.17091  Biso   1.000  N
  H306     1.0000 0.40890  0.02231  0.13451  Biso   1.000  H
  H307     1.0000 0.48990  0.96022  0.15459  Biso   1.000  H
  N54      1.0000 0.57442  0.88820  0.15860  Biso   1.000  N
  H308     1.0000 0.61580  0.90609  0.21502  Biso   1.000  H
  C263     1.0000 0.63758  0.41061  0.15180  Biso   1.000  C
  C264     1.0000 0.91420  0.15591  0.13759  Biso   1.000  C
  C265     1.0000 0.33579  0.09412  0.13759  Biso   1.000  C
  C266     1.0000 0.61241  0.83942  0.15180  Biso   1.000  C
  C267     1.0000 0.61241  0.41061  0.09821  Biso   1.000  C
  C268     1.0000 0.66798  0.46350  0.15641  Biso   1.000  C
  H309     1.0000 0.60572  0.40909  0.17671  Biso   1.000  H
  C269     1.0000 0.91420  0.09412  0.11242  Biso   1.000  C
  H310     1.0000 0.91081  0.18471  0.11048  Biso   1.000  H
  C270     1.0000 0.96141  0.16749  0.16370  Biso   1.000  C
  C271     1.0000 0.28858  0.08250  0.16370  Biso   1.000  C
  C272     1.0000 0.33579  0.15591  0.11242  Biso   1.000  C
  H311     1.0000 0.33918  0.06532  0.11048  Biso   1.000  H
  C273     1.0000 0.63758  0.83942  0.09821  Biso   1.000  C
  C274     1.0000 0.58201  0.78649  0.15641  Biso   1.000  C
  H312     1.0000 0.64431  0.84090  0.17671  Biso   1.000  H
  N55      1.0000 0.57442  0.36179  0.09141  Biso   1.000  N
  C275     1.0000 0.58201  0.46350  0.09360  Biso   1.000  C
  H313     1.0000 0.64431  0.40909  0.07330  Biso   1.000  H
  H314     1.0000 0.64148  0.49502  0.15038  Biso   1.000  H
  H315     1.0000 0.69911  0.46469  0.13190  Biso   1.000  H
  H316     1.0000 0.68410  0.46668  0.18999  Biso   1.000  H
  N56      1.0000 0.86278  0.08831  0.07910  Biso   1.000  N
  H317     1.0000 0.91081  0.06532  0.13949  Biso   1.000  H
  C276     1.0000 0.96141  0.08250  0.08631  Biso   1.000  C
  H318     1.0000 0.99498  0.16542  0.14191  Biso   1.000  H
  H319     1.0000 0.96548  0.13988  0.19081  Biso   1.000  H
  H320     1.0000 0.95849  0.20579  0.17772  Biso   1.000  H
  H321     1.0000 0.25501  0.08462  0.14191  Biso   1.000  H
  H322     1.0000 0.28451  0.11011  0.19081  Biso   1.000  H
  H323     1.0000 0.29150  0.04420  0.17772  Biso   1.000  H
  N57      1.0000 0.38720  0.16168  0.07910  Biso   1.000  N
  H324     1.0000 0.33918  0.18471  0.13949  Biso   1.000  H
  C277     1.0000 0.28858  0.16749  0.08631  Biso   1.000  C
  N58      1.0000 0.67561  0.88820  0.09141  Biso   1.000  N
  C278     1.0000 0.66798  0.78649  0.09360  Biso   1.000  C
  H325     1.0000 0.60572  0.84090  0.07330  Biso   1.000  H
  H326     1.0000 0.60851  0.75502  0.15038  Biso   1.000  H
  H327     1.0000 0.55092  0.78530  0.13190  Biso   1.000  H
  H328     1.0000 0.56588  0.78331  0.18999  Biso   1.000  H
  C279     1.0000 0.58381  0.33359  0.05489  Biso   1.000  C
  H329     1.0000 0.60851  0.49502  0.09959  Biso   1.000  H
  H330     1.0000 0.55092  0.46469  0.11811  Biso   1.000  H
  H331     1.0000 0.56588  0.46668  0.05998  Biso   1.000  H
  C280     1.0000 0.83221  0.04560  0.08769  Biso   1.000  C
  H332     1.0000 0.99498  0.08462  0.10810  Biso   1.000  H
  H333     1.0000 0.96548  0.11011  0.05920  Biso   1.000  H
  H334     1.0000 0.95849  0.04420  0.07229  Biso   1.000  H
  C281     1.0000 0.41782  0.20439  0.08769  Biso   1.000  C
  H335     1.0000 0.25501  0.16542  0.10810  Biso   1.000  H
  H336     1.0000 0.28451  0.13988  0.05920  Biso   1.000  H
  H337     1.0000 0.29150  0.20579  0.07229  Biso   1.000  H
  C282     1.0000 0.66618  0.91640  0.05489  Biso   1.000  C
  H338     1.0000 0.64148  0.75502  0.09959  Biso   1.000  H
  H339     1.0000 0.69911  0.78530  0.11811  Biso   1.000  H
  H340     1.0000 0.68410  0.78331  0.05998  Biso   1.000  H
  C283     1.0000 0.54890  0.28379  0.03871  Biso   1.000  C
  H341     1.0000 0.61580  0.34389  0.03499  Biso   1.000  H
  C284     1.0000 0.78230  0.02990  0.05571  Biso   1.000  C
  H342     1.0000 0.84109  0.02231  0.11550  Biso   1.000  H
  C285     1.0000 0.46769  0.22009  0.05571  Biso   1.000  C
  H343     1.0000 0.40890  0.22768  0.11550  Biso   1.000  H
  C286     1.0000 0.70108  0.96620  0.03871  Biso   1.000  C
  H344     1.0000 0.63419  0.90609  0.03499  Biso   1.000  H
  C287     1.0000 0.50028  0.26751  0.06738  Biso   1.000  C
  C288     1.0000 0.56108  0.25160  0.99840  Biso   1.000  C
  C289     1.0000 0.74971  0.98248  0.06738  Biso   1.000  C
  C290     1.0000 0.76832  0.06209  0.01558  Biso   1.000  C
  C291     1.0000 0.48171  0.18789  0.01558  Biso   1.000  C
  C292     1.0000 0.68891  0.99839  0.99840  Biso   1.000  C
  H345     1.0000 0.48990  0.28982  0.09539  Biso   1.000  H
  C293     1.0000 0.52961  0.20079  0.98539  Biso   1.000  C
  H346     1.0000 0.59191  0.26301  0.97750  Biso   1.000  H
  H347     1.0000 0.76009  0.96022  0.09539  Biso   1.000  H
  C294     1.0000 0.72038  0.04920  0.98539  Biso   1.000  C
  H348     1.0000 0.79130  0.09412  0.00770  Biso   1.000  H
  H349     1.0000 0.45869  0.15591  0.00770  Biso   1.000  H
  H350     1.0000 0.65812  0.98698  0.97750  Biso   1.000  H
  C295     1.0000 0.54282  0.16639  0.94292  Biso   1.000  C
  C296     1.0000 0.70722  0.08360  0.94292  Biso   1.000  C
  N59      1.0000 0.58591  0.17538  0.91581  Biso   1.000  N
  H351     1.0000 0.51812  0.13568  0.93489  Biso   1.000  H
  N60      1.0000 0.66408  0.07461  0.91581  Biso   1.000  N
  H352     1.0000 0.73192  0.11431  0.93489  Biso   1.000  H
  C297     1.0000 0.59590  0.13772  0.87278  Biso   1.000  C
  C298     1.0000 0.65409  0.11231  0.87278  Biso   1.000  C
  H353     1.0000 0.56970  0.10481  0.87870  Biso   1.000  H
  C299     1.0000 0.56820  0.17008  0.82712  Biso   1.000  C
  H354     1.0000 0.68029  0.14518  0.87870  Biso   1.000  H
  C300     1.0000 0.68179  0.07991  0.82712  Biso   1.000  C
  H355     1.0000 0.57360  0.14769  0.79670  Biso   1.000  H
  H356     1.0000 0.58668  0.20719  0.82310  Biso   1.000  H
  H357     1.0000 0.52708  0.17551  0.83310  Biso   1.000  H
  H358     1.0000 0.67639  0.10230  0.79670  Biso   1.000  H
  H359     1.0000 0.66331  0.04280  0.82310  Biso   1.000  H
  H360     1.0000 0.72291  0.07448  0.83310  Biso   1.000  H
  C301     1.0000 0.81819  0.32990  0.57711  Biso   1.000  C
  C302     1.0000 0.84589  0.36230  0.62281  Biso   1.000  C
  H361     1.0000 0.82359  0.35229  0.54669  Biso   1.000  H
  H362     1.0000 0.83671  0.29279  0.57309  Biso   1.000  H
  H363     1.0000 0.77711  0.32451  0.58309  Biso   1.000  H
  N61      1.0000 0.83590  0.32460  0.66580  Biso   1.000  N
  C303     1.0000 0.90412  0.38771  0.62281  Biso   1.000  C
  H364     1.0000 0.81969  0.39522  0.62869  Biso   1.000  H
  C304     1.0000 0.79280  0.33359  0.69291  Biso   1.000  C
  N62      1.0000 0.91411  0.42541  0.66580  Biso   1.000  N
  H365     1.0000 0.93032  0.35479  0.62869  Biso   1.000  H
  C305     1.0000 0.93182  0.42011  0.57711  Biso   1.000  C
  C306     1.0000 0.77960  0.29919  0.73541  Biso   1.000  C
  H366     1.0000 0.76811  0.36430  0.68491  Biso   1.000  H
  C307     1.0000 0.95721  0.41638  0.69291  Biso   1.000  C
  H367     1.0000 0.92642  0.39772  0.54669  Biso   1.000  H
  H368     1.0000 0.91330  0.45718  0.57309  Biso   1.000  H
  H369     1.0000 0.97290  0.42550  0.58309  Biso   1.000  H
  C308     1.0000 0.81111  0.24842  0.74839  Biso   1.000  C
  C309     1.0000 0.73170  0.31208  0.76561  Biso   1.000  C
  C310     1.0000 0.97041  0.45082  0.73541  Biso   1.000  C
  H370     1.0000 0.98190  0.38571  0.68491  Biso   1.000  H
  C311     1.0000 0.79889  0.21619  0.78870  Biso   1.000  C
  H371     1.0000 0.84190  0.23701  0.72749  Biso   1.000  H
  H372     1.0000 0.70872  0.34411  0.75769  Biso   1.000  H
  C312     1.0000 0.71768  0.27989  0.80570  Biso   1.000  C
  C313     1.0000 0.93890  0.50159  0.74839  Biso   1.000  C
  C314     1.0000 0.01831  0.43788  0.76561  Biso   1.000  C
  C315     1.0000 0.75031  0.23251  0.81741  Biso   1.000  C
  C316     1.0000 0.83380  0.16639  0.80492  Biso   1.000  C
  C317     1.0000 0.66781  0.29558  0.83772  Biso   1.000  C
  C318     1.0000 0.95112  0.53378  0.78870  Biso   1.000  C
  H373     1.0000 0.90811  0.51300  0.72749  Biso   1.000  H
  H374     1.0000 0.04129  0.40590  0.75769  Biso   1.000  H
  C319     1.0000 0.03229  0.47012  0.80570  Biso   1.000  C
  H375     1.0000 0.73989  0.21020  0.84541  Biso   1.000  H
  N63      1.0000 0.82441  0.13819  0.84140  Biso   1.000  N
  H376     1.0000 0.86579  0.15608  0.78498  Biso   1.000  H
  N64      1.0000 0.63719  0.33830  0.82909  Biso   1.000  N
  H377     1.0000 0.65889  0.27230  0.86549  Biso   1.000  H
  C320     1.0000 0.99970  0.51750  0.81741  Biso   1.000  C
  C321     1.0000 0.91621  0.58362  0.80492  Biso   1.000  C
  C322     1.0000 0.08220  0.45438  0.83772  Biso   1.000  C
  C323     1.0000 0.86240  0.08941  0.84820  Biso   1.000  C
  C324     1.0000 0.58578  0.34411  0.86241  Biso   1.000  C
  H378     1.0000 0.01012  0.53981  0.84541  Biso   1.000  H
  N65      1.0000 0.92560  0.61178  0.84140  Biso   1.000  N
  H379     1.0000 0.88418  0.59388  0.78498  Biso   1.000  H
  N66      1.0000 0.11282  0.41171  0.82909  Biso   1.000  N
  H380     1.0000 0.09112  0.47771  0.86549  Biso   1.000  H
  C325     1.0000 0.88761  0.08941  0.90179  Biso   1.000  C
  C326     1.0000 0.83200  0.03652  0.84359  Biso   1.000  C
  H381     1.0000 0.89430  0.09089  0.82329  Biso   1.000  H
  C327     1.0000 0.58578  0.40590  0.88758  Biso   1.000  C
  H382     1.0000 0.58921  0.31531  0.88952  Biso   1.000  H
  C328     1.0000 0.53861  0.33249  0.83630  Biso   1.000  C
  C329     1.0000 0.88761  0.66060  0.84820  Biso   1.000  C
  C330     1.0000 0.16419  0.40590  0.86241  Biso   1.000  C
  N67      1.0000 0.92560  0.13819  0.90859  Biso   1.000  N
  C331     1.0000 0.91801  0.03652  0.90640  Biso   1.000  C
  H383     1.0000 0.85571  0.09089  0.92670  Biso   1.000  H
  H384     1.0000 0.85850  0.00500  0.84962  Biso   1.000  H
  H385     1.0000 0.80091  0.03529  0.86810  Biso   1.000  H
  H386     1.0000 0.81592  0.03330  0.81001  Biso   1.000  H
  N68      1.0000 0.63719  0.41171  0.92090  Biso   1.000  N
  H387     1.0000 0.58921  0.43470  0.86051  Biso   1.000  H
  C332     1.0000 0.53861  0.41748  0.91369  Biso   1.000  C
  H388     1.0000 0.50500  0.33461  0.85809  Biso   1.000  H
  H389     1.0000 0.53450  0.36010  0.80919  Biso   1.000  H
  H390     1.0000 0.54149  0.29419  0.82228  Biso   1.000  H
  C333     1.0000 0.86240  0.66060  0.90179  Biso   1.000  C
  C334     1.0000 0.91801  0.71349  0.84359  Biso   1.000  C
  H391     1.0000 0.85571  0.65912  0.82329  Biso   1.000  H
  C335     1.0000 0.16419  0.34411  0.88758  Biso   1.000  C
  H392     1.0000 0.16080  0.43470  0.88952  Biso   1.000  H
  C336     1.0000 0.21140  0.41748  0.83630  Biso   1.000  C
  C337     1.0000 0.91621  0.16639  0.94511  Biso   1.000  C
  H393     1.0000 0.89151  0.00500  0.90041  Biso   1.000  H
  H394     1.0000 0.94910  0.03529  0.88189  Biso   1.000  H
  H395     1.0000 0.93409  0.03330  0.94002  Biso   1.000  H
  C338     1.0000 0.66781  0.45438  0.91231  Biso   1.000  C
  H396     1.0000 0.50500  0.41540  0.89190  Biso   1.000  H
  H397     1.0000 0.53450  0.38991  0.94080  Biso   1.000  H
  H398     1.0000 0.54149  0.45578  0.92771  Biso   1.000  H
  N69      1.0000 0.82441  0.61178  0.90859  Biso   1.000  N
  C339     1.0000 0.83200  0.71349  0.90640  Biso   1.000  C
  H399     1.0000 0.89430  0.65912  0.92670  Biso   1.000  H
  H400     1.0000 0.89151  0.74501  0.84962  Biso   1.000  H
  H401     1.0000 0.94910  0.71468  0.86810  Biso   1.000  H
  H402     1.0000 0.93409  0.71672  0.81001  Biso   1.000  H
  N70      1.0000 0.11282  0.33830  0.92090  Biso   1.000  N
  H403     1.0000 0.16080  0.31531  0.86051  Biso   1.000  H
  C340     1.0000 0.21140  0.33249  0.91369  Biso   1.000  C
  H404     1.0000 0.24502  0.41540  0.85809  Biso   1.000  H
  H405     1.0000 0.21551  0.38991  0.80919  Biso   1.000  H
  H406     1.0000 0.20848  0.45578  0.82228  Biso   1.000  H
  C341     1.0000 0.95112  0.21619  0.96129  Biso   1.000  C
  H407     1.0000 0.88418  0.15608  0.96501  Biso   1.000  H
  C342     1.0000 0.71768  0.47012  0.94429  Biso   1.000  C
  H408     1.0000 0.65889  0.47771  0.88450  Biso   1.000  H
  C343     1.0000 0.83380  0.58362  0.94511  Biso   1.000  C
  H409     1.0000 0.85850  0.74501  0.90041  Biso   1.000  H
  H410     1.0000 0.80091  0.71468  0.88189  Biso   1.000  H
  H411     1.0000 0.81592  0.71672  0.94002  Biso   1.000  H
  C344     1.0000 0.08220  0.29558  0.91231  Biso   1.000  C
  H412     1.0000 0.24502  0.33461  0.89190  Biso   1.000  H
  H413     1.0000 0.21551  0.36010  0.94080  Biso   1.000  H
  H414     1.0000 0.20848  0.29419  0.92771  Biso   1.000  H
  C345     1.0000 0.99970  0.23251  0.93262  Biso   1.000  C
  C346     1.0000 0.93890  0.24842  0.00160  Biso   1.000  C
  C347     1.0000 0.73170  0.43788  0.98442  Biso   1.000  C
  C348     1.0000 0.75031  0.51750  0.93262  Biso   1.000  C
  C349     1.0000 0.79889  0.53378  0.96129  Biso   1.000  C
  H415     1.0000 0.86579  0.59388  0.96501  Biso   1.000  H
  C350     1.0000 0.03229  0.27989  0.94429  Biso   1.000  C
  H416     1.0000 0.09112  0.27230  0.88450  Biso   1.000  H
  H417     1.0000 0.01012  0.21020  0.90461  Biso   1.000  H
  H418     1.0000 0.90811  0.23701  0.02250  Biso   1.000  H
  C351     1.0000 0.97041  0.29919  0.01461  Biso   1.000  C
  H419     1.0000 0.70872  0.40590  0.99230  Biso   1.000  H
  C352     1.0000 0.77960  0.45082  0.01461  Biso   1.000  C
  H420     1.0000 0.73989  0.53981  0.90461  Biso   1.000  H
  C353     1.0000 0.81111  0.50159  0.00160  Biso   1.000  C
  C354     1.0000 0.01831  0.31208  0.98442  Biso   1.000  C
  C355     1.0000 0.95721  0.33359  0.05708  Biso   1.000  C
  C356     1.0000 0.79280  0.41638  0.05708  Biso   1.000  C
  H421     1.0000 0.84190  0.51300  0.02250  Biso   1.000  H
  H422     1.0000 0.04129  0.34411  0.99230  Biso   1.000  H
  N71      1.0000 0.91411  0.32460  0.08419  Biso   1.000  N
  H423     1.0000 0.98190  0.36430  0.06511  Biso   1.000  H
  N72      1.0000 0.83590  0.42541  0.08419  Biso   1.000  N
  H424     1.0000 0.76811  0.38571  0.06511  Biso   1.000  H
  C357     1.0000 0.90412  0.36230  0.12722  Biso   1.000  C
  C358     1.0000 0.84589  0.38771  0.12722  Biso   1.000  C
  H425     1.0000 0.93032  0.39522  0.12130  Biso   1.000  H
  C359     1.0000 0.93182  0.32990  0.17288  Biso   1.000  C
  H426     1.0000 0.81969  0.35479  0.12130  Biso   1.000  H
  C360     1.0000 0.81819  0.42011  0.17288  Biso   1.000  C
  H427     1.0000 0.92642  0.35229  0.20330  Biso   1.000  H
  H428     1.0000 0.91330  0.29279  0.17690  Biso   1.000  H
  H429     1.0000 0.97290  0.32451  0.16690  Biso   1.000  H
  H430     1.0000 0.82359  0.39772  0.20330  Biso   1.000  H
  H431     1.0000 0.83671  0.45718  0.17690  Biso   1.000  H
  H432     1.0000 0.77711  0.42550  0.16690  Biso   1.000  H
  C361     1.0000 0.83200  0.53650  0.34361  Biso   1.000  C
  C362     1.0000 0.86240  0.58939  0.34818  Biso   1.000  C
  H433     1.0000 0.85850  0.50498  0.34960  Biso   1.000  H
  H434     1.0000 0.80091  0.53531  0.36812  Biso   1.000  H
  H435     1.0000 0.81592  0.53332  0.30999  Biso   1.000  H
  N73      1.0000 0.82441  0.63821  0.34142  Biso   1.000  N
  C363     1.0000 0.88761  0.58939  0.40181  Biso   1.000  C
  H436     1.0000 0.89430  0.59091  0.32331  Biso   1.000  H
  C364     1.0000 0.83380  0.66641  0.30490  Biso   1.000  C
  N74      1.0000 0.92560  0.63821  0.40861  Biso   1.000  N
  C365     1.0000 0.91801  0.53650  0.40642  Biso   1.000  C
  H437     1.0000 0.85571  0.59091  0.42669  Biso   1.000  H
  C366     1.0000 0.79889  0.71621  0.28868  Biso   1.000  C
  H438     1.0000 0.86579  0.65611  0.28500  Biso   1.000  H
  C367     1.0000 0.91621  0.66641  0.44509  Biso   1.000  C
  H439     1.0000 0.89151  0.50498  0.40039  Biso   1.000  H
  H440     1.0000 0.94910  0.53531  0.38191  Biso   1.000  H
  H441     1.0000 0.93409  0.53332  0.44000  Biso   1.000  H
  C368     1.0000 0.81111  0.74840  0.24841  Biso   1.000  C
  C369     1.0000 0.75031  0.73249  0.31739  Biso   1.000  C
  C370     1.0000 0.95112  0.71621  0.46131  Biso   1.000  C
  H442     1.0000 0.88418  0.65611  0.46499  Biso   1.000  H
  H443     1.0000 0.84190  0.73699  0.22751  Biso   1.000  H
  C371     1.0000 0.77960  0.79921  0.23539  Biso   1.000  C
  C372     1.0000 0.71768  0.77991  0.30572  Biso   1.000  C
  H444     1.0000 0.73989  0.71018  0.34539  Biso   1.000  H
  C373     1.0000 0.93890  0.74840  0.50162  Biso   1.000  C
  C374     1.0000 0.99970  0.73249  0.43260  Biso   1.000  C
  C375     1.0000 0.73170  0.81211  0.26559  Biso   1.000  C
  C376     1.0000 0.79280  0.83361  0.19289  Biso   1.000  C
  C377     1.0000 0.66781  0.79561  0.33770  Biso   1.000  C
  H445     1.0000 0.90811  0.73699  0.52252  Biso   1.000  H
  C378     1.0000 0.97041  0.79921  0.51460  Biso   1.000  C
  C379     1.0000 0.03229  0.77991  0.44431  Biso   1.000  C
  H446     1.0000 0.01012  0.71018  0.40460  Biso   1.000  H
  H447     1.0000 0.70872  0.84409  0.25771  Biso   1.000  H
  N75      1.0000 0.83590  0.82462  0.16582  Biso   1.000  N
  H448     1.0000 0.76811  0.86432  0.18489  Biso   1.000  H
  N76      1.0000 0.63719  0.83832  0.32911  Biso   1.000  N
  H449     1.0000 0.65889  0.77232  0.36551  Biso   1.000  H
  C380     1.0000 0.95721  0.83361  0.55710  Biso   1.000  C
  C381     1.0000 0.01831  0.81211  0.48440  Biso   1.000  C
  C382     1.0000 0.08220  0.79561  0.41229  Biso   1.000  C
  C383     1.0000 0.84589  0.86228  0.12279  Biso   1.000  C
  C384     1.0000 0.58578  0.84409  0.36239  Biso   1.000  C
  N77      1.0000 0.91411  0.82462  0.58421  Biso   1.000  N
  H450     1.0000 0.98190  0.86432  0.56510  Biso   1.000  H
  H451     1.0000 0.04129  0.84409  0.49228  Biso   1.000  H
  N78      1.0000 0.11282  0.83832  0.42088  Biso   1.000  N
  H452     1.0000 0.09112  0.77232  0.38452  Biso   1.000  H
  C385     1.0000 0.90412  0.88769  0.12279  Biso   1.000  C
  H453     1.0000 0.81969  0.89519  0.12870  Biso   1.000  H
  C386     1.0000 0.81819  0.82992  0.07709  Biso   1.000  C
  C387     1.0000 0.58578  0.90588  0.38760  Biso   1.000  C
  H454     1.0000 0.58921  0.81529  0.38950  Biso   1.000  H
  C388     1.0000 0.53861  0.83251  0.33628  Biso   1.000  C
  C389     1.0000 0.90412  0.86228  0.62720  Biso   1.000  C
  C390     1.0000 0.16419  0.84409  0.38760  Biso   1.000  C
  N79      1.0000 0.91411  0.92539  0.16582  Biso   1.000  N
  H455     1.0000 0.93032  0.85482  0.12870  Biso   1.000  H
  C391     1.0000 0.93182  0.92009  0.07709  Biso   1.000  C
  H456     1.0000 0.82359  0.85231  0.04671  Biso   1.000  H
  H457     1.0000 0.83671  0.79281  0.07311  Biso   1.000  H
  H458     1.0000 0.77711  0.82449  0.08311  Biso   1.000  H
  N80      1.0000 0.63719  0.91169  0.42088  Biso   1.000  N
  H459     1.0000 0.58921  0.93468  0.36049  Biso   1.000  H
  C392     1.0000 0.53861  0.91750  0.41371  Biso   1.000  C
  H460     1.0000 0.50500  0.83458  0.35811  Biso   1.000  H
  H461     1.0000 0.53450  0.86012  0.30921  Biso   1.000  H
  H462     1.0000 0.54149  0.79421  0.32230  Biso   1.000  H
  C393     1.0000 0.84589  0.88769  0.62720  Biso   1.000  C
  H463     1.0000 0.93032  0.89519  0.62129  Biso   1.000  H
  C394     1.0000 0.93182  0.82992  0.67290  Biso   1.000  C
  C395     1.0000 0.16419  0.90588  0.36239  Biso   1.000  C
  H464     1.0000 0.16080  0.81529  0.36049  Biso   1.000  H
  C396     1.0000 0.21140  0.83251  0.41371  Biso   1.000  C
  C397     1.0000 0.95721  0.91640  0.19289  Biso   1.000  C
  H465     1.0000 0.92642  0.89770  0.04671  Biso   1.000  H
  H466     1.0000 0.91330  0.95720  0.07311  Biso   1.000  H
  H467     1.0000 0.97290  0.92552  0.08311  Biso   1.000  H
  C398     1.0000 0.66781  0.95440  0.41229  Biso   1.000  C
  H468     1.0000 0.50500  0.91538  0.39192  Biso   1.000  H
  H469     1.0000 0.53450  0.88989  0.44082  Biso   1.000  H
  H470     1.0000 0.54149  0.95580  0.42769  Biso   1.000  H
  N81      1.0000 0.83590  0.92539  0.58421  Biso   1.000  N
  H471     1.0000 0.81969  0.85482  0.62129  Biso   1.000  H
  C399     1.0000 0.81819  0.92009  0.67290  Biso   1.000  C
  H472     1.0000 0.92642  0.85231  0.70328  Biso   1.000  H
  H473     1.0000 0.91330  0.79281  0.67692  Biso   1.000  H
  H474     1.0000 0.97290  0.82449  0.66691  Biso   1.000  H
  N82      1.0000 0.11282  0.91169  0.32911  Biso   1.000  N
  H475     1.0000 0.16080  0.93468  0.38950  Biso   1.000  H
  C400     1.0000 0.21140  0.91750  0.33628  Biso   1.000  C
  H476     1.0000 0.24502  0.83458  0.39192  Biso   1.000  H
  H477     1.0000 0.21551  0.86012  0.44082  Biso   1.000  H
  H478     1.0000 0.20848  0.79421  0.42769  Biso   1.000  H
  C401     1.0000 0.97041  0.95080  0.23539  Biso   1.000  C
  H479     1.0000 0.98190  0.88569  0.18489  Biso   1.000  H
  C402     1.0000 0.71768  0.97010  0.44431  Biso   1.000  C
  H480     1.0000 0.65889  0.97769  0.38452  Biso   1.000  H
  C403     1.0000 0.79280  0.91640  0.55710  Biso   1.000  C
  H481     1.0000 0.82359  0.89770  0.70328  Biso   1.000  H
  H482     1.0000 0.83671  0.95720  0.67692  Biso   1.000  H
  H483     1.0000 0.77711  0.92552  0.66691  Biso   1.000  H
  C404     1.0000 0.08220  0.95440  0.33770  Biso   1.000  C
  H484     1.0000 0.24502  0.91538  0.35811  Biso   1.000  H
  H485     1.0000 0.21551  0.88989  0.30921  Biso   1.000  H
  H486     1.0000 0.20848  0.95580  0.32230  Biso   1.000  H
  C405     1.0000 0.93890  0.00161  0.24841  Biso   1.000  C
  C406     1.0000 0.01831  0.93791  0.26559  Biso   1.000  C
  C407     1.0000 0.73170  0.93791  0.48440  Biso   1.000  C
  C408     1.0000 0.75031  0.01752  0.43260  Biso   1.000  C
  C409     1.0000 0.77960  0.95080  0.51460  Biso   1.000  C
  H487     1.0000 0.76811  0.88569  0.56510  Biso   1.000  H
  C410     1.0000 0.03229  0.97010  0.30572  Biso   1.000  C
  H488     1.0000 0.09112  0.97769  0.36551  Biso   1.000  H
  C411     1.0000 0.95112  0.03380  0.28868  Biso   1.000  C
  H489     1.0000 0.90811  0.01302  0.22751  Biso   1.000  H
  H490     1.0000 0.04129  0.90588  0.25771  Biso   1.000  H
  H491     1.0000 0.70872  0.90588  0.49228  Biso   1.000  H
  C412     1.0000 0.79889  0.03380  0.46131  Biso   1.000  C
  H492     1.0000 0.73989  0.03978  0.40460  Biso   1.000  H
  C413     1.0000 0.81111  0.00161  0.50162  Biso   1.000  C
  C414     1.0000 0.99970  0.01752  0.31739  Biso   1.000  C
  C415     1.0000 0.91621  0.08360  0.30490  Biso   1.000  C
  C416     1.0000 0.83380  0.08360  0.44509  Biso   1.000  C
  H493     1.0000 0.84190  0.01302  0.52252  Biso   1.000  H
  H494     1.0000 0.01012  0.03978  0.34539  Biso   1.000  H
  N83      1.0000 0.92560  0.11180  0.34142  Biso   1.000  N
  H495     1.0000 0.88418  0.09391  0.28500  Biso   1.000  H
  N84      1.0000 0.82441  0.11180  0.40861  Biso   1.000  N
  H496     1.0000 0.86579  0.09391  0.46499  Biso   1.000  H
  C417     1.0000 0.88761  0.16058  0.34818  Biso   1.000  C
  C418     1.0000 0.86240  0.16058  0.40181  Biso   1.000  C
  C419     1.0000 0.91801  0.21351  0.34361  Biso   1.000  C
  H497     1.0000 0.85571  0.15910  0.32331  Biso   1.000  H
  C420     1.0000 0.83200  0.21351  0.40642  Biso   1.000  C
  H498     1.0000 0.89430  0.15910  0.42669  Biso   1.000  H
  H499     1.0000 0.89151  0.24498  0.34960  Biso   1.000  H
  H500     1.0000 0.94910  0.21470  0.36812  Biso   1.000  H
  H501     1.0000 0.93409  0.21669  0.30999  Biso   1.000  H
  H502     1.0000 0.85850  0.24498  0.40039  Biso   1.000  H
  H503     1.0000 0.80091  0.21470  0.38191  Biso   1.000  H
  H504     1.0000 0.81592  0.21669  0.44000  Biso   1.000  H
  C421     1.0000 0.31821  0.82992  0.57711  Biso   1.000  C
  C422     1.0000 0.34591  0.86228  0.62281  Biso   1.000  C
  H505     1.0000 0.32361  0.85231  0.54669  Biso   1.000  H
  H506     1.0000 0.33669  0.79281  0.57309  Biso   1.000  H
  H507     1.0000 0.27709  0.82449  0.58309  Biso   1.000  H
  N85      1.0000 0.33592  0.82462  0.66580  Biso   1.000  N
  C423     1.0000 0.40410  0.88769  0.62281  Biso   1.000  C
  H508     1.0000 0.31971  0.89519  0.62869  Biso   1.000  H
  C424     1.0000 0.29278  0.83361  0.69291  Biso   1.000  C
  N86      1.0000 0.41409  0.92539  0.66580  Biso   1.000  N
  H509     1.0000 0.43030  0.85482  0.62869  Biso   1.000  H
  C425     1.0000 0.43180  0.92009  0.57711  Biso   1.000  C
  C426     1.0000 0.27962  0.79921  0.73541  Biso   1.000  C
  H510     1.0000 0.26808  0.86432  0.68491  Biso   1.000  H
  C427     1.0000 0.45718  0.91640  0.69291  Biso   1.000  C
  H511     1.0000 0.42640  0.89770  0.54669  Biso   1.000  H
  H512     1.0000 0.41332  0.95720  0.57309  Biso   1.000  H
  H513     1.0000 0.47292  0.92552  0.58309  Biso   1.000  H
  C428     1.0000 0.31109  0.74840  0.74839  Biso   1.000  C
  C429     1.0000 0.23168  0.81211  0.76561  Biso   1.000  C
  C430     1.0000 0.47039  0.95080  0.73541  Biso   1.000  C
  H514     1.0000 0.48188  0.88569  0.68491  Biso   1.000  H
  C431     1.0000 0.29892  0.71621  0.78870  Biso   1.000  C
  H515     1.0000 0.34188  0.73699  0.72749  Biso   1.000  H
  H516     1.0000 0.20870  0.84409  0.75769  Biso   1.000  H
  C432     1.0000 0.21770  0.77991  0.80570  Biso   1.000  C
  C433     1.0000 0.51829  0.93791  0.76561  Biso   1.000  C
  C434     1.0000 0.43892  0.00161  0.74839  Biso   1.000  C
  C435     1.0000 0.25029  0.73249  0.81741  Biso   1.000  C
  C436     1.0000 0.33382  0.66641  0.80492  Biso   1.000  C
  C437     1.0000 0.16779  0.79561  0.83772  Biso   1.000  C
  H517     1.0000 0.54131  0.90588  0.75769  Biso   1.000  H
  C438     1.0000 0.53231  0.97010  0.80570  Biso   1.000  C
  C439     1.0000 0.45110  0.03380  0.78870  Biso   1.000  C
  H518     1.0000 0.40809  0.01302  0.72749  Biso   1.000  H
  H519     1.0000 0.23991  0.71018  0.84541  Biso   1.000  H
  N87      1.0000 0.32439  0.63821  0.84140  Biso   1.000  N
  H520     1.0000 0.36581  0.65611  0.78498  Biso   1.000  H
  N88      1.0000 0.13722  0.83832  0.82909  Biso   1.000  N
  H521     1.0000 0.15891  0.77232  0.86549  Biso   1.000  H
  C440     1.0000 0.58218  0.95440  0.83772  Biso   1.000  C
  C441     1.0000 0.49972  0.01752  0.81741  Biso   1.000  C
  C442     1.0000 0.41619  0.08360  0.80492  Biso   1.000  C
  C443     1.0000 0.36242  0.58939  0.84820  Biso   1.000  C
  C444     1.0000 0.08580  0.84409  0.86241  Biso   1.000  C
  N89      1.0000 0.61280  0.91169  0.82909  Biso   1.000  N
  H522     1.0000 0.59110  0.97769  0.86549  Biso   1.000  H
  H523     1.0000 0.51010  0.03978  0.84541  Biso   1.000  H
  N90      1.0000 0.42558  0.11180  0.84140  Biso   1.000  N
  H524     1.0000 0.38420  0.09391  0.78498  Biso   1.000  H
  C445     1.0000 0.38759  0.58939  0.90179  Biso   1.000  C
  C446     1.0000 0.33202  0.53650  0.84359  Biso   1.000  C
  H525     1.0000 0.39428  0.59091  0.82329  Biso   1.000  H
  C447     1.0000 0.08580  0.90588  0.88758  Biso   1.000  C
  H526     1.0000 0.08919  0.81529  0.88952  Biso   1.000  H
  C448     1.0000 0.03859  0.83251  0.83630  Biso   1.000  C
  C449     1.0000 0.66421  0.90588  0.86241  Biso   1.000  C
  C450     1.0000 0.38759  0.16058  0.84820  Biso   1.000  C
  N91      1.0000 0.42558  0.63821  0.90859  Biso   1.000  N
  C451     1.0000 0.41799  0.53650  0.90640  Biso   1.000  C
  H527     1.0000 0.35569  0.59091  0.92670  Biso   1.000  H
  H528     1.0000 0.35852  0.50498  0.84962  Biso   1.000  H
  H529     1.0000 0.30089  0.53531  0.86810  Biso   1.000  H
  H530     1.0000 0.31590  0.53332  0.81001  Biso   1.000  H
  N92      1.0000 0.13722  0.91169  0.92090  Biso   1.000  N
  H531     1.0000 0.08919  0.93468  0.86051  Biso   1.000  H
  C452     1.0000 0.03859  0.91750  0.91369  Biso   1.000  C
  H532     1.0000 0.00502  0.83458  0.85809  Biso   1.000  H
  H533     1.0000 0.03452  0.86012  0.80919  Biso   1.000  H
  H534     1.0000 0.04151  0.79421  0.82228  Biso   1.000  H
  C453     1.0000 0.66421  0.84409  0.88758  Biso   1.000  C
  H535     1.0000 0.66082  0.93468  0.88952  Biso   1.000  H
  C454     1.0000 0.71142  0.91750  0.83630  Biso   1.000  C
  C455     1.0000 0.36242  0.16058  0.90179  Biso   1.000  C
  C456     1.0000 0.41799  0.21351  0.84359  Biso   1.000  C
  H536     1.0000 0.35569  0.15910  0.82329  Biso   1.000  H
  C457     1.0000 0.41619  0.66641  0.94511  Biso   1.000  C
  H537     1.0000 0.39149  0.50498  0.90041  Biso   1.000  H
  H538     1.0000 0.44908  0.53531  0.88189  Biso   1.000  H
  H539     1.0000 0.43412  0.53332  0.94002  Biso   1.000  H
  C458     1.0000 0.16779  0.95440  0.91231  Biso   1.000  C
  H540     1.0000 0.00502  0.91538  0.89190  Biso   1.000  H
  H541     1.0000 0.03452  0.88989  0.94080  Biso   1.000  H
  H542     1.0000 0.04151  0.95580  0.92771  Biso   1.000  H
  N93      1.0000 0.61280  0.83832  0.92090  Biso   1.000  N
  H543     1.0000 0.66082  0.81529  0.86051  Biso   1.000  H
  C459     1.0000 0.71142  0.83251  0.91369  Biso   1.000  C
  H544     1.0000 0.74499  0.91538  0.85809  Biso   1.000  H
  H545     1.0000 0.71549  0.88989  0.80919  Biso   1.000  H
  H546     1.0000 0.70850  0.95580  0.82228  Biso   1.000  H
  N94      1.0000 0.32439  0.11180  0.90859  Biso   1.000  N
  C460     1.0000 0.33202  0.21351  0.90640  Biso   1.000  C
  H547     1.0000 0.39428  0.15910  0.92670  Biso   1.000  H
  H548     1.0000 0.39149  0.24498  0.84962  Biso   1.000  H
  H549     1.0000 0.44908  0.21470  0.86810  Biso   1.000  H
  H550     1.0000 0.43412  0.21669  0.81001  Biso   1.000  H
  C461     1.0000 0.45110  0.71621  0.96129  Biso   1.000  C
  H551     1.0000 0.38420  0.65611  0.96501  Biso   1.000  H
  C462     1.0000 0.21770  0.97010  0.94429  Biso   1.000  C
  H552     1.0000 0.15891  0.97769  0.88450  Biso   1.000  H
  C463     1.0000 0.58218  0.79561  0.91231  Biso   1.000  C
  H553     1.0000 0.74499  0.83458  0.89190  Biso   1.000  H
  H554     1.0000 0.71549  0.86012  0.94080  Biso   1.000  H
  H555     1.0000 0.70850  0.79421  0.92771  Biso   1.000  H
  C464     1.0000 0.33382  0.08360  0.94511  Biso   1.000  C
  H556     1.0000 0.35852  0.24498  0.90041  Biso   1.000  H
  H557     1.0000 0.30089  0.21470  0.88189  Biso   1.000  H
  H558     1.0000 0.31590  0.21669  0.94002  Biso   1.000  H
  C465     1.0000 0.49972  0.73249  0.93262  Biso   1.000  C
  C466     1.0000 0.43892  0.74840  0.00160  Biso   1.000  C
  C467     1.0000 0.23168  0.93791  0.98442  Biso   1.000  C
  C468     1.0000 0.25029  0.01752  0.93262  Biso   1.000  C
  C469     1.0000 0.53231  0.77991  0.94429  Biso   1.000  C
  H559     1.0000 0.59110  0.77232  0.88450  Biso   1.000  H
  C470     1.0000 0.29892  0.03380  0.96129  Biso   1.000  C
  H560     1.0000 0.36581  0.09391  0.96501  Biso   1.000  H
  H561     1.0000 0.51010  0.71018  0.90461  Biso   1.000  H
  H562     1.0000 0.40809  0.73699  0.02250  Biso   1.000  H
  C471     1.0000 0.47039  0.79921  0.01461  Biso   1.000  C
  H563     1.0000 0.20870  0.90588  0.99230  Biso   1.000  H
  C472     1.0000 0.27962  0.95080  0.01461  Biso   1.000  C
  H564     1.0000 0.23991  0.03978  0.90461  Biso   1.000  H
  C473     1.0000 0.51829  0.81211  0.98442  Biso   1.000  C
  C474     1.0000 0.31109  0.00161  0.00160  Biso   1.000  C
  C475     1.0000 0.45718  0.83361  0.05708  Biso   1.000  C
  C476     1.0000 0.29278  0.91640  0.05708  Biso   1.000  C
  H565     1.0000 0.54131  0.84409  0.99230  Biso   1.000  H
  H566     1.0000 0.34188  0.01302  0.02250  Biso   1.000  H
  N95      1.0000 0.41409  0.82462  0.08419  Biso   1.000  N
  H567     1.0000 0.48188  0.86432  0.06511  Biso   1.000  H
  N96      1.0000 0.33592  0.92539  0.08419  Biso   1.000  N
  H568     1.0000 0.26808  0.88569  0.06511  Biso   1.000  H
  C477     1.0000 0.40410  0.86228  0.12722  Biso   1.000  C
  C478     1.0000 0.34591  0.88769  0.12722  Biso   1.000  C
  H569     1.0000 0.43030  0.89519  0.12130  Biso   1.000  H
  C479     1.0000 0.43180  0.82992  0.17288  Biso   1.000  C
  H570     1.0000 0.31971  0.85482  0.12130  Biso   1.000  H
  C480     1.0000 0.31821  0.92009  0.17288  Biso   1.000  C
  H571     1.0000 0.42640  0.85231  0.20330  Biso   1.000  H
  H572     1.0000 0.41332  0.79281  0.17690  Biso   1.000  H
  H573     1.0000 0.47292  0.82449  0.16690  Biso   1.000  H
  H574     1.0000 0.32361  0.89770  0.20330  Biso   1.000  H
  H575     1.0000 0.33669  0.95720  0.17690  Biso   1.000  H
  H576     1.0000 0.27709  0.92552  0.16690  Biso   1.000  H
