data_image0
_cell_length_a       14.559
_cell_length_b       17.521
_cell_length_c       36.519
_cell_angle_alpha    90
_cell_angle_beta     90
_cell_angle_gamma    90

_symmetry_space_group_name_H-M    "P 1"
_symmetry_int_tables_number       1

loop_
  _symmetry_equiv_pos_as_xyz
  'x, y, z'

loop_
  _atom_site_label
  _atom_site_occupancy
  _atom_site_fract_x
  _atom_site_fract_y
  _atom_site_fract_z
  _atom_site_thermal_displace_type
  _atom_site_B_iso_or_equiv
  _atom_site_type_symbol
  O1       1.0000 0.54008  0.44193  0.48254  Biso   1.000  O
  C1       1.0000 0.58411  0.45979  0.44790  Biso   1.000  C
  C2       1.0000 0.53967  0.36607  0.49541  Biso   1.000  C
  C3       1.0000 0.51157  0.49472  0.42290  Biso   1.000  C
  C4       1.0000 0.66220  0.51658  0.45409  Biso   1.000  C
  H1       1.0000 0.60842  0.41299  0.43679  Biso   1.000  H
  O2       1.0000 0.59462  0.36139  0.52849  Biso   1.000  O
  H2       1.0000 0.56680  0.33280  0.47671  Biso   1.000  H
  C5       1.0000 0.44241  0.34108  0.50251  Biso   1.000  C
  O3       1.0000 0.44158  0.44050  0.41581  Biso   1.000  O
  C6       1.0000 0.55698  0.52200  0.38750  Biso   1.000  C
  H3       1.0000 0.48417  0.53872  0.43531  Biso   1.000  H
  O4       1.0000 0.69847  0.53981  0.41899  Biso   1.000  O
  C7       1.0000 0.73913  0.48502  0.47581  Biso   1.000  C
  H4       1.0000 0.63782  0.56161  0.46669  Biso   1.000  H
  C8       1.0000 0.55663  0.40392  0.55979  Biso   1.000  C
  H5       1.0000 0.44399  0.28811  0.51091  Biso   1.000  H
  C9       1.0000 0.40113  0.38879  0.53260  Biso   1.000  C
  O5       1.0000 0.38863  0.34387  0.46992  Biso   1.000  O
  H6       1.0000 0.43252  0.41482  0.43421  Biso   1.000  H
  C10      1.0000 0.63480  0.57508  0.39620  Biso   1.000  C
  H7       1.0000 0.58163  0.47748  0.37449  Biso   1.000  H
  O6       1.0000 0.48891  0.55699  0.36493  Biso   1.000  O
  S1       1.0000 0.82938  0.55048  0.48629  Biso   1.000  S
  H8       1.0000 0.76509  0.44221  0.46250  Biso   1.000  H
  H9       1.0000 0.71447  0.46533  0.49859  Biso   1.000  H
  C11      1.0000 0.62140  0.39592  0.59030  Biso   1.000  C
  H10      1.0000 0.55553  0.45802  0.55289  Biso   1.000  H
  C12      1.0000 0.46081  0.38029  0.56661  Biso   1.000  C
  H11      1.0000 0.40161  0.44250  0.52490  Biso   1.000  H
  O7       1.0000 0.31012  0.36750  0.54060  Biso   1.000  O
  H12      1.0000 0.38869  0.38748  0.46179  Biso   1.000  H
  H13      1.0000 0.66529  0.58992  0.37331  Biso   1.000  H
  O8       1.0000 0.59860  0.64100  0.41315  Biso   1.000  O
  H14      1.0000 0.48692  0.60288  0.36929  Biso   1.000  H
  C13      1.0000 0.78309  0.63410  0.51831  Biso   1.000  C
  S2       1.0000 0.63507  0.29456  0.60207  Biso   1.000  S
  H15      1.0000 0.59867  0.42372  0.61141  Biso   1.000  H
  H16      1.0000 0.68040  0.41733  0.58350  Biso   1.000  H
  H17      1.0000 0.46068  0.32652  0.57389  Biso   1.000  H
  O9       1.0000 0.42077  0.42469  0.59596  Biso   1.000  O
  H18      1.0000 0.27488  0.40118  0.53380  Biso   1.000  H
  C14      1.0000 0.60258  0.71212  0.39360  Biso   1.000  C
  H19      1.0000 0.83323  0.66377  0.52849  Biso   1.000  H
  H20      1.0000 0.74202  0.66783  0.50500  Biso   1.000  H
  C15      1.0000 0.73707  0.59471  0.54520  Biso   1.000  C
  C16      1.0000 0.66893  0.30312  0.64931  Biso   1.000  C
  C17      1.0000 0.40092  0.38651  0.62929  Biso   1.000  C
  C18      1.0000 0.68233  0.76131  0.40790  Biso   1.000  C
  C19      1.0000 0.51240  0.75241  0.40009  Biso   1.000  C
  H21      1.0000 0.61062  0.70241  0.36740  Biso   1.000  H
  H22      1.0000 0.77993  0.57131  0.56220  Biso   1.000  H
  H23      1.0000 0.69867  0.55522  0.53460  Biso   1.000  H
  O10      1.0000 0.67807  0.65561  0.56461  Biso   1.000  O
  H24      1.0000 0.62339  0.33331  0.66231  Biso   1.000  H
  H25      1.0000 0.67031  0.25278  0.66040  Biso   1.000  H
  C20      1.0000 0.76331  0.34062  0.65391  Biso   1.000  C
  O11      1.0000 0.45930  0.41390  0.65716  Biso   1.000  O
  H26      1.0000 0.41280  0.33189  0.62600  Biso   1.000  H
  C21      1.0000 0.29920  0.39712  0.63939  Biso   1.000  C
  C22      1.0000 0.77279  0.72519  0.39610  Biso   1.000  C
  H27      1.0000 0.67937  0.76600  0.43460  Biso   1.000  H
  O12      1.0000 0.68013  0.83488  0.39100  Biso   1.000  O
  C23      1.0000 0.51068  0.83232  0.38421  Biso   1.000  C
  H28      1.0000 0.50113  0.75532  0.42649  Biso   1.000  H
  O13      1.0000 0.44110  0.70789  0.38331  Biso   1.000  O
  H29      1.0000 0.63452  0.66720  0.55149  Biso   1.000  H
  H30      1.0000 0.80782  0.31528  0.63830  Biso   1.000  H
  H31      1.0000 0.76008  0.39393  0.64670  Biso   1.000  H
  O14      1.0000 0.79168  0.33480  0.69169  Biso   1.000  O
  C24      1.0000 0.44357  0.49301  0.66741  Biso   1.000  C
  H32      1.0000 0.28608  0.36448  0.66059  Biso   1.000  H
  C25      1.0000 0.28003  0.47828  0.65040  Biso   1.000  C
  O15      1.0000 0.24322  0.37161  0.60971  Biso   1.000  O
  S3       1.0000 0.86682  0.78700  0.40688  Biso   1.000  S
  H33      1.0000 0.77148  0.71560  0.37000  Biso   1.000  H
  H34      1.0000 0.78069  0.67667  0.40850  Biso   1.000  H
  S4       1.0000 0.86950  0.76057  0.43221  Biso   1.000  S
  C26      1.0000 0.59832  0.87529  0.39719  Biso   1.000  C
  H35      1.0000 0.51329  0.82798  0.35751  Biso   1.000  H
  O16      1.0000 0.43217  0.87250  0.39319  Biso   1.000  O
  H36      1.0000 0.39103  0.72228  0.39081  Biso   1.000  H
  H37      1.0000 0.81111  0.29171  0.69569  Biso   1.000  H
  C27      1.0000 0.51288  0.51070  0.69649  Biso   1.000  C
  H38      1.0000 0.45429  0.52600  0.64610  Biso   1.000  H
  C28      1.0000 0.34419  0.50123  0.68000  Biso   1.000  C
  H39      1.0000 0.29013  0.51150  0.62910  Biso   1.000  H
  O17      1.0000 0.18779  0.48627  0.66209  Biso   1.000  O
  H40      1.0000 0.27358  0.37133  0.59079  Biso   1.000  H
  C29      1.0000 0.96470  0.72467  0.39311  Biso   1.000  C
  H41      1.0000 0.60203  0.92352  0.38369  Biso   1.000  H
  O18      1.0000 0.58582  0.89259  0.43465  Biso   1.000  O
  H42      1.0000 0.38732  0.85132  0.38429  Biso   1.000  H
  S5       1.0000 0.63191  0.51053  0.68337  Biso   1.000  S
  H43      1.0000 0.50512  0.47389  0.71609  Biso   1.000  H
  H44      1.0000 0.49859  0.56058  0.70651  Biso   1.000  H
  O19      1.0000 0.32688  0.57999  0.68948  Biso   1.000  O
  H45      1.0000 0.33388  0.46892  0.70150  Biso   1.000  H
  H46      1.0000 0.16107  0.44529  0.66001  Biso   1.000  H
  H47      1.0000 0.95762  0.71217  0.36740  Biso   1.000  H
  C30      1.0000 0.97500  0.65390  0.41329  Biso   1.000  C
  H48      1.0000 0.02088  0.75390  0.39549  Biso   1.000  H
  C31      1.0000 0.60753  0.96889  0.44640  Biso   1.000  C
  C32      1.0000 0.63569  0.59460  0.65380  Biso   1.000  C
  C33      1.0000 0.29858  0.59449  0.72579  Biso   1.000  C
  H49      1.0000 0.92012  0.62348  0.41121  Biso   1.000  H
  O20      1.0000 0.99437  0.67211  0.45420  Biso   1.000  O
  H50      1.0000 0.02617  0.62479  0.40319  Biso   1.000  H
  O21      1.0000 0.06697  0.64802  0.43479  Biso   1.000  O
  C34      1.0000 0.66152  0.96690  0.48169  Biso   1.000  C
  H51      1.0000 0.64407  0.99418  0.42739  Biso   1.000  H
  C35      1.0000 0.51721  0.01330  0.45201  Biso   1.000  C
  H52      1.0000 0.63720  0.57719  0.62860  Biso   1.000  H
  H53      1.0000 0.57882  0.62262  0.65711  Biso   1.000  H
  C36      1.0000 0.71131  0.64762  0.65900  Biso   1.000  C
  O22      1.0000 0.37118  0.63318  0.74561  Biso   1.000  O
  H54      1.0000 0.28477  0.54592  0.73789  Biso   1.000  H
  C37      1.0000 0.21382  0.64197  0.72461  Biso   1.000  C
  H55      1.0000 0.99821  0.63210  0.46581  Biso   1.000  H
  H56      1.0000 0.10763  0.66960  0.42340  Biso   1.000  H
  C38      1.0000 0.75122  0.92757  0.47770  Biso   1.000  C
  H57      1.0000 0.62518  0.94059  0.50040  Biso   1.000  H
  O23      1.0000 0.67821  0.04440  0.49339  Biso   1.000  O
  H58      1.0000 0.47977  0.98727  0.47049  Biso   1.000  H
  C39      1.0000 0.54042  0.09269  0.46510  Biso   1.000  C
  O24      1.0000 0.46528  0.01929  0.41811  Biso   1.000  O
  H59      1.0000 0.70719  0.68912  0.64150  Biso   1.000  H
  H60      1.0000 0.70939  0.66903  0.68351  Biso   1.000  H
  O25      1.0000 0.79442  0.60607  0.65369  Biso   1.000  O
  C40      1.0000 0.39549  0.70652  0.72970  Biso   1.000  C
  H61      1.0000 0.19658  0.65230  0.75010  Biso   1.000  H
  C41      1.0000 0.23271  0.71868  0.70689  Biso   1.000  C
  O26      1.0000 0.14053  0.60191  0.70889  Biso   1.000  O
  S6       1.0000 0.81688  0.92911  0.51981  Biso   1.000  S
  H62      1.0000 0.78639  0.95229  0.45850  Biso   1.000  H
  H63      1.0000 0.74071  0.87512  0.47041  Biso   1.000  H
  C42      1.0000 0.59887  0.08938  0.49960  Biso   1.000  C
  H64      1.0000 0.57483  0.11929  0.44590  Biso   1.000  H
  O27      1.0000 0.45958  0.13629  0.47403  Biso   1.000  O
  H65      1.0000 0.49543  0.04309  0.40300  Biso   1.000  H
  H66      1.0000 0.82327  0.60482  0.67299  Biso   1.000  H
  C43      1.0000 0.46658  0.73940  0.75569  Biso   1.000  C
  H67      1.0000 0.42269  0.69899  0.70541  Biso   1.000  H
  C44      1.0000 0.31190  0.75749  0.72680  Biso   1.000  C
  H68      1.0000 0.24947  0.71098  0.68121  Biso   1.000  H
  O28      1.0000 0.15159  0.76348  0.70889  Biso   1.000  O
  H69      1.0000 0.13909  0.61030  0.68679  Biso   1.000  H
  C45      1.0000 0.89828  0.85172  0.51299  Biso   1.000  C
  H70      1.0000 0.61817  0.14132  0.50601  Biso   1.000  H
  O29      1.0000 0.54763  0.05879  0.52926  Biso   1.000  O
  H71      1.0000 0.42929  0.14348  0.45541  Biso   1.000  H
  S7       1.0000 0.57147  0.68073  0.75506  Biso   1.000  S
  H72      1.0000 0.44172  0.74088  0.78031  Biso   1.000  H
  H73      1.0000 0.48142  0.79122  0.74840  Biso   1.000  H
  O30      1.0000 0.33423  0.82490  0.70686  Biso   1.000  O
  H74      1.0000 0.29178  0.77170  0.75150  Biso   1.000  H
  H75      1.0000 0.16361  0.80777  0.70339  Biso   1.000  H
  H76      1.0000 0.92548  0.83791  0.53641  Biso   1.000  H
  H77      1.0000 0.86620  0.80737  0.50360  Biso   1.000  H
  C46      1.0000 0.97459  0.87449  0.48621  Biso   1.000  C
  C47      1.0000 0.53912  0.10388  0.56179  Biso   1.000  C
  C48      1.0000 0.64517  0.73592  0.78619  Biso   1.000  C
  C49      1.0000 0.34109  0.89350  0.72699  Biso   1.000  C
  H78      1.0000 0.94807  0.88442  0.46231  Biso   1.000  H
  H79      1.0000 0.00371  0.92112  0.49470  Biso   1.000  H
  O31      1.0000 0.03901  0.81839  0.48331  Biso   1.000  O
  C50      1.0000 0.58960  0.06421  0.59320  Biso   1.000  C
  C51      1.0000 0.43877  0.11038  0.57031  Biso   1.000  C
  H80      1.0000 0.56522  0.15467  0.55771  Biso   1.000  H
  H81      1.0000 0.63473  0.78991  0.78220  Biso   1.000  H
  H82      1.0000 0.62882  0.72422  0.81130  Biso   1.000  H
  C52      1.0000 0.74621  0.71822  0.78020  Biso   1.000  C
  O32      1.0000 0.43087  0.92221  0.72825  Biso   1.000  O
  H83      1.0000 0.32097  0.88340  0.75210  Biso   1.000  H
  C53      1.0000 0.27522  0.95149  0.70999  Biso   1.000  C
  H84      1.0000 0.07830  0.83117  0.46850  Biso   1.000  H
  C54      1.0000 0.69428  0.06609  0.58879  Biso   1.000  C
  H85      1.0000 0.56941  0.01090  0.59451  Biso   1.000  H
  O33      1.0000 0.57023  0.10062  0.62743  Biso   1.000  O
  C55      1.0000 0.42187  0.14611  0.60779  Biso   1.000  C
  H86      1.0000 0.41129  0.05941  0.56990  Biso   1.000  H
  O34      1.0000 0.39323  0.15770  0.54374  Biso   1.000  O
  H87      1.0000 0.76667  0.74231  0.75780  Biso   1.000  H
  H88      1.0000 0.78178  0.73923  0.80030  Biso   1.000  H
  O35      1.0000 0.76248  0.63649  0.77801  Biso   1.000  O
  C56      1.0000 0.46803  0.94430  0.69271  Biso   1.000  C
  C57      1.0000 0.30840  0.98048  0.67291  Biso   1.000  C
  H89      1.0000 0.27083  0.99521  0.72661  Biso   1.000  H
  O36      1.0000 0.18703  0.91753  0.70741  Biso   1.000  O
  S8       1.0000 0.75589  0.01216  0.62228  Biso   1.000  S
  H90      1.0000 0.71461  0.11877  0.59010  Biso   1.000  H
  H91      1.0000 0.70980  0.04680  0.56469  Biso   1.000  H
  C58      1.0000 0.47593  0.10422  0.63619  Biso   1.000  C
  H92      1.0000 0.44412  0.19890  0.60700  Biso   1.000  H
  O37      1.0000 0.32839  0.14771  0.61771  Biso   1.000  O
  H93      1.0000 0.33752  0.15519  0.54681  Biso   1.000  H
  H94      1.0000 0.77677  0.62023  0.79819  Biso   1.000  H
  C59      1.0000 0.40738  0.00662  0.67639  Biso   1.000  C
  C60      1.0000 0.56762  0.97409  0.69999  Biso   1.000  C
  H95      1.0000 0.46981  0.90012  0.67639  Biso   1.000  H
  H96      1.0000 0.30531  0.93882  0.65511  Biso   1.000  H
  O38      1.0000 0.25057  0.04081  0.66089  Biso   1.000  O
  H97      1.0000 0.14761  0.94920  0.71259  Biso   1.000  H
  C61      1.0000 0.76853  0.07802  0.66141  Biso   1.000  C
  H98      1.0000 0.46947  0.13161  0.65949  Biso   1.000  H
  O39      1.0000 0.43918  0.02911  0.64090  Biso   1.000  O
  H99      1.0000 0.30758  0.19051  0.61420  Biso   1.000  H
  H100     1.0000 0.40930  0.05108  0.69260  Biso   1.000  H
  S9       1.0000 0.64318  0.90828  0.72220  Biso   1.000  S
  H101     1.0000 0.59468  0.98853  0.67680  Biso   1.000  H
  H102     1.0000 0.56357  0.01980  0.71489  Biso   1.000  H
  H103     1.0000 0.19720  0.03082  0.66620  Biso   1.000  H
  H104     1.0000 0.70932  0.10068  0.66691  Biso   1.000  H
  H105     1.0000 0.78810  0.04931  0.68280  Biso   1.000  H
  C62      1.0000 0.83632  0.13960  0.65391  Biso   1.000  C
  C63      1.0000 0.68178  0.84590  0.68641  Biso   1.000  C
  H106     1.0000 0.89457  0.11752  0.64670  Biso   1.000  H
  H107     1.0000 0.81448  0.17162  0.63411  Biso   1.000  H
  O40      1.0000 0.84793  0.18469  0.68649  Biso   1.000  O
  H108     1.0000 0.66282  0.79408  0.69189  Biso   1.000  H
  H109     1.0000 0.65348  0.86091  0.66349  Biso   1.000  H
  C64      1.0000 0.78680  0.84852  0.68241  Biso   1.000  C
  H110     1.0000 0.90247  0.18572  0.69211  Biso   1.000  H
  H111     1.0000 0.80548  0.81051  0.66461  Biso   1.000  H
  H112     1.0000 0.80438  0.89818  0.67299  Biso   1.000  H
  O41      1.0000 0.83728  0.83403  0.71801  Biso   1.000  O
  H113     1.0000 0.83632  0.87278  0.73061  Biso   1.000  H
  C65      1.0000 0.47462  0.62548  0.51379  Biso   1.000  C
  C66      1.0000 0.39831  0.64831  0.48701  Biso   1.000  C
  H114     1.0000 0.44811  0.61560  0.53769  Biso   1.000  H
  H115     1.0000 0.50367  0.57891  0.50530  Biso   1.000  H
  O42      1.0000 0.53898  0.68158  0.51669  Biso   1.000  O
  S10      1.0000 0.31692  0.57091  0.48019  Biso   1.000  S
  H116     1.0000 0.42551  0.66212  0.46359  Biso   1.000  H
  H117     1.0000 0.36623  0.69260  0.49640  Biso   1.000  H
  H118     1.0000 0.57827  0.66880  0.53150  Biso   1.000  H
  C67      1.0000 0.25118  0.57240  0.52230  Biso   1.000  C
  C68      1.0000 0.16148  0.53307  0.51831  Biso   1.000  C
  H119     1.0000 0.28642  0.54769  0.54150  Biso   1.000  H
  H120     1.0000 0.24068  0.62491  0.52959  Biso   1.000  H
  O43      1.0000 0.17817  0.45562  0.50661  Biso   1.000  O
  H121     1.0000 0.12521  0.55939  0.49960  Biso   1.000  H
  C69      1.0000 0.10749  0.53108  0.55360  Biso   1.000  C
  C70      1.0000 0.09891  0.41059  0.50040  Biso   1.000  C
  C71      1.0000 0.01717  0.48667  0.54799  Biso   1.000  C
  O44      1.0000 0.08579  0.60739  0.56535  Biso   1.000  O
  H122     1.0000 0.14410  0.50579  0.57261  Biso   1.000  H
  O45      1.0000 0.04760  0.44118  0.47074  Biso   1.000  O
  H123     1.0000 0.11821  0.35871  0.49399  Biso   1.000  H
  C72      1.0000 0.04039  0.40728  0.53490  Biso   1.000  C
  H124     1.0000 0.97981  0.51270  0.52951  Biso   1.000  H
  O46      1.0000 0.96531  0.48068  0.58189  Biso   1.000  O
  C73      1.0000 0.09829  0.62468  0.60281  Biso   1.000  C
  C74      1.0000 0.03908  0.39610  0.43821  Biso   1.000  C
  H125     1.0000 0.07480  0.38069  0.55410  Biso   1.000  H
  O47      1.0000 0.95961  0.36368  0.52597  Biso   1.000  O
  H126     1.0000 0.99540  0.45688  0.59700  Biso   1.000  H
  O48      1.0000 0.18009  0.66509  0.60900  Biso   1.000  O
  H127     1.0000 0.10200  0.57651  0.61631  Biso   1.000  H
  C75      1.0000 0.01072  0.66771  0.61579  Biso   1.000  C
  C76      1.0000 0.08957  0.43582  0.40680  Biso   1.000  C
  H128     1.0000 0.06518  0.34530  0.44229  Biso   1.000  H
  C77      1.0000 0.93880  0.38959  0.42969  Biso   1.000  C
  H129     1.0000 0.92932  0.35649  0.54459  Biso   1.000  H
  C78      1.0000 0.18229  0.73871  0.59210  Biso   1.000  C
  H130     1.0000 0.01333  0.67199  0.64249  Biso   1.000  H
  C79      1.0000 0.01243  0.74762  0.59991  Biso   1.000  C
  O49      1.0000 0.93221  0.62748  0.60681  Biso   1.000  O
  C80      1.0000 0.19431  0.43388  0.41121  Biso   1.000  C
  H131     1.0000 0.06937  0.48913  0.40549  Biso   1.000  H
  O50      1.0000 0.07020  0.39941  0.37257  Biso   1.000  O
  C81      1.0000 0.92190  0.35392  0.39221  Biso   1.000  C
  H132     1.0000 0.91133  0.44061  0.43010  Biso   1.000  H
  O51      1.0000 0.89319  0.34227  0.45626  Biso   1.000  O
  C82      1.0000 0.27282  0.77478  0.60390  Biso   1.000  C
  H133     1.0000 0.17941  0.73398  0.56540  Biso   1.000  H
  C83      1.0000 0.10262  0.78791  0.60640  Biso   1.000  C
  H134     1.0000 0.00110  0.74471  0.57351  Biso   1.000  H
  O52      1.0000 0.94107  0.79208  0.61669  Biso   1.000  O
  H135     1.0000 0.88729  0.64871  0.61571  Biso   1.000  H
  S11      1.0000 0.25592  0.48787  0.37772  Biso   1.000  S
  H136     1.0000 0.21458  0.38120  0.40990  Biso   1.000  H
  H137     1.0000 0.20977  0.45323  0.43531  Biso   1.000  H
  C84      1.0000 0.97589  0.39581  0.36381  Biso   1.000  C
  H138     1.0000 0.94409  0.30112  0.39300  Biso   1.000  H
  O53      1.0000 0.82842  0.35232  0.38229  Biso   1.000  O
  H139     1.0000 0.83749  0.34479  0.45319  Biso   1.000  H
  S12      1.0000 0.36678  0.71297  0.59312  Biso   1.000  S
  H140     1.0000 0.27152  0.78437  0.63000  Biso   1.000  H
  H141     1.0000 0.28072  0.82330  0.59150  Biso   1.000  H
  S13      1.0000 0.36953  0.73940  0.56779  Biso   1.000  S
  O54      1.0000 0.09863  0.85903  0.58685  Biso   1.000  O
  H142     1.0000 0.11058  0.79761  0.63260  Biso   1.000  H
  H143     1.0000 0.89100  0.77770  0.60919  Biso   1.000  H
  C85      1.0000 0.26849  0.42201  0.33859  Biso   1.000  C
  H144     1.0000 0.96950  0.36842  0.34051  Biso   1.000  H
  O55      1.0000 0.93921  0.47092  0.35910  Biso   1.000  O
  H145     1.0000 0.80761  0.30951  0.38580  Biso   1.000  H
  C86      1.0000 0.46473  0.77530  0.60689  Biso   1.000  C
  C87      1.0000 0.13483  0.92489  0.60380  Biso   1.000  C
  C88      1.0000 0.33629  0.36042  0.34609  Biso   1.000  C
  H146     1.0000 0.20929  0.39929  0.33309  Biso   1.000  H
  H147     1.0000 0.28807  0.45072  0.31720  Biso   1.000  H
  C89      1.0000 0.90741  0.49341  0.32361  Biso   1.000  C
  H148     1.0000 0.45759  0.78780  0.63260  Biso   1.000  H
  H149     1.0000 0.52091  0.74608  0.60451  Biso   1.000  H
  C90      1.0000 0.47503  0.84613  0.58671  Biso   1.000  C
  O56      1.0000 0.19850  0.96022  0.58101  Biso   1.000  O
  H150     1.0000 0.16533  0.91011  0.62669  Biso   1.000  H
  C91      1.0000 0.05701  0.97803  0.61250  Biso   1.000  C
  O57      1.0000 0.34789  0.31528  0.31351  Biso   1.000  O
  H151     1.0000 0.39460  0.38251  0.35330  Biso   1.000  H
  H152     1.0000 0.31451  0.32841  0.36589  Biso   1.000  H
  C92      1.0000 0.96799  0.55568  0.30729  Biso   1.000  C
  C93      1.0000 0.80837  0.51949  0.32709  Biso   1.000  C
  H153     1.0000 0.90927  0.44889  0.30740  Biso   1.000  H
  H154     1.0000 0.52620  0.87518  0.59681  Biso   1.000  H
  H155     1.0000 0.42008  0.87649  0.58879  Biso   1.000  H
  O58      1.0000 0.49440  0.82792  0.54580  Biso   1.000  O
  O59      1.0000 0.56700  0.85201  0.56521  Biso   1.000  O
  C94      1.0000 0.16217  0.98339  0.54591  Biso   1.000  C
  O60      1.0000 0.98887  0.94298  0.63507  Biso   1.000  O
  H156     1.0000 0.08160  0.02249  0.62551  Biso   1.000  H
  C95      1.0000 0.01161  0.00531  0.57710  Biso   1.000  C
  H157     1.0000 0.40250  0.31431  0.30789  Biso   1.000  H
  C96      1.0000 0.06759  0.52588  0.30001  Biso   1.000  C
  H158     1.0000 0.96978  0.59991  0.32361  Biso   1.000  H
  O61      1.0000 0.93090  0.57782  0.27175  Biso   1.000  O
  C97      1.0000 0.77519  0.54848  0.29001  Biso   1.000  C
  H159     1.0000 0.80528  0.56121  0.34489  Biso   1.000  H
  O62      1.0000 0.75060  0.45922  0.33911  Biso   1.000  O
  H160     1.0000 0.49818  0.86787  0.53419  Biso   1.000  H
  H161     1.0000 0.60760  0.83037  0.57660  Biso   1.000  H
  H162     1.0000 0.13778  0.93842  0.53331  Biso   1.000  H
  C98      1.0000 0.23910  0.01501  0.52419  Biso   1.000  C
  C99      1.0000 0.08407  0.04018  0.55210  Biso   1.000  C
  H163     1.0000 0.98688  0.89709  0.63071  Biso   1.000  H
  H164     1.0000 0.98420  0.96130  0.56469  Biso   1.000  H
  O63      1.0000 0.94162  0.05947  0.58419  Biso   1.000  O
  S14      1.0000 0.14321  0.59169  0.27780  Biso   1.000  S
  H165     1.0000 0.06360  0.48022  0.28511  Biso   1.000  H
  H166     1.0000 0.09472  0.51150  0.32320  Biso   1.000  H
  C100     1.0000 0.84113  0.60647  0.27301  Biso   1.000  C
  H167     1.0000 0.77079  0.50482  0.27339  Biso   1.000  H
  O64      1.0000 0.68700  0.58250  0.29259  Biso   1.000  O
  H168     1.0000 0.69723  0.46921  0.33380  Biso   1.000  H
  S15      1.0000 0.32942  0.94949  0.51371  Biso   1.000  S
  H169     1.0000 0.26513  0.05782  0.53750  Biso   1.000  H
  H170     1.0000 0.21451  0.03470  0.50141  Biso   1.000  H
  O65      1.0000 0.04011  0.05810  0.51746  Biso   1.000  O
  H171     1.0000 0.10839  0.08698  0.56321  Biso   1.000  H
  H172     1.0000 0.93248  0.08521  0.56579  Biso   1.000  H
  C101     1.0000 0.18181  0.65407  0.31359  Biso   1.000  C
  H173     1.0000 0.82100  0.61657  0.24790  Biso   1.000  H
  O66      1.0000 0.83419  0.67508  0.29314  Biso   1.000  O
  H174     1.0000 0.64757  0.55082  0.28741  Biso   1.000  H
  C102     1.0000 0.28312  0.86588  0.48169  Biso   1.000  C
  C103     1.0000 0.03970  0.13390  0.50459  Biso   1.000  C
  H175     1.0000 0.16279  0.70590  0.30811  Biso   1.000  H
  H176     1.0000 0.15351  0.63912  0.33651  Biso   1.000  H
  C104     1.0000 0.28683  0.65150  0.31759  Biso   1.000  C
  C105     1.0000 0.81187  0.74248  0.27320  Biso   1.000  C
  H177     1.0000 0.33320  0.83620  0.47151  Biso   1.000  H
  H178     1.0000 0.24198  0.83220  0.49500  Biso   1.000  H
  C106     1.0000 0.23710  0.90531  0.45480  Biso   1.000  C
  C107     1.0000 0.94237  0.15890  0.49749  Biso   1.000  C
  O67      1.0000 0.09458  0.13858  0.47151  Biso   1.000  O
  H179     1.0000 0.06683  0.16723  0.52329  Biso   1.000  H
  H180     1.0000 0.30552  0.68952  0.33539  Biso   1.000  H
  H181     1.0000 0.30442  0.60179  0.32701  Biso   1.000  H
  O68      1.0000 0.33732  0.66600  0.28199  Biso   1.000  O
  C108     1.0000 0.89553  0.79350  0.27030  Biso   1.000  C
  C109     1.0000 0.73267  0.78129  0.29311  Biso   1.000  C
  H182     1.0000 0.79181  0.72833  0.24850  Biso   1.000  H
  H183     1.0000 0.27990  0.92871  0.43780  Biso   1.000  H
  H184     1.0000 0.19871  0.94481  0.46540  Biso   1.000  H
  O69      1.0000 0.17810  0.84442  0.43539  Biso   1.000  O
  C110     1.0000 0.90109  0.11118  0.46740  Biso   1.000  C
  H185     1.0000 0.94402  0.21192  0.48909  Biso   1.000  H
  O70      1.0000 0.88859  0.15610  0.53008  Biso   1.000  O
  C111     1.0000 0.05660  0.09611  0.44021  Biso   1.000  C
  H186     1.0000 0.33629  0.62719  0.26939  Biso   1.000  H
  C112     1.0000 0.96662  0.76057  0.24431  Biso   1.000  C
  H187     1.0000 0.92273  0.80098  0.29459  Biso   1.000  H
  O71      1.0000 0.87121  0.86679  0.25439  Biso   1.000  O
  C113     1.0000 0.71379  0.85800  0.27539  Biso   1.000  C
  H188     1.0000 0.74950  0.78900  0.31879  Biso   1.000  H
  O72      1.0000 0.65162  0.73649  0.29111  Biso   1.000  O
  H189     1.0000 0.13449  0.83277  0.44851  Biso   1.000  H
  C114     1.0000 0.96078  0.11968  0.43339  Biso   1.000  C
  H190     1.0000 0.90157  0.05747  0.47510  Biso   1.000  H
  O73      1.0000 0.81008  0.13253  0.45940  Biso   1.000  O
  H191     1.0000 0.88873  0.11249  0.53821  Biso   1.000  H
  C115     1.0000 0.12137  0.10410  0.40970  Biso   1.000  C
  H192     1.0000 0.05550  0.04201  0.44711  Biso   1.000  H
  S16      1.0000 0.07150  0.81930  0.24494  Biso   1.000  S
  H193     1.0000 0.94169  0.75909  0.21969  Biso   1.000  H
  H194     1.0000 0.98139  0.70881  0.25160  Biso   1.000  H
  C116     1.0000 0.79861  0.90548  0.27421  Biso   1.000  C
  H195     1.0000 0.69661  0.84773  0.24990  Biso   1.000  H
  O74      1.0000 0.64050  0.89812  0.29111  Biso   1.000  O
  H196     1.0000 0.66358  0.69220  0.29661  Biso   1.000  H
  O75      1.0000 0.92081  0.07528  0.40404  Biso   1.000  O
  H197     1.0000 0.96071  0.17351  0.42611  Biso   1.000  H
  H198     1.0000 0.77492  0.09880  0.46620  Biso   1.000  H
  S17      1.0000 0.13511  0.20547  0.39793  Biso   1.000  S
  H199     1.0000 0.09870  0.07631  0.38859  Biso   1.000  H
  H200     1.0000 0.18037  0.08270  0.41650  Biso   1.000  H
  C117     1.0000 0.14520  0.76411  0.21381  Biso   1.000  C
  H201     1.0000 0.78481  0.95411  0.26211  Biso   1.000  H
  O76      1.0000 0.82691  0.91998  0.31052  Biso   1.000  O
  H202     1.0000 0.63912  0.88968  0.31321  Biso   1.000  H
  C118     1.0000 0.90089  0.11352  0.37071  Biso   1.000  C
  C119     1.0000 0.16890  0.19691  0.35069  Biso   1.000  C
  H203     1.0000 0.13469  0.71012  0.21780  Biso   1.000  H
  H204     1.0000 0.12879  0.77581  0.18870  Biso   1.000  H
  C120     1.0000 0.24617  0.78180  0.21980  Biso   1.000  C
  C121     1.0000 0.84422  0.99880  0.32000  Biso   1.000  C
  O77      1.0000 0.95927  0.08613  0.34284  Biso   1.000  O
  C122     1.0000 0.79923  0.10291  0.36061  Biso   1.000  C
  H205     1.0000 0.91277  0.16808  0.37400  Biso   1.000  H
  H206     1.0000 0.12343  0.16671  0.33769  Biso   1.000  H
  H207     1.0000 0.17027  0.24719  0.33960  Biso   1.000  H
  C123     1.0000 0.26327  0.15941  0.34609  Biso   1.000  C
  H208     1.0000 0.26671  0.75772  0.24220  Biso   1.000  H
  H209     1.0000 0.28182  0.76080  0.19970  Biso   1.000  H
  O78      1.0000 0.26252  0.86348  0.22199  Biso   1.000  O
  C124     1.0000 0.94361  0.00702  0.33259  Biso   1.000  C
  C125     1.0000 0.78000  0.02169  0.34960  Biso   1.000  C
  H210     1.0000 0.83392  0.03111  0.29850  Biso   1.000  H
  H211     1.0000 0.78611  0.13549  0.33941  Biso   1.000  H
  O79      1.0000 0.74318  0.12842  0.39029  Biso   1.000  O
  H212     1.0000 0.30778  0.18469  0.36170  Biso   1.000  H
  H213     1.0000 0.26011  0.10610  0.35330  Biso   1.000  H
  O80      1.0000 0.29171  0.16517  0.30831  Biso   1.000  O
  H214     1.0000 0.27680  0.87980  0.20181  Biso   1.000  H
  C126     1.0000 0.01291  0.98933  0.30351  Biso   1.000  C
  H215     1.0000 0.95432  0.97397  0.35390  Biso   1.000  H
  H216     1.0000 0.79010  0.98853  0.37090  Biso   1.000  H
  O81      1.0000 0.68782  0.01370  0.33791  Biso   1.000  O
  H217     1.0000 0.77361  0.12870  0.40921  Biso   1.000  H
  H218     1.0000 0.31108  0.20832  0.30431  Biso   1.000  H
  S18      1.0000 0.13188  0.98944  0.31663  Biso   1.000  S
  H219     1.0000 0.99863  0.93939  0.29349  Biso   1.000  H
  H220     1.0000 0.00508  0.02608  0.28391  Biso   1.000  H
  H221     1.0000 0.66110  0.05468  0.33999  Biso   1.000  H
  C127     1.0000 0.13572  0.90543  0.34620  Biso   1.000  C
  H222     1.0000 0.13717  0.92278  0.37140  Biso   1.000  H
  H223     1.0000 0.07878  0.87740  0.34289  Biso   1.000  H
  C128     1.0000 0.21128  0.85241  0.34100  Biso   1.000  C
  H224     1.0000 0.20723  0.81091  0.35850  Biso   1.000  H
  H225     1.0000 0.20942  0.83100  0.31649  Biso   1.000  H
  O82      1.0000 0.29439  0.89390  0.34631  Biso   1.000  O
  H226     1.0000 0.32331  0.89521  0.32701  Biso   1.000  H
  O83      1.0000 0.73748  0.36351  0.27799  Biso   1.000  O
  C129     1.0000 0.75383  0.28178  0.28021  Biso   1.000  C
  H227     1.0000 0.72320  0.37977  0.29820  Biso   1.000  H
  C130     1.0000 0.85480  0.26408  0.28621  Biso   1.000  C
  H228     1.0000 0.73329  0.25769  0.25781  Biso   1.000  H
  H229     1.0000 0.71818  0.26077  0.30031  Biso   1.000  H
  S19      1.0000 0.92850  0.31927  0.25507  Biso   1.000  S
  H230     1.0000 0.86531  0.21009  0.28221  Biso   1.000  H
  H231     1.0000 0.87121  0.27578  0.31129  Biso   1.000  H
  C131     1.0000 0.03338  0.26060  0.25570  Biso   1.000  C
  C132     1.0000 0.10447  0.29348  0.22969  Biso   1.000  C
  H232     1.0000 0.05831  0.25912  0.28029  Biso   1.000  H
  H233     1.0000 0.01861  0.20878  0.24839  Biso   1.000  H
  C133     1.0000 0.18813  0.24251  0.22681  Biso   1.000  C
  H234     1.0000 0.07727  0.30101  0.20540  Biso   1.000  H
  O84      1.0000 0.12879  0.36682  0.24560  Biso   1.000  O
  O85      1.0000 0.16581  0.17510  0.20688  Biso   1.000  O
  C134     1.0000 0.26733  0.28132  0.20691  Biso   1.000  C
  H235     1.0000 0.20819  0.22830  0.25151  Biso   1.000  H
  C135     1.0000 0.20139  0.40551  0.22580  Biso   1.000  C
  C136     1.0000 0.15887  0.10650  0.22701  Biso   1.000  C
  C137     1.0000 0.28621  0.35803  0.22460  Biso   1.000  C
  H236     1.0000 0.25050  0.28902  0.18119  Biso   1.000  H
  O86      1.0000 0.34838  0.23652  0.20890  Biso   1.000  O
  H237     1.0000 0.21519  0.45408  0.23790  Biso   1.000  H
  O87      1.0000 0.17309  0.42001  0.18949  Biso   1.000  O
  O88      1.0000 0.06910  0.07779  0.22824  Biso   1.000  O
  C138     1.0000 0.22481  0.04851  0.21000  Biso   1.000  C
  H238     1.0000 0.17900  0.11660  0.25209  Biso   1.000  H
  H239     1.0000 0.30339  0.34770  0.25009  Biso   1.000  H
  O89      1.0000 0.35950  0.39809  0.20890  Biso   1.000  O
  H240     1.0000 0.33642  0.19223  0.20340  Biso   1.000  H
  C139     1.0000 0.15578  0.49877  0.17999  Biso   1.000  C
  C140     1.0000 0.03201  0.05570  0.19269  Biso   1.000  C
  C141     1.0000 0.19163  0.01952  0.17290  Biso   1.000  C
  H241     1.0000 0.22921  0.00479  0.22659  Biso   1.000  H
  O90      1.0000 0.31300  0.08247  0.20740  Biso   1.000  O
  H242     1.0000 0.36088  0.38970  0.18681  Biso   1.000  H
  C142     1.0000 0.05639  0.50699  0.16739  Biso   1.000  C
  C143     1.0000 0.22000  0.52172  0.15039  Biso   1.000  C
  H243     1.0000 0.16608  0.53108  0.20151  Biso   1.000  H
  C144     1.0000 0.93241  0.02591  0.20001  Biso   1.000  C
  C145     1.0000 0.09259  0.99338  0.17640  Biso   1.000  C
  H244     1.0000 0.03022  0.09988  0.17640  Biso   1.000  H
  O91      1.0000 0.24940  0.95919  0.16090  Biso   1.000  O
  H245     1.0000 0.19472  0.06118  0.15510  Biso   1.000  H
  H246     1.0000 0.35243  0.05080  0.21260  Biso   1.000  H
  C146     1.0000 0.98709  0.48930  0.19650  Biso   1.000  C
  H247     1.0000 0.04568  0.47400  0.14609  Biso   1.000  H
  O92      1.0000 0.04073  0.58610  0.15718  Biso   1.000  O
  C147     1.0000 0.20077  0.60288  0.13941  Biso   1.000  C
  H248     1.0000 0.20990  0.48850  0.12911  Biso   1.000  H
  O93      1.0000 0.31218  0.51373  0.16211  Biso   1.000  O
  S20      1.0000 0.85679  0.09172  0.22221  Biso   1.000  S
  H249     1.0000 0.90528  0.01147  0.17681  Biso   1.000  H
  H250     1.0000 0.93640  0.98020  0.21490  Biso   1.000  H
  O94      1.0000 0.06079  0.97089  0.14091  Biso   1.000  O
  H251     1.0000 0.09073  0.94892  0.19261  Biso   1.000  H
  H252     1.0000 0.30277  0.96918  0.16619  Biso   1.000  H
  S21      1.0000 0.86812  0.48947  0.18338  Biso   1.000  S
  H253     1.0000 0.99492  0.52611  0.21611  Biso   1.000  H
  H254     1.0000 0.00137  0.43942  0.20650  Biso   1.000  H
  C148     1.0000 0.09911  0.61349  0.12930  Biso   1.000  C
  H255     1.0000 0.21389  0.63552  0.16060  Biso   1.000  H
  O95      1.0000 0.25682  0.62839  0.10970  Biso   1.000  O
  H256     1.0000 0.33890  0.55471  0.16000  Biso   1.000  H
  C149     1.0000 0.81819  0.15410  0.18640  Biso   1.000  C
  C150     1.0000 0.02411  0.89578  0.13620  Biso   1.000  C
  C151     1.0000 0.86428  0.40540  0.15381  Biso   1.000  C
  H257     1.0000 0.08723  0.66811  0.12599  Biso   1.000  H
  O96      1.0000 0.07919  0.57531  0.09598  Biso   1.000  O
  H258     1.0000 0.22639  0.62867  0.09080  Biso   1.000  H
  C152     1.0000 0.71317  0.15148  0.18240  Biso   1.000  C
  H259     1.0000 0.83721  0.20592  0.19190  Biso   1.000  H
  H260     1.0000 0.84649  0.13909  0.16350  Biso   1.000  H
  O97      1.0000 0.92980  0.89938  0.12744  Biso   1.000  O
  H261     1.0000 0.03050  0.86839  0.15951  Biso   1.000  H
  C153     1.0000 0.07810  0.85389  0.10781  Biso   1.000  C
  H262     1.0000 0.86283  0.42281  0.12859  Biso   1.000  H
  H263     1.0000 0.92122  0.37738  0.15710  Biso   1.000  H
  C154     1.0000 0.78872  0.35238  0.15901  Biso   1.000  C
  C155     1.0000 0.03922  0.61971  0.06660  Biso   1.000  C
  O98      1.0000 0.66268  0.16597  0.21800  Biso   1.000  O
  H264     1.0000 0.69448  0.18949  0.16460  Biso   1.000  H
  H265     1.0000 0.69558  0.10182  0.17301  Biso   1.000  H
  C156     1.0000 0.91043  0.93579  0.09321  Biso   1.000  C
  H266     1.0000 0.05591  0.80110  0.10701  Biso   1.000  H
  C157     1.0000 0.06120  0.88962  0.07029  Biso   1.000  C
  O99      1.0000 0.17158  0.85229  0.11769  Biso   1.000  O
  H267     1.0000 0.79277  0.31088  0.14149  Biso   1.000  H
  H268     1.0000 0.79058  0.33097  0.18349  Biso   1.000  H
  O100     1.0000 0.70561  0.39393  0.15370  Biso   1.000  O
  C158     1.0000 0.94340  0.59608  0.05980  Biso   1.000  C
  C159     1.0000 0.09891  0.61121  0.03261  Biso   1.000  C
  H269     1.0000 0.03929  0.67348  0.07391  Biso   1.000  H
  H270     1.0000 0.66371  0.12722  0.23059  Biso   1.000  H
  C160     1.0000 0.80569  0.93391  0.08880  Biso   1.000  C
  H271     1.0000 0.93063  0.98910  0.09450  Biso   1.000  H
  C161     1.0000 0.96092  0.89612  0.06180  Biso   1.000  C
  H272     1.0000 0.08867  0.94059  0.06991  Biso   1.000  H
  O101     1.0000 0.10681  0.84230  0.04376  Biso   1.000  O
  H273     1.0000 0.19239  0.80949  0.11419  Biso   1.000  H
  H274     1.0000 0.67669  0.39518  0.17301  Biso   1.000  H
  C162     1.0000 0.87863  0.60408  0.09031  Biso   1.000  C
  H275     1.0000 0.94450  0.54198  0.05290  Biso   1.000  H
  O102     1.0000 0.90542  0.63861  0.02848  Biso   1.000  O
  C163     1.0000 0.05763  0.65892  0.00249  Biso   1.000  C
  H276     1.0000 0.09843  0.55750  0.02489  Biso   1.000  H
  O103     1.0000 0.18992  0.63250  0.04061  Biso   1.000  O
  S22      1.0000 0.74408  0.98784  0.12229  Biso   1.000  S
  H277     1.0000 0.78542  0.88123  0.09009  Biso   1.000  H
  H278     1.0000 0.79023  0.95320  0.06471  Biso   1.000  H
  O104     1.0000 0.95240  0.94121  0.02927  Biso   1.000  O
  H279     1.0000 0.93482  0.84533  0.05770  Biso   1.000  H
  H280     1.0000 0.16251  0.84481  0.04680  Biso   1.000  H
  S23      1.0000 0.86489  0.70544  0.10206  Biso   1.000  S
  H281     1.0000 0.90130  0.57628  0.11139  Biso   1.000  H
  H282     1.0000 0.81963  0.58267  0.08349  Biso   1.000  H
  C164     1.0000 0.96030  0.63393  0.99540  Biso   1.000  C
  O105     1.0000 0.11141  0.65613  0.96993  Biso   1.000  O
  H283     1.0000 0.05598  0.71189  0.01090  Biso   1.000  H
  H284     1.0000 0.22508  0.59882  0.03379  Biso   1.000  H
  C165     1.0000 0.73151  0.92198  0.16140  Biso   1.000  C
  C166     1.0000 0.90109  0.91062  0.99959  Biso   1.000  C
  C167     1.0000 0.83110  0.69688  0.14929  Biso   1.000  C
  H285     1.0000 0.93317  0.66720  0.97670  Biso   1.000  H
  O106     1.0000 0.95989  0.55807  0.98253  Biso   1.000  O
  H286     1.0000 0.11127  0.61252  0.96180  Biso   1.000  H
  H287     1.0000 0.79071  0.89932  0.16690  Biso   1.000  H
  H288     1.0000 0.71193  0.95069  0.18281  Biso   1.000  H
  C168     1.0000 0.66371  0.86040  0.15389  Biso   1.000  C
  O107     1.0000 0.82183  0.95560  0.99337  Biso   1.000  O
  C169     1.0000 0.95961  0.90731  0.96509  Biso   1.000  C
  H289     1.0000 0.88179  0.85868  0.00600  Biso   1.000  H
  H290     1.0000 0.87657  0.66669  0.16230  Biso   1.000  H
  H291     1.0000 0.82973  0.74722  0.16041  Biso   1.000  H
  C170     1.0000 0.73673  0.65938  0.15389  Biso   1.000  C
  C171     1.0000 0.91593  0.54021  0.94789  Biso   1.000  C
  H292     1.0000 0.60540  0.88248  0.14669  Biso   1.000  H
  H293     1.0000 0.68549  0.82838  0.13409  Biso   1.000  H
  O108     1.0000 0.65211  0.81531  0.18651  Biso   1.000  O
  C172     1.0000 0.83852  0.03310  0.98171  Biso   1.000  C
  H294     1.0000 0.92520  0.88071  0.94589  Biso   1.000  H
  C173     1.0000 0.98283  0.98670  0.95200  Biso   1.000  C
  O109     1.0000 0.04039  0.86371  0.97401  Biso   1.000  O
  H295     1.0000 0.69222  0.68472  0.13831  Biso   1.000  H
  H296     1.0000 0.73989  0.60607  0.14669  Biso   1.000  H
  O110     1.0000 0.70829  0.66520  0.19171  Biso   1.000  O
  C174     1.0000 0.83783  0.48342  0.95411  Biso   1.000  C
  C175     1.0000 0.98839  0.50528  0.92289  Biso   1.000  C
  H297     1.0000 0.89161  0.58701  0.93680  Biso   1.000  H
  H298     1.0000 0.59750  0.81428  0.19209  Biso   1.000  H
  H299     1.0000 0.87479  0.05941  0.00041  Biso   1.000  H
  C176     1.0000 0.74882  0.07243  0.97771  Biso   1.000  C
  C177     1.0000 0.89251  0.03111  0.94641  Biso   1.000  C
  O111     1.0000 0.03469  0.98071  0.91812  Biso   1.000  O
  H300     1.0000 0.02019  0.01273  0.97051  Biso   1.000  H
  H301     1.0000 0.07068  0.85652  0.95539  Biso   1.000  H
  H302     1.0000 0.68892  0.70829  0.19571  Biso   1.000  H
  O112     1.0000 0.80150  0.46019  0.91900  Biso   1.000  O
  C178     1.0000 0.76090  0.51498  0.97579  Biso   1.000  C
  H303     1.0000 0.86222  0.43839  0.96670  Biso   1.000  H
  C179     1.0000 0.94299  0.47800  0.88751  Biso   1.000  C
  H304     1.0000 0.01580  0.46128  0.93529  Biso   1.000  H
  O113     1.0000 0.05838  0.55950  0.91580  Biso   1.000  O
  S24      1.0000 0.68308  0.07089  0.01980  Biso   1.000  S
  H305     1.0000 0.71358  0.04771  0.95849  Biso   1.000  H
  H306     1.0000 0.75932  0.12488  0.97040  Biso   1.000  H
  O114     1.0000 0.91421  0.10741  0.93464  Biso   1.000  O
  H307     1.0000 0.85590  0.00582  0.92741  Biso   1.000  H
  H308     1.0000 0.00460  0.95691  0.90301  Biso   1.000  H
  C180     1.0000 0.86517  0.42492  0.89619  Biso   1.000  C
  S25      1.0000 0.67058  0.44952  0.98631  Biso   1.000  S
  H309     1.0000 0.73487  0.55779  0.96251  Biso   1.000  H
  H310     1.0000 0.78549  0.53467  0.99860  Biso   1.000  H
  H311     1.0000 0.91840  0.52252  0.87450  Biso   1.000  H
  O115     1.0000 0.01113  0.44301  0.86495  Biso   1.000  O
  H312     1.0000 0.06752  0.58518  0.93420  Biso   1.000  H
  C181     1.0000 0.60169  0.14828  0.01301  Biso   1.000  C
  C182     1.0000 0.90171  0.12471  0.89720  Biso   1.000  C
  O116     1.0000 0.90137  0.35900  0.91317  Biso   1.000  O
  H313     1.0000 0.83467  0.41008  0.87330  Biso   1.000  H
  C183     1.0000 0.71688  0.36590  0.01829  Biso   1.000  C
  H314     1.0000 0.01312  0.39712  0.86930  Biso   1.000  H
  H315     1.0000 0.57449  0.16209  0.03639  Biso   1.000  H
  H316     1.0000 0.63377  0.19263  0.00359  Biso   1.000  H
  C184     1.0000 0.52538  0.12551  0.98620  Biso   1.000  C
  O117     1.0000 0.81991  0.16512  0.89099  Biso   1.000  O
  H317     1.0000 0.89800  0.07648  0.88370  Biso   1.000  H
  C185     1.0000 0.98928  0.16768  0.88420  Biso   1.000  C
  C186     1.0000 0.89738  0.28788  0.89359  Biso   1.000  C
  H318     1.0000 0.66680  0.33623  0.02851  Biso   1.000  H
  H319     1.0000 0.75802  0.33217  0.00501  Biso   1.000  H
  C187     1.0000 0.76290  0.40529  0.04521  Biso   1.000  C
  H320     1.0000 0.55189  0.11558  0.96229  Biso   1.000  H
  H321     1.0000 0.49633  0.07888  0.99469  Biso   1.000  H
  O118     1.0000 0.46102  0.18161  0.98330  Biso   1.000  O
  C188     1.0000 0.81771  0.23869  0.90791  Biso   1.000  C
  H322     1.0000 0.98667  0.17202  0.85750  Biso   1.000  H
  C189     1.0000 0.98757  0.24759  0.90011  Biso   1.000  C
  O119     1.0000 0.06779  0.12750  0.89321  Biso   1.000  O
  H323     1.0000 0.88942  0.29759  0.86741  Biso   1.000  H
  H324     1.0000 0.72010  0.42869  0.06219  Biso   1.000  H
  H325     1.0000 0.80129  0.44478  0.03461  Biso   1.000  H
  O120     1.0000 0.82190  0.34439  0.06460  Biso   1.000  O
  H326     1.0000 0.42173  0.16883  0.96851  Biso   1.000  H
  C190     1.0000 0.72718  0.27481  0.89611  Biso   1.000  C
  H327     1.0000 0.82059  0.23400  0.93461  Biso   1.000  H
  H328     1.0000 0.99890  0.24468  0.92650  Biso   1.000  H
  O121     1.0000 0.05893  0.29211  0.88329  Biso   1.000  O
  H329     1.0000 0.11271  0.14868  0.88431  Biso   1.000  H
  H330     1.0000 0.86551  0.33280  0.05151  Biso   1.000  H
  S26      1.0000 0.63322  0.21300  0.90687  Biso   1.000  S
  H331     1.0000 0.72848  0.28440  0.87001  Biso   1.000  H
  H332     1.0000 0.71928  0.32333  0.90851  Biso   1.000  H
  S27      1.0000 0.63047  0.23943  0.93220  Biso   1.000  S
  H333     1.0000 0.10900  0.27772  0.89080  Biso   1.000  H
  C191     1.0000 0.53527  0.27533  0.89310  Biso   1.000  C
  H334     1.0000 0.54241  0.28783  0.86741  Biso   1.000  H
  H335     1.0000 0.47909  0.24610  0.89551  Biso   1.000  H
  C192     1.0000 0.52497  0.34610  0.91331  Biso   1.000  C
  H336     1.0000 0.47380  0.37521  0.90320  Biso   1.000  H
  H337     1.0000 0.57992  0.37652  0.91120  Biso   1.000  H
  O122     1.0000 0.50560  0.32789  0.95419  Biso   1.000  O
  O123     1.0000 0.43300  0.35198  0.93480  Biso   1.000  O
  H338     1.0000 0.50182  0.36790  0.96580  Biso   1.000  H
  H339     1.0000 0.39240  0.33040  0.92341  Biso   1.000  H
  C193     1.0000 0.35483  0.23589  0.71379  Biso   1.000  C
  S28      1.0000 0.42853  0.18070  0.74493  Biso   1.000  S
  H340     1.0000 0.36527  0.28988  0.71779  Biso   1.000  H
  H341     1.0000 0.37118  0.22419  0.68871  Biso   1.000  H
  C194     1.0000 0.25379  0.21820  0.71979  Biso   1.000  C
  C195     1.0000 0.53342  0.23943  0.74430  Biso   1.000  C
  H342     1.0000 0.23333  0.24228  0.74219  Biso   1.000  H
  H343     1.0000 0.21822  0.23920  0.69969  Biso   1.000  H
  O124     1.0000 0.23752  0.13652  0.72201  Biso   1.000  O
  H344     1.0000 0.55828  0.24091  0.71971  Biso   1.000  H
  H345     1.0000 0.51858  0.29119  0.75161  Biso   1.000  H
  C196     1.0000 0.60451  0.20650  0.77031  Biso   1.000  C
  H346     1.0000 0.22323  0.12020  0.70180  Biso   1.000  H
  H347     1.0000 0.57731  0.19902  0.79460  Biso   1.000  H
  O125     1.0000 0.62882  0.13321  0.75440  Biso   1.000  O
  C197     1.0000 0.68810  0.25752  0.77319  Biso   1.000  C
  C198     1.0000 0.70142  0.09452  0.77420  Biso   1.000  C
  O126     1.0000 0.66577  0.32492  0.79312  Biso   1.000  O
  C199     1.0000 0.76729  0.21871  0.79309  Biso   1.000  C
  H348     1.0000 0.70822  0.27167  0.74849  Biso   1.000  H
  H349     1.0000 0.71523  0.04589  0.76210  Biso   1.000  H
  C200     1.0000 0.78618  0.14200  0.77540  Biso   1.000  C
  O127     1.0000 0.67312  0.08002  0.81051  Biso   1.000  O
  C201     1.0000 0.65891  0.39353  0.77299  Biso   1.000  C
  H350     1.0000 0.75053  0.21100  0.81881  Biso   1.000  H
  O128     1.0000 0.84841  0.26351  0.79110  Biso   1.000  O
  H351     1.0000 0.80342  0.15227  0.74991  Biso   1.000  H
  O129     1.0000 0.85947  0.10188  0.79110  Biso   1.000  O
  C202     1.0000 0.65581  0.00120  0.82001  Biso   1.000  C
  O130     1.0000 0.56913  0.42218  0.77176  Biso   1.000  O
  H352     1.0000 0.67903  0.38343  0.74791  Biso   1.000  H
  C203     1.0000 0.72478  0.45152  0.79000  Biso   1.000  C
  H353     1.0000 0.83639  0.30780  0.79660  Biso   1.000  H
  H354     1.0000 0.86091  0.11032  0.81319  Biso   1.000  H
  C204     1.0000 0.55643  0.99298  0.83261  Biso   1.000  C
  C205     1.0000 0.71997  0.97831  0.84961  Biso   1.000  C
  H355     1.0000 0.66612  0.96889  0.79849  Biso   1.000  H
  C206     1.0000 0.53197  0.44432  0.80731  Biso   1.000  C
  H356     1.0000 0.72917  0.49518  0.77341  Biso   1.000  H
  C207     1.0000 0.69160  0.48051  0.82710  Biso   1.000  C
  O131     1.0000 0.81297  0.41750  0.79260  Biso   1.000  O
  C208     1.0000 0.48712  0.01067  0.80350  Biso   1.000  C
  H357     1.0000 0.54571  0.02603  0.85391  Biso   1.000  H
  O132     1.0000 0.54070  0.91387  0.84282  Biso   1.000  O
  H358     1.0000 0.70987  0.01147  0.87089  Biso   1.000  H
  C209     1.0000 0.70080  0.89709  0.86059  Biso   1.000  C
  O133     1.0000 0.81221  0.98630  0.83789  Biso   1.000  O
  C210     1.0000 0.43238  0.47412  0.79999  Biso   1.000  C
  H359     1.0000 0.53019  0.40009  0.82360  Biso   1.000  H
  C211     1.0000 0.59262  0.50659  0.82360  Biso   1.000  C
  H360     1.0000 0.69469  0.43879  0.84490  Biso   1.000  H
  O134     1.0000 0.74943  0.54078  0.83910  Biso   1.000  O
  H361     1.0000 0.85239  0.44918  0.78740  Biso   1.000  H
  S29      1.0000 0.36809  0.01056  0.81662  Biso   1.000  S
  H362     1.0000 0.50141  0.06061  0.79350  Biso   1.000  H
  H363     1.0000 0.49488  0.97392  0.78389  Biso   1.000  H
  C212     1.0000 0.59908  0.88648  0.87070  Biso   1.000  C
  H364     1.0000 0.71392  0.86451  0.83940  Biso   1.000  H
  O135     1.0000 0.75678  0.87158  0.89030  Biso   1.000  O
  H365     1.0000 0.83893  0.94532  0.84000  Biso   1.000  H
  S30      1.0000 0.35682  0.40831  0.77779  Biso   1.000  S
  H366     1.0000 0.43643  0.51978  0.78510  Biso   1.000  H
  H367     1.0000 0.40532  0.48850  0.82319  Biso   1.000  H
  O136     1.0000 0.56082  0.52908  0.85909  Biso   1.000  O
  H368     1.0000 0.59070  0.55111  0.80739  Biso   1.000  H
  H369     1.0000 0.80280  0.53079  0.83381  Biso   1.000  H
  C213     1.0000 0.36431  0.09457  0.84619  Biso   1.000  C
  H370     1.0000 0.58720  0.83192  0.87401  Biso   1.000  H
  O137     1.0000 0.57923  0.92472  0.90402  Biso   1.000  O
  H371     1.0000 0.72642  0.87130  0.90920  Biso   1.000  H
  C214     1.0000 0.31822  0.34593  0.81360  Biso   1.000  C
  C215     1.0000 0.52407  0.60419  0.86380  Biso   1.000  C
  H372     1.0000 0.36280  0.07722  0.87141  Biso   1.000  H
  H373     1.0000 0.42118  0.12260  0.84290  Biso   1.000  H
  C216     1.0000 0.28869  0.14759  0.84099  Biso   1.000  C
  C217     1.0000 0.53919  0.88032  0.93340  Biso   1.000  C
  H374     1.0000 0.33718  0.29410  0.80810  Biso   1.000  H
  H375     1.0000 0.34652  0.36088  0.83650  Biso   1.000  H
  C218     1.0000 0.21320  0.34850  0.81760  Biso   1.000  C
  O138     1.0000 0.42977  0.60059  0.87256  Biso   1.000  O
  H376     1.0000 0.53053  0.63158  0.84049  Biso   1.000  H
  C219     1.0000 0.57813  0.64608  0.89219  Biso   1.000  C
  H377     1.0000 0.29281  0.18909  0.85851  Biso   1.000  H
  H378     1.0000 0.29061  0.16900  0.81651  Biso   1.000  H
  O139     1.0000 0.20558  0.10610  0.84630  Biso   1.000  O
  C220     1.0000 0.44337  0.90389  0.94020  Biso   1.000  C
  C221     1.0000 0.59887  0.88882  0.96739  Biso   1.000  C
  H379     1.0000 0.53932  0.82649  0.92609  Biso   1.000  H
  H380     1.0000 0.19452  0.31048  0.83540  Biso   1.000  H
  H381     1.0000 0.19562  0.39821  0.82699  Biso   1.000  H
  O140     1.0000 0.16272  0.33400  0.78200  Biso   1.000  O
  C222     1.0000 0.41040  0.56418  0.90679  Biso   1.000  C
  H382     1.0000 0.55588  0.69888  0.89299  Biso   1.000  H
  C223     1.0000 0.56123  0.61041  0.92971  Biso   1.000  C
  O141     1.0000 0.67161  0.64768  0.88231  Biso   1.000  O
  H383     1.0000 0.17673  0.10479  0.82699  Biso   1.000  H
  C224     1.0000 0.37860  0.89590  0.90969  Biso   1.000  C
  H384     1.0000 0.44447  0.95799  0.94710  Biso   1.000  H
  O142     1.0000 0.40538  0.86142  0.97152  Biso   1.000  O
  C225     1.0000 0.55759  0.84110  0.99751  Biso   1.000  C
  H385     1.0000 0.59839  0.94253  0.97511  Biso   1.000  H
  O143     1.0000 0.68988  0.86747  0.95939  Biso   1.000  O
  H386     1.0000 0.16368  0.37281  0.76941  Biso   1.000  H
  C226     1.0000 0.30572  0.56612  0.91120  Biso   1.000  C
  H387     1.0000 0.43059  0.51087  0.90550  Biso   1.000  H
  C227     1.0000 0.46088  0.60390  0.93820  Biso   1.000  C
  H388     1.0000 0.58871  0.55939  0.93009  Biso   1.000  H
  O144     1.0000 0.60677  0.65773  0.95624  Biso   1.000  O
  H389     1.0000 0.69242  0.69049  0.88581  Biso   1.000  H
  S31      1.0000 0.36493  0.79453  0.89794  Biso   1.000  S
  H390     1.0000 0.40133  0.92369  0.88861  Biso   1.000  H
  H391     1.0000 0.31960  0.91730  0.91651  Biso   1.000  H
  C228     1.0000 0.46033  0.86610  0.00460  Biso   1.000  C
  H392     1.0000 0.55601  0.78808  0.98910  Biso   1.000  H
  O145     1.0000 0.61137  0.84390  0.03007  Biso   1.000  O
  H393     1.0000 0.72512  0.90120  0.96621  Biso   1.000  H
  S32      1.0000 0.24411  0.51213  0.87771  Biso   1.000  S
  H394     1.0000 0.28539  0.61880  0.90991  Biso   1.000  H
  H395     1.0000 0.29020  0.54677  0.93529  Biso   1.000  H
  O146     1.0000 0.45237  0.55882  0.97073  Biso   1.000  O
  H396     1.0000 0.43478  0.65470  0.94230  Biso   1.000  H
  H397     1.0000 0.66248  0.65521  0.95320  Biso   1.000  H
  C229     1.0000 0.33107  0.80309  0.85071  Biso   1.000  C
  H398     1.0000 0.43320  0.83277  0.02330  Biso   1.000  H
  O147     1.0000 0.45992  0.94190  0.01747  Biso   1.000  O
  H399     1.0000 0.61131  0.88751  0.03820  Biso   1.000  H
  C230     1.0000 0.23147  0.57799  0.83860  Biso   1.000  C
  C231     1.0000 0.40113  0.58941  0.00041  Biso   1.000  C
  H400     1.0000 0.37661  0.83329  0.83770  Biso   1.000  H
  H401     1.0000 0.32969  0.75281  0.83959  Biso   1.000  H
  C232     1.0000 0.23669  0.84059  0.84611  Biso   1.000  C
  C233     1.0000 0.41589  0.95982  0.05211  Biso   1.000  C
  H402     1.0000 0.29068  0.60071  0.83310  Biso   1.000  H
  H403     1.0000 0.21190  0.54928  0.81719  Biso   1.000  H
  C234     1.0000 0.16368  0.63958  0.84611  Biso   1.000  C
  H404     1.0000 0.38183  0.64129  0.99400  Biso   1.000  H
  O148     1.0000 0.32179  0.54438  0.00663  Biso   1.000  O
  C235     1.0000 0.45958  0.59272  0.03491  Biso   1.000  C
  H405     1.0000 0.19218  0.81531  0.86169  Biso   1.000  H
  H406     1.0000 0.23992  0.89390  0.85331  Biso   1.000  H
  O149     1.0000 0.20832  0.83483  0.80829  Biso   1.000  O
  C236     1.0000 0.48843  0.99469  0.07711  Biso   1.000  C
  H407     1.0000 0.39158  0.91302  0.06320  Biso   1.000  H
  C237     1.0000 0.33780  0.01661  0.04589  Biso   1.000  C
  H408     1.0000 0.10543  0.61749  0.85331  Biso   1.000  H
  H409     1.0000 0.18552  0.67159  0.86591  Biso   1.000  H
  O150     1.0000 0.15207  0.68472  0.81349  Biso   1.000  O
  C238     1.0000 0.33848  0.46693  0.01829  Biso   1.000  C
  H410     1.0000 0.42517  0.61931  0.05411  Biso   1.000  H
  C239     1.0000 0.48279  0.51333  0.04800  Biso   1.000  C
  O151     1.0000 0.54042  0.63632  0.02599  Biso   1.000  O
  H411     1.0000 0.18889  0.79168  0.80429  Biso   1.000  H
  O152     1.0000 0.55842  0.94053  0.08420  Biso   1.000  O
  C240     1.0000 0.44302  0.02197  0.11249  Biso   1.000  C
  H412     1.0000 0.51583  0.03870  0.06471  Biso   1.000  H
  C241     1.0000 0.26087  0.98499  0.02421  Biso   1.000  C
  H413     1.0000 0.36218  0.06158  0.03330  Biso   1.000  H
  O153     1.0000 0.30153  0.03978  0.08100  Biso   1.000  O
  H414     1.0000 0.09753  0.68569  0.80791  Biso   1.000  H
  H415     1.0000 0.37482  0.44061  0.99959  Biso   1.000  H
  C242     1.0000 0.24878  0.42760  0.02229  Biso   1.000  C
  C243     1.0000 0.39247  0.46892  0.05359  Biso   1.000  C
  H416     1.0000 0.52023  0.48730  0.02949  Biso   1.000  H
  O154     1.0000 0.53472  0.51932  0.08188  Biso   1.000  O
  H417     1.0000 0.57071  0.64351  0.04461  Biso   1.000  H
  H418     1.0000 0.56748  0.91479  0.06580  Biso   1.000  H
  H419     1.0000 0.41837  0.97751  0.12550  Biso   1.000  H
  C244     1.0000 0.36520  0.07511  0.10381  Biso   1.000  C
  O155     1.0000 0.51109  0.05702  0.13505  Biso   1.000  O
  H420     1.0000 0.23491  0.94218  0.03749  Biso   1.000  H
  H421     1.0000 0.28553  0.96530  0.00140  Biso   1.000  H
  S33      1.0000 0.17062  0.05051  0.01369  Biso   1.000  S
  S34      1.0000 0.18312  0.42909  0.98020  Biso   1.000  S
  H422     1.0000 0.21361  0.45231  0.04151  Biso   1.000  H
  H423     1.0000 0.25929  0.37509  0.02960  Biso   1.000  H
  O156     1.0000 0.41418  0.39261  0.06536  Biso   1.000  O
  H424     1.0000 0.35593  0.49421  0.07259  Biso   1.000  H
  H425     1.0000 0.50457  0.54312  0.09699  Biso   1.000  H
  H426     1.0000 0.33471  0.08989  0.12670  Biso   1.000  H
  O157     1.0000 0.40140  0.14097  0.08683  Biso   1.000  O
  H427     1.0000 0.51308  0.10291  0.13070  Biso   1.000  H
  C245     1.0000 0.21691  0.13412  0.98171  Biso   1.000  C
  C246     1.0000 0.10172  0.35169  0.98699  Biso   1.000  C
  C247     1.0000 0.40168  0.37532  0.10280  Biso   1.000  C
  C248     1.0000 0.39742  0.21209  0.10641  Biso   1.000  C
  H428     1.0000 0.16677  0.16380  0.97149  Biso   1.000  H
  H429     1.0000 0.25798  0.16780  0.99499  Biso   1.000  H
  C249     1.0000 0.26293  0.09469  0.95479  Biso   1.000  C
  H430     1.0000 0.07452  0.33788  0.96361  Biso   1.000  H
  H431     1.0000 0.13380  0.30740  0.99641  Biso   1.000  H
  C250     1.0000 0.02541  0.37452  0.01380  Biso   1.000  C
  O158     1.0000 0.31987  0.33491  0.10901  Biso   1.000  O
  H432     1.0000 0.39797  0.42349  0.11630  Biso   1.000  H
  C251     1.0000 0.48932  0.33229  0.11580  Biso   1.000  C
  C252     1.0000 0.31767  0.26129  0.09209  Biso   1.000  C
  C253     1.0000 0.48760  0.25238  0.09989  Biso   1.000  C
  H433     1.0000 0.38938  0.20239  0.13259  Biso   1.000  H
  H434     1.0000 0.22007  0.07129  0.93781  Biso   1.000  H
  H435     1.0000 0.30133  0.05519  0.96539  Biso   1.000  H
  O159     1.0000 0.32193  0.15558  0.93540  Biso   1.000  O
  H436     1.0000 0.99629  0.42109  0.00531  Biso   1.000  H
  O160     1.0000 0.96099  0.31842  0.01670  Biso   1.000  O
  H437     1.0000 0.05193  0.38440  0.03771  Biso   1.000  H
  H438     1.0000 0.48671  0.32801  0.14250  Biso   1.000  H
  O161     1.0000 0.56783  0.37252  0.10679  Biso   1.000  O
  C254     1.0000 0.22721  0.22522  0.10389  Biso   1.000  C
  H439     1.0000 0.32063  0.26602  0.06539  Biso   1.000  H
  H440     1.0000 0.49887  0.25529  0.07350  Biso   1.000  H
  O162     1.0000 0.55890  0.20792  0.11671  Biso   1.000  O
  H441     1.0000 0.36548  0.16723  0.94849  Biso   1.000  H
  H442     1.0000 0.92170  0.33120  0.03149  Biso   1.000  H
  H443     1.0000 0.61268  0.35129  0.11569  Biso   1.000  H
  S35      1.0000 0.13318  0.28703  0.09313  Biso   1.000  S
  H444     1.0000 0.22852  0.21563  0.12999  Biso   1.000  H
  H445     1.0000 0.21931  0.17670  0.09149  Biso   1.000  H
  S36      1.0000 0.13050  0.26060  0.06780  Biso   1.000  S
  H446     1.0000 0.60897  0.22230  0.10920  Biso   1.000  H
  C255     1.0000 0.03530  0.22470  0.10690  Biso   1.000  C
  H447     1.0000 0.97912  0.25392  0.10449  Biso   1.000  H
  H448     1.0000 0.04238  0.21220  0.13259  Biso   1.000  H
  C256     1.0000 0.02500  0.15387  0.08669  Biso   1.000  C
  H449     1.0000 0.97383  0.12482  0.09680  Biso   1.000  H
  O163     1.0000 0.93303  0.14799  0.06520  Biso   1.000  O
  H450     1.0000 0.07988  0.12351  0.08880  Biso   1.000  H
  O164     1.0000 0.00563  0.17208  0.04581  Biso   1.000  O
  H451     1.0000 0.89237  0.16963  0.07659  Biso   1.000  H
  H452     1.0000 0.00179  0.13213  0.03420  Biso   1.000  H
  Ne1      1.0000 0.07971  0.76973  0.42665  Biso   1.000  Ne
  He1      1.0000 0.97225  0.73484  0.39265  Biso   1.000  He
  He2      1.0000 0.08370  0.66396  0.41560  Biso   1.000  He
  Ar1      1.0000 0.04906  0.74427  0.41443  Biso   1.000  Ar
  Ne2      1.0000 0.92029  0.26974  0.07335  Biso   1.000  Ne
  He3      1.0000 0.91176  0.16290  0.08406  Biso   1.000  He
  He4      1.0000 0.93236  0.16113  0.06821  Biso   1.000  He
  Ar2      1.0000 0.95092  0.24428  0.08557  Biso   1.000  Ar
  Ne3      1.0000 0.57971  0.73026  0.57335  Biso   1.000  Ne
  He5      1.0000 0.54882  0.83568  0.56698  Biso   1.000  He
  He6      1.0000 0.57131  0.83324  0.58539  Biso   1.000  He
  Ar3      1.0000 0.54910  0.75569  0.58555  Biso   1.000  Ar
  Ne4      1.0000 0.42029  0.23027  0.92665  Biso   1.000  Ne
  He7      1.0000 0.52546  0.26568  0.89227  Biso   1.000  He
  He8      1.0000 0.43325  0.33218  0.91423  Biso   1.000  He
  Ar4      1.0000 0.45093  0.25572  0.91443  Biso   1.000  Ar
