data_image0
_cell_length_a       43.348
_cell_length_b       11.963
_cell_length_c       18.825
_cell_angle_alpha    90
_cell_angle_beta     98.79
_cell_angle_gamma    90

_symmetry_space_group_name_H-M    "P 1"
_symmetry_int_tables_number       1

loop_
  _symmetry_equiv_pos_as_xyz
  'x, y, z'

loop_
  _atom_site_label
  _atom_site_occupancy
  _atom_site_fract_x
  _atom_site_fract_y
  _atom_site_fract_z
  _atom_site_thermal_displace_type
  _atom_site_B_iso_or_equiv
  _atom_site_type_symbol
  C1       1.0000 0.53768  0.42372  0.55139  Biso   1.000  C
  O1       1.0000 0.54243  0.32977  0.59622  Biso   1.000  O
  H1       1.0000 0.53688  0.40099  0.50226  Biso   1.000  H
  H2       1.0000 0.51830  0.45900  0.55730  Biso   1.000  H
  H3       1.0000 0.55450  0.47563  0.56397  Biso   1.000  H
  C2       1.0000 0.54159  0.34707  0.66878  Biso   1.000  C
  C3       1.0000 0.54074  0.45131  0.69910  Biso   1.000  C
  C4       1.0000 0.54168  0.25178  0.71076  Biso   1.000  C
  C5       1.0000 0.54034  0.46619  0.77129  Biso   1.000  C
  H4       1.0000 0.54050  0.51392  0.66970  Biso   1.000  H
  C6       1.0000 0.54076  0.26632  0.78376  Biso   1.000  C
  C7       1.0000 0.54279  0.13567  0.67948  Biso   1.000  C
  C8       1.0000 0.54140  0.58280  0.80386  Biso   1.000  C
  C9       1.0000 0.54041  0.37198  0.81370  Biso   1.000  C
  H5       1.0000 0.54039  0.20380  0.81306  Biso   1.000  H
  H6       1.0000 0.53288  0.13709  0.62971  Biso   1.000  H
  H7       1.0000 0.53089  0.08543  0.70528  Biso   1.000  H
  C10      1.0000 0.57556  0.09070  0.68319  Biso   1.000  C
  H8       1.0000 0.53138  0.58163  0.84660  Biso   1.000  H
  H9       1.0000 0.52979  0.63395  0.76968  Biso   1.000  H
  C11      1.0000 0.57475  0.62493  0.82364  Biso   1.000  C
  O2       1.0000 0.53989  0.39087  0.88643  Biso   1.000  O
  C12      1.0000 0.59079  0.03920  0.74587  Biso   1.000  C
  C13      1.0000 0.59170  0.09914  0.62670  Biso   1.000  C
  C14      1.0000 0.59013  0.67550  0.77274  Biso   1.000  C
  C15      1.0000 0.59108  0.60746  0.89196  Biso   1.000  C
  C16      1.0000 0.53719  0.29600  0.93066  Biso   1.000  C
  O3       1.0000 0.57413  0.02976  0.80247  Biso   1.000  O
  C17      1.0000 0.62109  0.00117  0.75049  Biso   1.000  C
  H10      1.0000 0.58199  0.13216  0.58439  Biso   1.000  H
  C18      1.0000 0.62225  0.05977  0.62998  Biso   1.000  C
  O4       1.0000 0.57271  0.69372  0.70625  Biso   1.000  O
  C19      1.0000 0.62088  0.70651  0.79048  Biso   1.000  C
  H11      1.0000 0.58108  0.57360  0.92669  Biso   1.000  H
  C20      1.0000 0.62186  0.63930  0.90949  Biso   1.000  C
  H12      1.0000 0.51959  0.25203  0.91008  Biso   1.000  H
  H13      1.0000 0.55579  0.25169  0.93378  Biso   1.000  H
  H14      1.0000 0.53440  0.32015  0.97786  Biso   1.000  H
  C21      1.0000 0.58804  0.98061  0.85659  Biso   1.000  C
  C22      1.0000 0.56690  0.92485  0.83219  Biso   1.000  C
  C23      1.0000 0.63735  0.01179  0.69206  Biso   1.000  C
  H15      1.0000 0.63080  0.96832  0.79290  Biso   1.000  H
  O5       1.0000 0.63916  0.06687  0.57337  Biso   1.000  O
  C24      1.0000 0.58877  0.73401  0.65078  Biso   1.000  C
  C25      1.0000 0.63741  0.68938  0.85842  Biso   1.000  C
  H16      1.0000 0.63089  0.73995  0.75570  Biso   1.000  H
  O6       1.0000 0.63938  0.62526  0.97705  Biso   1.000  O
  H17      1.0000 0.60769  0.01663  0.87229  Biso   1.000  H
  H18      1.0000 0.57549  0.98320  0.89449  Biso   1.000  H
  H19      1.0000 0.59158  0.90412  0.84466  Biso   1.000  H
  H20      1.0000 0.58589  0.88707  0.85138  Biso   1.000  H
  H21      1.0000 0.55528  0.87980  0.79516  Biso   1.000  H
  H22      1.0000 0.55458  0.93722  0.86976  Biso   1.000  H
  C26      1.0000 0.67124  0.97459  0.69937  Biso   1.000  C
  C27      1.0000 0.62256  0.09178  0.50500  Biso   1.000  C
  H23      1.0000 0.57458  0.73719  0.60627  Biso   1.000  H
  H24      1.0000 0.59680  0.80741  0.66298  Biso   1.000  H
  H25      1.0000 0.60568  0.68453  0.64556  Biso   1.000  H
  C28      1.0000 0.67161  0.71997  0.87600  Biso   1.000  C
  C29      1.0000 0.62314  0.59768  0.03586  Biso   1.000  C
  C30      1.0000 0.69300  0.06771  0.72770  Biso   1.000  C
  H26      1.0000 0.67579  0.95102  0.65287  Biso   1.000  H
  H27      1.0000 0.67450  0.91123  0.73178  Biso   1.000  H
  H28      1.0000 0.63619  0.08393  0.46947  Biso   1.000  H
  H29      1.0000 0.60530  0.04121  0.49420  Biso   1.000  H
  H30      1.0000 0.61490  0.16710  0.50457  Biso   1.000  H
  C31      1.0000 0.69226  0.62509  0.85858  Biso   1.000  C
  H31      1.0000 0.67659  0.73819  0.92669  Biso   1.000  H
  H32      1.0000 0.67568  0.78567  0.84869  Biso   1.000  H
  H33      1.0000 0.60349  0.63797  0.03134  Biso   1.000  H
  H34      1.0000 0.61870  0.51818  0.03575  Biso   1.000  H
  C32      1.0000 0.64354  0.62961  0.10450  Biso   1.000  C
  C33      1.0000 0.70137  0.08602  0.80166  Biso   1.000  C
  C34      1.0000 0.70455  0.14119  0.68093  Biso   1.000  C
  C35      1.0000 0.70037  0.61172  0.78994  Biso   1.000  C
  C36      1.0000 0.70338  0.54669  0.91013  Biso   1.000  C
  H35      1.0000 0.66320  0.58948  0.10794  Biso   1.000  H
  H36      1.0000 0.64809  0.70885  0.10342  Biso   1.000  H
  C37      1.0000 0.62831  0.60369  0.17153  Biso   1.000  C
  O7       1.0000 0.68975  0.00986  0.84622  Biso   1.000  O
  C38      1.0000 0.72026  0.17562  0.82698  Biso   1.000  C
  H37      1.0000 0.69969  0.12957  0.63170  Biso   1.000  H
  C39      1.0000 0.72311  0.23121  0.70609  Biso   1.000  C
  O8       1.0000 0.68854  0.69155  0.73995  Biso   1.000  O
  C40      1.0000 0.71920  0.52512  0.77516  Biso   1.000  C
  C41      1.0000 0.72202  0.45783  0.89481  Biso   1.000  C
  H38      1.0000 0.69830  0.55346  0.95620  Biso   1.000  H
  H39      1.0000 0.62889  0.52361  0.17954  Biso   1.000  H
  H40      1.0000 0.60660  0.62601  0.16201  Biso   1.000  H
  C42      1.0000 0.64334  0.66020  0.23807  Biso   1.000  C
  C43      1.0000 0.69973  0.02349  0.92217  Biso   1.000  C
  C44      1.0000 0.73136  0.25036  0.78000  Biso   1.000  C
  H41      1.0000 0.72559  0.18591  0.87627  Biso   1.000  H
  O9       1.0000 0.73450  0.30736  0.66126  Biso   1.000  O
  C45      1.0000 0.68764  0.66346  0.66669  Biso   1.000  C
  C46      1.0000 0.73036  0.44638  0.82692  Biso   1.000  C
  H42      1.0000 0.72458  0.51910  0.72936  Biso   1.000  H
  O10      1.0000 0.73323  0.37700  0.94523  Biso   1.000  O
  H43      1.0000 0.66510  0.63738  0.24753  Biso   1.000  H
  H44      1.0000 0.64288  0.74020  0.22974  Biso   1.000  H
  C47      1.0000 0.62890  0.63730  0.30311  Biso   1.000  C
  H45      1.0000 0.72209  0.02357  0.93196  Biso   1.000  H
  H46      1.0000 0.69190  0.09304  0.93765  Biso   1.000  H
  H47      1.0000 0.69180  0.96289  0.94760  Biso   1.000  H
  C48      1.0000 0.75047  0.35008  0.80827  Biso   1.000  C
  C49      1.0000 0.73215  0.27819  0.58724  Biso   1.000  C
  H48      1.0000 0.67730  0.72181  0.63707  Biso   1.000  H
  H49      1.0000 0.70860  0.65510  0.65648  Biso   1.000  H
  H50      1.0000 0.67650  0.59458  0.65669  Biso   1.000  H
  C50      1.0000 0.71806  0.36855  0.00726  Biso   1.000  C
  H51      1.0000 0.60648  0.64499  0.29032  Biso   1.000  H
  H52      1.0000 0.63308  0.55998  0.31704  Biso   1.000  H
  C51      1.0000 0.63923  0.70935  0.36735  Biso   1.000  C
  H53      1.0000 0.76469  0.32843  0.85090  Biso   1.000  H
  H54      1.0000 0.76280  0.37466  0.77236  Biso   1.000  H
  H55      1.0000 0.74321  0.33227  0.56300  Biso   1.000  H
  H56      1.0000 0.74110  0.20563  0.58300  Biso   1.000  H
  H57      1.0000 0.71060  0.27710  0.56590  Biso   1.000  H
  H58      1.0000 0.69588  0.36370  0.99248  Biso   1.000  H
  H59      1.0000 0.72529  0.30302  0.03414  Biso   1.000  H
  H60      1.0000 0.72280  0.43359  0.03693  Biso   1.000  H
  H61      1.0000 0.63390  0.78601  0.35402  Biso   1.000  H
  H62      1.0000 0.66178  0.70551  0.37794  Biso   1.000  H
  C52      1.0000 0.62685  0.68469  0.43411  Biso   1.000  C
  H63      1.0000 0.60448  0.67341  0.42180  Biso   1.000  H
  H64      1.0000 0.63579  0.61439  0.45281  Biso   1.000  H
  C53      1.0000 0.63215  0.76862  0.49313  Biso   1.000  C
  H65      1.0000 0.61988  0.83416  0.47931  Biso   1.000  H
  H66      1.0000 0.62607  0.73736  0.53581  Biso   1.000  H
  H67      1.0000 0.65388  0.78818  0.50221  Biso   1.000  H
  C54      1.0000 0.46231  0.57628  0.44856  Biso   1.000  C
  O11      1.0000 0.45756  0.67015  0.40373  Biso   1.000  O
  H68      1.0000 0.46311  0.59901  0.49769  Biso   1.000  H
  H69      1.0000 0.48170  0.54100  0.44270  Biso   1.000  H
  H70      1.0000 0.44549  0.52437  0.43598  Biso   1.000  H
  C55      1.0000 0.45840  0.65293  0.33117  Biso   1.000  C
  C56      1.0000 0.45925  0.54869  0.30090  Biso   1.000  C
  C57      1.0000 0.45831  0.74822  0.28919  Biso   1.000  C
  C58      1.0000 0.45965  0.53381  0.22872  Biso   1.000  C
  H71      1.0000 0.45950  0.48608  0.33031  Biso   1.000  H
  C59      1.0000 0.45924  0.73368  0.21619  Biso   1.000  C
  C60      1.0000 0.45720  0.86425  0.32047  Biso   1.000  C
  C61      1.0000 0.45859  0.41720  0.19609  Biso   1.000  C
  C62      1.0000 0.45958  0.62802  0.18631  Biso   1.000  C
  H72      1.0000 0.45960  0.79620  0.18690  Biso   1.000  H
  C63      1.0000 0.42443  0.90930  0.31682  Biso   1.000  C
  H73      1.0000 0.46711  0.86291  0.37030  Biso   1.000  H
  H74      1.0000 0.46910  0.91457  0.29467  Biso   1.000  H
  C64      1.0000 0.42524  0.37507  0.17636  Biso   1.000  C
  H75      1.0000 0.46861  0.41837  0.15341  Biso   1.000  H
  H76      1.0000 0.47020  0.36596  0.23027  Biso   1.000  H
  O12      1.0000 0.46010  0.60913  0.11352  Biso   1.000  O
  C65      1.0000 0.40830  0.90086  0.37331  Biso   1.000  C
  C66      1.0000 0.40920  0.96080  0.25409  Biso   1.000  C
  C67      1.0000 0.40892  0.39246  0.10799  Biso   1.000  C
  C68      1.0000 0.40986  0.32450  0.22721  Biso   1.000  C
  C69      1.0000 0.46280  0.70400  0.06929  Biso   1.000  C
  C70      1.0000 0.37774  0.94015  0.36998  Biso   1.000  C
  H77      1.0000 0.41800  0.86776  0.41561  Biso   1.000  H
  C71      1.0000 0.37891  0.99875  0.24952  Biso   1.000  C
  O13      1.0000 0.42586  0.97016  0.19749  Biso   1.000  O
  C72      1.0000 0.37814  0.36070  0.09052  Biso   1.000  C
  H78      1.0000 0.41891  0.42640  0.07332  Biso   1.000  H
  C73      1.0000 0.37911  0.29349  0.20947  Biso   1.000  C
  O14      1.0000 0.42728  0.30628  0.29370  Biso   1.000  O
  H79      1.0000 0.48040  0.74797  0.08987  Biso   1.000  H
  H80      1.0000 0.44421  0.74831  0.06622  Biso   1.000  H
  H81      1.0000 0.46559  0.67976  0.02209  Biso   1.000  H
  C74      1.0000 0.36264  0.98821  0.30789  Biso   1.000  C
  O15      1.0000 0.36083  0.93304  0.42658  Biso   1.000  O
  H82      1.0000 0.36919  0.03168  0.20711  Biso   1.000  H
  C75      1.0000 0.41196  0.01939  0.14341  Biso   1.000  C
  C76      1.0000 0.43309  0.07506  0.16781  Biso   1.000  C
  C77      1.0000 0.36258  0.31062  0.14153  Biso   1.000  C
  O16      1.0000 0.36061  0.37466  0.02290  Biso   1.000  O
  H83      1.0000 0.36910  0.25997  0.24430  Biso   1.000  H
  C78      1.0000 0.41122  0.26599  0.34917  Biso   1.000  C
  C79      1.0000 0.32875  0.02541  0.30058  Biso   1.000  C
  C80      1.0000 0.37743  0.90822  0.49500  Biso   1.000  C
  H84      1.0000 0.39230  0.98337  0.12772  Biso   1.000  H
  H85      1.0000 0.42451  0.01680  0.10552  Biso   1.000  H
  H86      1.0000 0.40841  0.09588  0.15529  Biso   1.000  H
  H87      1.0000 0.41410  0.11293  0.14857  Biso   1.000  H
  H88      1.0000 0.44471  0.12020  0.20480  Biso   1.000  H
  H89      1.0000 0.44541  0.06278  0.13019  Biso   1.000  H
  C81      1.0000 0.32838  0.28003  0.12395  Biso   1.000  C
  C82      1.0000 0.37685  0.40232  0.96409  Biso   1.000  C
  H90      1.0000 0.42541  0.26281  0.39368  Biso   1.000  H
  H91      1.0000 0.40319  0.19259  0.33697  Biso   1.000  H
  H92      1.0000 0.39431  0.31547  0.35439  Biso   1.000  H
  C83      1.0000 0.30699  0.93229  0.27231  Biso   1.000  C
  H93      1.0000 0.32420  0.04898  0.34708  Biso   1.000  H
  H94      1.0000 0.32549  0.08877  0.26817  Biso   1.000  H
  H95      1.0000 0.36380  0.91607  0.53048  Biso   1.000  H
  H96      1.0000 0.39469  0.95879  0.50581  Biso   1.000  H
  H97      1.0000 0.38509  0.83290  0.49538  Biso   1.000  H
  C84      1.0000 0.30774  0.37491  0.14142  Biso   1.000  C
  H98      1.0000 0.32340  0.26181  0.07332  Biso   1.000  H
  H99      1.0000 0.32431  0.21433  0.15131  Biso   1.000  H
  H100     1.0000 0.39651  0.36203  0.96866  Biso   1.000  H
  H101     1.0000 0.38129  0.48182  0.96425  Biso   1.000  H
  C85      1.0000 0.35645  0.37039  0.89551  Biso   1.000  C
  C86      1.0000 0.29544  0.85881  0.31902  Biso   1.000  C
  C87      1.0000 0.29862  0.91398  0.19829  Biso   1.000  C
  C88      1.0000 0.29963  0.38828  0.21006  Biso   1.000  C
  C89      1.0000 0.29661  0.45331  0.08982  Biso   1.000  C
  H102     1.0000 0.33680  0.41052  0.89207  Biso   1.000  H
  H103     1.0000 0.35190  0.29106  0.89653  Biso   1.000  H
  C90      1.0000 0.37168  0.39631  0.82848  Biso   1.000  C
  C91      1.0000 0.27689  0.76879  0.29392  Biso   1.000  C
  H104     1.0000 0.30030  0.87035  0.36831  Biso   1.000  H
  C92      1.0000 0.27973  0.82438  0.17303  Biso   1.000  C
  O17      1.0000 0.31024  0.99005  0.15373  Biso   1.000  O
  O18      1.0000 0.31146  0.30837  0.26005  Biso   1.000  O
  C93      1.0000 0.28079  0.47488  0.22479  Biso   1.000  C
  C94      1.0000 0.27797  0.54217  0.10519  Biso   1.000  C
  H105     1.0000 0.30170  0.44646  0.04381  Biso   1.000  H
  H106     1.0000 0.37110  0.47639  0.82047  Biso   1.000  H
  H107     1.0000 0.39339  0.37399  0.83794  Biso   1.000  H
  C95      1.0000 0.35665  0.33980  0.76188  Biso   1.000  C
  C96      1.0000 0.26864  0.74956  0.22001  Biso   1.000  C
  O19      1.0000 0.26549  0.69255  0.33869  Biso   1.000  O
  H108     1.0000 0.27440  0.81409  0.12368  Biso   1.000  H
  C97      1.0000 0.30026  0.97651  0.07778  Biso   1.000  C
  C98      1.0000 0.31235  0.33645  0.33332  Biso   1.000  C
  C99      1.0000 0.26963  0.55362  0.17308  Biso   1.000  C
  H109     1.0000 0.27541  0.48090  0.27059  Biso   1.000  H
  O20      1.0000 0.26676  0.62292  0.05472  Biso   1.000  O
  H110     1.0000 0.33489  0.36262  0.75247  Biso   1.000  H
  H111     1.0000 0.35711  0.25980  0.77026  Biso   1.000  H
  C100     1.0000 0.37109  0.36270  0.69684  Biso   1.000  C
  C101     1.0000 0.24953  0.64992  0.19173  Biso   1.000  C
  C102     1.0000 0.26784  0.72181  0.41276  Biso   1.000  C
  H112     1.0000 0.27790  0.97634  0.06800  Biso   1.000  H
  H113     1.0000 0.30809  0.90696  0.06230  Biso   1.000  H
  H114     1.0000 0.30820  0.03711  0.05241  Biso   1.000  H
  H115     1.0000 0.32269  0.27819  0.36288  Biso   1.000  H
  H116     1.0000 0.29139  0.34490  0.34348  Biso   1.000  H
  H117     1.0000 0.32349  0.40542  0.34332  Biso   1.000  H
  C103     1.0000 0.28193  0.63136  0.99269  Biso   1.000  C
  H118     1.0000 0.39351  0.35501  0.70963  Biso   1.000  H
  H119     1.0000 0.36691  0.44002  0.68297  Biso   1.000  H
  C104     1.0000 0.36076  0.29056  0.63260  Biso   1.000  C
  H120     1.0000 0.23530  0.67157  0.14911  Biso   1.000  H
  H121     1.0000 0.23719  0.62526  0.22759  Biso   1.000  H
  H122     1.0000 0.25679  0.66773  0.43701  Biso   1.000  H
  H123     1.0000 0.25890  0.79437  0.41701  Biso   1.000  H
  H124     1.0000 0.28940  0.72290  0.43410  Biso   1.000  H
  H125     1.0000 0.30411  0.63630  0.00753  Biso   1.000  H
  H126     1.0000 0.27470  0.69698  0.96587  Biso   1.000  H
  H127     1.0000 0.27719  0.56641  0.96307  Biso   1.000  H
  H128     1.0000 0.36609  0.21399  0.64593  Biso   1.000  H
  H129     1.0000 0.33821  0.29449  0.62207  Biso   1.000  H
  C105     1.0000 0.37314  0.31531  0.56584  Biso   1.000  C
  H130     1.0000 0.39551  0.32659  0.57815  Biso   1.000  H
  H131     1.0000 0.36420  0.38561  0.54714  Biso   1.000  H
  C106     1.0000 0.36785  0.23138  0.50688  Biso   1.000  C
  H132     1.0000 0.38011  0.16576  0.52064  Biso   1.000  H
  H133     1.0000 0.37392  0.26256  0.46414  Biso   1.000  H
  H134     1.0000 0.34611  0.21182  0.49774  Biso   1.000  H
  O21      1.0000 0.53990  0.60913  0.38642  Biso   1.000  O
  C107     1.0000 0.54043  0.62802  0.31370  Biso   1.000  C
  C108     1.0000 0.53721  0.70400  0.43066  Biso   1.000  C
  C109     1.0000 0.54033  0.53381  0.27129  Biso   1.000  C
  C110     1.0000 0.54075  0.73368  0.28381  Biso   1.000  C
  H135     1.0000 0.51960  0.74797  0.41008  Biso   1.000  H
  H136     1.0000 0.55580  0.74831  0.43378  Biso   1.000  H
  H137     1.0000 0.53439  0.67976  0.47791  Biso   1.000  H
  C111     1.0000 0.54139  0.41720  0.30391  Biso   1.000  C
  C112     1.0000 0.54076  0.54869  0.19910  Biso   1.000  C
  C113     1.0000 0.54167  0.74822  0.21082  Biso   1.000  C
  H138     1.0000 0.54041  0.79620  0.31311  Biso   1.000  H
  H139     1.0000 0.53140  0.41837  0.34659  Biso   1.000  H
  H140     1.0000 0.52980  0.36596  0.26967  Biso   1.000  H
  C114     1.0000 0.57477  0.37507  0.32364  Biso   1.000  C
  H141     1.0000 0.54049  0.48608  0.16970  Biso   1.000  H
  C115     1.0000 0.54161  0.65293  0.16878  Biso   1.000  C
  C116     1.0000 0.54280  0.86425  0.17948  Biso   1.000  C
  C117     1.0000 0.59013  0.32450  0.27279  Biso   1.000  C
  C118     1.0000 0.59109  0.39246  0.39196  Biso   1.000  C
  O22      1.0000 0.54245  0.67015  0.09627  Biso   1.000  O
  H142     1.0000 0.53290  0.86291  0.12970  Biso   1.000  H
  H143     1.0000 0.53090  0.91457  0.20528  Biso   1.000  H
  C119     1.0000 0.57557  0.90930  0.18319  Biso   1.000  C
  O23      1.0000 0.57270  0.30628  0.20630  Biso   1.000  O
  C120     1.0000 0.62090  0.29349  0.29048  Biso   1.000  C
  H144     1.0000 0.58110  0.42640  0.42668  Biso   1.000  H
  C121     1.0000 0.62185  0.36070  0.40948  Biso   1.000  C
  C122     1.0000 0.53769  0.57628  0.05139  Biso   1.000  C
  C123     1.0000 0.59079  0.96080  0.24592  Biso   1.000  C
  C124     1.0000 0.59171  0.90086  0.12669  Biso   1.000  C
  C125     1.0000 0.58879  0.26599  0.15077  Biso   1.000  C
  C126     1.0000 0.63740  0.31062  0.35842  Biso   1.000  C
  H145     1.0000 0.63091  0.25997  0.25570  Biso   1.000  H
  O24      1.0000 0.63937  0.37466  0.47710  Biso   1.000  O
  H146     1.0000 0.53690  0.59901  0.00231  Biso   1.000  H
  H147     1.0000 0.51831  0.54100  0.05730  Biso   1.000  H
  H148     1.0000 0.55449  0.52437  0.06402  Biso   1.000  H
  O25      1.0000 0.57413  0.97016  0.30252  Biso   1.000  O
  C127     1.0000 0.62108  0.99875  0.25049  Biso   1.000  C
  H149     1.0000 0.58201  0.86776  0.08439  Biso   1.000  H
  C128     1.0000 0.62224  0.94015  0.12997  Biso   1.000  C
  H150     1.0000 0.57460  0.26281  0.10632  Biso   1.000  H
  H151     1.0000 0.59679  0.19259  0.16298  Biso   1.000  H
  H152     1.0000 0.60570  0.31547  0.14561  Biso   1.000  H
  C129     1.0000 0.67163  0.28003  0.37600  Biso   1.000  C
  C130     1.0000 0.62315  0.40232  0.53586  Biso   1.000  C
  C131     1.0000 0.58803  0.01939  0.35659  Biso   1.000  C
  C132     1.0000 0.56689  0.07506  0.33219  Biso   1.000  C
  C133     1.0000 0.63737  0.98821  0.19211  Biso   1.000  C
  H153     1.0000 0.63079  0.03168  0.29290  Biso   1.000  H
  O26      1.0000 0.63918  0.93304  0.07337  Biso   1.000  O
  C134     1.0000 0.69227  0.37491  0.35858  Biso   1.000  C
  H154     1.0000 0.67660  0.26181  0.42668  Biso   1.000  H
  H155     1.0000 0.67570  0.21433  0.34869  Biso   1.000  H
  H156     1.0000 0.60350  0.36203  0.53129  Biso   1.000  H
  H157     1.0000 0.61869  0.48182  0.53569  Biso   1.000  H
  C135     1.0000 0.64355  0.37039  0.60444  Biso   1.000  C
  H158     1.0000 0.60771  0.98337  0.37229  Biso   1.000  H
  H159     1.0000 0.57550  0.01680  0.39449  Biso   1.000  H
  H160     1.0000 0.59160  0.09588  0.34471  Biso   1.000  H
  H161     1.0000 0.58591  0.11293  0.35138  Biso   1.000  H
  H162     1.0000 0.55530  0.12020  0.29521  Biso   1.000  H
  H163     1.0000 0.55460  0.06278  0.36981  Biso   1.000  H
  C136     1.0000 0.67123  0.02541  0.19942  Biso   1.000  C
  C137     1.0000 0.62257  0.90822  0.00500  Biso   1.000  C
  C138     1.0000 0.70036  0.38828  0.28994  Biso   1.000  C
  C139     1.0000 0.70340  0.45331  0.41018  Biso   1.000  C
  H164     1.0000 0.66318  0.41052  0.60788  Biso   1.000  H
  H165     1.0000 0.64810  0.29106  0.60337  Biso   1.000  H
  C140     1.0000 0.62832  0.39631  0.67147  Biso   1.000  C
  C141     1.0000 0.69300  0.93229  0.22769  Biso   1.000  C
  H166     1.0000 0.67580  0.04898  0.15287  Biso   1.000  H
  H167     1.0000 0.67449  0.08877  0.23178  Biso   1.000  H
  H168     1.0000 0.61491  0.83290  0.00462  Biso   1.000  H
  H169     1.0000 0.63620  0.91607  0.96947  Biso   1.000  H
  H170     1.0000 0.60529  0.95879  0.99414  Biso   1.000  H
  O27      1.0000 0.68853  0.30837  0.23995  Biso   1.000  O
  C142     1.0000 0.71919  0.47488  0.27516  Biso   1.000  C
  C143     1.0000 0.72203  0.54217  0.39481  Biso   1.000  C
  H171     1.0000 0.69829  0.44646  0.45619  Biso   1.000  H
  H172     1.0000 0.62890  0.47639  0.67948  Biso   1.000  H
  H173     1.0000 0.60659  0.37399  0.66196  Biso   1.000  H
  C144     1.0000 0.64335  0.33980  0.73802  Biso   1.000  C
  C145     1.0000 0.70139  0.91398  0.30171  Biso   1.000  C
  C146     1.0000 0.70454  0.85881  0.18093  Biso   1.000  C
  C147     1.0000 0.68763  0.33645  0.16669  Biso   1.000  C
  C148     1.0000 0.73038  0.55362  0.32692  Biso   1.000  C
  H174     1.0000 0.72460  0.48090  0.22941  Biso   1.000  H
  O28      1.0000 0.73325  0.62292  0.44523  Biso   1.000  O
  H175     1.0000 0.66509  0.36262  0.74748  Biso   1.000  H
  H176     1.0000 0.64289  0.25980  0.72969  Biso   1.000  H
  C149     1.0000 0.62889  0.36270  0.80306  Biso   1.000  C
  C150     1.0000 0.72025  0.82438  0.32697  Biso   1.000  C
  O29      1.0000 0.68977  0.99005  0.34627  Biso   1.000  O
  C151     1.0000 0.72312  0.76879  0.20609  Biso   1.000  C
  H177     1.0000 0.69971  0.87035  0.13169  Biso   1.000  H
  H178     1.0000 0.67730  0.27819  0.13712  Biso   1.000  H
  H179     1.0000 0.70859  0.34490  0.15647  Biso   1.000  H
  H180     1.0000 0.67650  0.40542  0.15669  Biso   1.000  H
  C152     1.0000 0.75048  0.64992  0.30827  Biso   1.000  C
  C153     1.0000 0.71808  0.63136  0.50726  Biso   1.000  C
  H181     1.0000 0.60650  0.35501  0.79026  Biso   1.000  H
  H182     1.0000 0.63309  0.44002  0.81698  Biso   1.000  H
  C154     1.0000 0.63925  0.29056  0.86734  Biso   1.000  C
  C155     1.0000 0.73137  0.74956  0.28000  Biso   1.000  C
  H183     1.0000 0.72560  0.81409  0.37627  Biso   1.000  H
  C156     1.0000 0.69974  0.97651  0.42217  Biso   1.000  C
  O30      1.0000 0.73452  0.69255  0.16126  Biso   1.000  O
  H184     1.0000 0.76470  0.67157  0.35089  Biso   1.000  H
  H185     1.0000 0.76280  0.62526  0.27242  Biso   1.000  H
  H186     1.0000 0.69590  0.63630  0.49248  Biso   1.000  H
  H187     1.0000 0.72530  0.69698  0.53408  Biso   1.000  H
  H188     1.0000 0.72279  0.56641  0.53688  Biso   1.000  H
  H189     1.0000 0.63388  0.21399  0.85396  Biso   1.000  H
  H190     1.0000 0.66179  0.29449  0.87788  Biso   1.000  H
  C157     1.0000 0.62686  0.31531  0.93405  Biso   1.000  C
  H191     1.0000 0.72210  0.97634  0.43201  Biso   1.000  H
  H192     1.0000 0.69189  0.90696  0.43770  Biso   1.000  H
  H193     1.0000 0.69179  0.03711  0.44759  Biso   1.000  H
  C158     1.0000 0.73214  0.72181  0.08724  Biso   1.000  C
  H194     1.0000 0.60450  0.32659  0.92180  Biso   1.000  H
  H195     1.0000 0.63578  0.38561  0.95276  Biso   1.000  H
  C159     1.0000 0.63213  0.23138  0.99307  Biso   1.000  C
  H196     1.0000 0.74320  0.66773  0.06300  Biso   1.000  H
  H197     1.0000 0.74111  0.79437  0.08299  Biso   1.000  H
  H198     1.0000 0.71061  0.72290  0.06590  Biso   1.000  H
  H199     1.0000 0.61989  0.16576  0.97926  Biso   1.000  H
  H200     1.0000 0.62609  0.26256  0.03580  Biso   1.000  H
  H201     1.0000 0.65390  0.21182  0.00221  Biso   1.000  H
  O31      1.0000 0.46009  0.39087  0.61353  Biso   1.000  O
  C160     1.0000 0.45957  0.37198  0.68631  Biso   1.000  C
  C161     1.0000 0.46278  0.29600  0.56929  Biso   1.000  C
  C162     1.0000 0.45966  0.46619  0.72866  Biso   1.000  C
  C163     1.0000 0.45924  0.26632  0.71619  Biso   1.000  C
  H202     1.0000 0.48039  0.25203  0.58988  Biso   1.000  H
  H203     1.0000 0.44419  0.25169  0.56617  Biso   1.000  H
  H204     1.0000 0.46560  0.32015  0.52209  Biso   1.000  H
  C164     1.0000 0.45860  0.58280  0.69609  Biso   1.000  C
  C165     1.0000 0.45923  0.45131  0.80085  Biso   1.000  C
  C166     1.0000 0.45832  0.25178  0.78919  Biso   1.000  C
  H205     1.0000 0.45958  0.20380  0.68690  Biso   1.000  H
  C167     1.0000 0.42523  0.62493  0.67636  Biso   1.000  C
  H206     1.0000 0.46859  0.58163  0.65336  Biso   1.000  H
  H207     1.0000 0.47019  0.63395  0.73028  Biso   1.000  H
  H208     1.0000 0.45950  0.51392  0.83026  Biso   1.000  H
  C168     1.0000 0.45838  0.34707  0.83117  Biso   1.000  C
  C169     1.0000 0.45719  0.13567  0.82047  Biso   1.000  C
  C170     1.0000 0.40890  0.60746  0.60799  Biso   1.000  C
  C171     1.0000 0.40987  0.67550  0.72721  Biso   1.000  C
  O32      1.0000 0.45755  0.32977  0.90374  Biso   1.000  O
  C172     1.0000 0.42442  0.09070  0.81676  Biso   1.000  C
  H209     1.0000 0.46709  0.13709  0.87030  Biso   1.000  H
  H210     1.0000 0.46909  0.08543  0.79467  Biso   1.000  H
  C173     1.0000 0.37814  0.63930  0.59047  Biso   1.000  C
  H211     1.0000 0.41889  0.57360  0.57327  Biso   1.000  H
  C174     1.0000 0.37909  0.70651  0.70947  Biso   1.000  C
  O33      1.0000 0.42729  0.69372  0.79370  Biso   1.000  O
  C175     1.0000 0.46230  0.42372  0.94856  Biso   1.000  C
  C176     1.0000 0.40828  0.09914  0.87326  Biso   1.000  C
  C177     1.0000 0.40921  0.03920  0.75409  Biso   1.000  C
  C178     1.0000 0.36259  0.68938  0.64153  Biso   1.000  C
  O34      1.0000 0.36062  0.62526  0.52290  Biso   1.000  O
  H212     1.0000 0.36909  0.73995  0.74431  Biso   1.000  H
  C179     1.0000 0.41120  0.73401  0.84918  Biso   1.000  C
  H213     1.0000 0.46309  0.40099  0.99769  Biso   1.000  H
  H214     1.0000 0.48168  0.45900  0.94265  Biso   1.000  H
  H215     1.0000 0.44550  0.47563  0.93599  Biso   1.000  H
  C180     1.0000 0.37775  0.05977  0.86998  Biso   1.000  C
  H216     1.0000 0.41798  0.13216  0.91556  Biso   1.000  H
  C181     1.0000 0.37891  0.00117  0.74947  Biso   1.000  C
  O35      1.0000 0.42587  0.02976  0.69749  Biso   1.000  O
  C182     1.0000 0.32836  0.71997  0.62396  Biso   1.000  C
  C183     1.0000 0.37684  0.59768  0.46415  Biso   1.000  C
  H217     1.0000 0.42539  0.73719  0.89368  Biso   1.000  H
  H218     1.0000 0.40320  0.80741  0.83697  Biso   1.000  H
  H219     1.0000 0.39429  0.68453  0.85439  Biso   1.000  H
  C184     1.0000 0.36263  0.01179  0.80790  Biso   1.000  C
  O36      1.0000 0.36081  0.06687  0.92658  Biso   1.000  O
  H220     1.0000 0.36920  0.96832  0.70706  Biso   1.000  H
  C185     1.0000 0.41196  0.98061  0.64336  Biso   1.000  C
  C186     1.0000 0.43310  0.92485  0.66776  Biso   1.000  C
  C187     1.0000 0.30772  0.62509  0.64137  Biso   1.000  C
  H221     1.0000 0.32339  0.73819  0.57327  Biso   1.000  H
  H222     1.0000 0.32429  0.78567  0.65126  Biso   1.000  H
  H223     1.0000 0.39649  0.63797  0.46867  Biso   1.000  H
  H224     1.0000 0.38130  0.51818  0.46431  Biso   1.000  H
  C188     1.0000 0.35644  0.62961  0.39551  Biso   1.000  C
  C189     1.0000 0.32876  0.97459  0.80058  Biso   1.000  C
  C190     1.0000 0.37742  0.09178  0.99495  Biso   1.000  C
  H225     1.0000 0.39228  0.01663  0.62766  Biso   1.000  H
  H226     1.0000 0.42449  0.98320  0.60546  Biso   1.000  H
  H227     1.0000 0.40839  0.90412  0.65529  Biso   1.000  H
  H228     1.0000 0.41409  0.88707  0.64857  Biso   1.000  H
  H229     1.0000 0.44469  0.87980  0.70480  Biso   1.000  H
  H230     1.0000 0.44539  0.93722  0.63019  Biso   1.000  H
  C191     1.0000 0.29659  0.54669  0.58982  Biso   1.000  C
  C192     1.0000 0.29964  0.61172  0.71007  Biso   1.000  C
  H231     1.0000 0.33681  0.58948  0.39207  Biso   1.000  H
  H232     1.0000 0.35189  0.70885  0.39658  Biso   1.000  H
  C193     1.0000 0.37167  0.60369  0.32848  Biso   1.000  C
  C194     1.0000 0.30699  0.06771  0.77226  Biso   1.000  C
  H233     1.0000 0.32419  0.95102  0.84708  Biso   1.000  H
  H234     1.0000 0.32550  0.91123  0.76817  Biso   1.000  H
  H235     1.0000 0.38508  0.16710  0.99538  Biso   1.000  H
  H236     1.0000 0.36379  0.08393  0.03054  Biso   1.000  H
  H237     1.0000 0.39470  0.04121  0.00581  Biso   1.000  H
  C195     1.0000 0.27796  0.45783  0.60520  Biso   1.000  C
  H238     1.0000 0.30171  0.55346  0.54381  Biso   1.000  H
  C196     1.0000 0.28080  0.52512  0.72479  Biso   1.000  C
  O37      1.0000 0.31146  0.69155  0.76000  Biso   1.000  O
  H239     1.0000 0.37109  0.52361  0.32047  Biso   1.000  H
  H240     1.0000 0.39340  0.62601  0.33799  Biso   1.000  H
  C197     1.0000 0.35664  0.66020  0.26193  Biso   1.000  C
  C198     1.0000 0.29545  0.14119  0.81902  Biso   1.000  C
  C199     1.0000 0.29860  0.08602  0.69829  Biso   1.000  C
  O38      1.0000 0.26674  0.37700  0.55472  Biso   1.000  O
  C200     1.0000 0.26961  0.44638  0.67303  Biso   1.000  C
  H241     1.0000 0.27539  0.51910  0.77059  Biso   1.000  H
  C201     1.0000 0.31236  0.66346  0.83327  Biso   1.000  C
  H242     1.0000 0.33490  0.63738  0.25247  Biso   1.000  H
  H243     1.0000 0.35710  0.74020  0.27032  Biso   1.000  H
  C202     1.0000 0.37110  0.63730  0.19689  Biso   1.000  C
  C203     1.0000 0.27687  0.23121  0.79387  Biso   1.000  C
  H244     1.0000 0.30028  0.12957  0.86826  Biso   1.000  H
  C204     1.0000 0.27974  0.17562  0.67298  Biso   1.000  C
  O39      1.0000 0.31022  0.00986  0.65373  Biso   1.000  O
  C205     1.0000 0.28192  0.36855  0.49275  Biso   1.000  C
  C206     1.0000 0.24951  0.35008  0.69174  Biso   1.000  C
  H245     1.0000 0.32270  0.72181  0.86288  Biso   1.000  H
  H246     1.0000 0.29140  0.65510  0.84348  Biso   1.000  H
  H247     1.0000 0.32349  0.59458  0.84326  Biso   1.000  H
  H248     1.0000 0.39349  0.64499  0.20969  Biso   1.000  H
  H249     1.0000 0.36690  0.55998  0.18297  Biso   1.000  H
  C207     1.0000 0.36075  0.70935  0.13266  Biso   1.000  C
  C208     1.0000 0.26862  0.25036  0.71996  Biso   1.000  C
  O40      1.0000 0.26547  0.30736  0.83870  Biso   1.000  O
  H250     1.0000 0.27439  0.18591  0.62369  Biso   1.000  H
  C209     1.0000 0.30025  0.02349  0.57778  Biso   1.000  C
  H251     1.0000 0.30409  0.36370  0.50747  Biso   1.000  H
  H252     1.0000 0.27469  0.30302  0.46587  Biso   1.000  H
  H253     1.0000 0.27720  0.43359  0.46307  Biso   1.000  H
  H254     1.0000 0.23529  0.32843  0.64906  Biso   1.000  H
  H255     1.0000 0.23720  0.37466  0.72759  Biso   1.000  H
  H256     1.0000 0.36611  0.78601  0.14599  Biso   1.000  H
  H257     1.0000 0.33820  0.70551  0.12207  Biso   1.000  H
  C210     1.0000 0.37313  0.68469  0.06590  Biso   1.000  C
  C211     1.0000 0.26785  0.27819  0.91271  Biso   1.000  C
  H258     1.0000 0.27789  0.02357  0.56800  Biso   1.000  H
  H259     1.0000 0.30810  0.09304  0.56230  Biso   1.000  H
  H260     1.0000 0.30821  0.96289  0.55241  Biso   1.000  H
  H261     1.0000 0.39550  0.67341  0.07821  Biso   1.000  H
  H262     1.0000 0.36421  0.61439  0.04719  Biso   1.000  H
  C212     1.0000 0.36786  0.76862  0.00688  Biso   1.000  C
  H263     1.0000 0.25679  0.33227  0.93695  Biso   1.000  H
  H264     1.0000 0.25888  0.20563  0.91696  Biso   1.000  H
  H265     1.0000 0.28938  0.27710  0.93405  Biso   1.000  H
  H266     1.0000 0.38010  0.83416  0.02069  Biso   1.000  H
  H267     1.0000 0.37390  0.73736  0.96415  Biso   1.000  H
  H268     1.0000 0.34609  0.78818  0.99774  Biso   1.000  H
  C213     1.0000 0.74951  0.85012  0.69174  Biso   1.000  C
  C214     1.0000 0.76864  0.75040  0.71996  Biso   1.000  C
  H269     1.0000 0.73529  0.82839  0.64906  Biso   1.000  H
  H270     1.0000 0.73720  0.87470  0.72759  Biso   1.000  H
  C215     1.0000 0.76961  0.94642  0.67303  Biso   1.000  C
  C216     1.0000 0.77687  0.73117  0.79387  Biso   1.000  C
  C217     1.0000 0.77974  0.67558  0.67298  Biso   1.000  C
  C218     1.0000 0.77796  0.95779  0.60520  Biso   1.000  C
  C219     1.0000 0.78080  0.02508  0.72479  Biso   1.000  C
  O41      1.0000 0.76547  0.80741  0.83870  Biso   1.000  O
  C220     1.0000 0.79545  0.64123  0.81902  Biso   1.000  C
  C221     1.0000 0.79862  0.58597  0.69829  Biso   1.000  C
  H271     1.0000 0.77439  0.68586  0.62369  Biso   1.000  H
  O42      1.0000 0.76677  0.87704  0.55472  Biso   1.000  O
  C222     1.0000 0.79662  0.04664  0.58982  Biso   1.000  C
  H272     1.0000 0.77539  0.01906  0.77059  Biso   1.000  H
  C223     1.0000 0.79964  0.11168  0.71007  Biso   1.000  C
  C224     1.0000 0.76785  0.77815  0.91271  Biso   1.000  C
  C225     1.0000 0.80699  0.56767  0.77226  Biso   1.000  C
  H273     1.0000 0.80028  0.62961  0.86826  Biso   1.000  H
  O43      1.0000 0.81022  0.50991  0.65373  Biso   1.000  O
  C226     1.0000 0.78194  0.86859  0.49275  Biso   1.000  C
  C227     1.0000 0.80772  0.12505  0.64137  Biso   1.000  C
  H274     1.0000 0.80171  0.05350  0.54381  Biso   1.000  H
  O44      1.0000 0.81146  0.19159  0.76000  Biso   1.000  O
  H275     1.0000 0.75679  0.83232  0.93695  Biso   1.000  H
  H276     1.0000 0.75890  0.70559  0.91696  Biso   1.000  H
  H277     1.0000 0.78938  0.77706  0.93405  Biso   1.000  H
  C228     1.0000 0.82876  0.47463  0.80058  Biso   1.000  C
  C229     1.0000 0.80025  0.52353  0.57778  Biso   1.000  C
  H278     1.0000 0.80409  0.86366  0.50747  Biso   1.000  H
  H279     1.0000 0.77469  0.80298  0.46587  Biso   1.000  H
  H280     1.0000 0.77720  0.93355  0.46307  Biso   1.000  H
  C230     1.0000 0.82839  0.22001  0.62396  Biso   1.000  C
  C231     1.0000 0.81236  0.16350  0.83327  Biso   1.000  C
  C232     1.0000 0.86263  0.51183  0.80790  Biso   1.000  C
  H281     1.0000 0.82419  0.45097  0.84708  Biso   1.000  H
  H282     1.0000 0.82550  0.41118  0.76817  Biso   1.000  H
  H283     1.0000 0.77789  0.52361  0.56800  Biso   1.000  H
  H284     1.0000 0.80810  0.59300  0.56230  Biso   1.000  H
  H285     1.0000 0.80821  0.46293  0.55241  Biso   1.000  H
  H286     1.0000 0.82339  0.23815  0.57327  Biso   1.000  H
  H287     1.0000 0.82429  0.28571  0.65126  Biso   1.000  H
  C233     1.0000 0.86259  0.18942  0.64153  Biso   1.000  C
  H288     1.0000 0.82270  0.22177  0.86288  Biso   1.000  H
  H289     1.0000 0.79140  0.15506  0.84348  Biso   1.000  H
  H290     1.0000 0.82349  0.09454  0.84326  Biso   1.000  H
  C234     1.0000 0.87775  0.55981  0.86998  Biso   1.000  C
  C235     1.0000 0.87891  0.50121  0.74947  Biso   1.000  C
  C236     1.0000 0.87814  0.13926  0.59047  Biso   1.000  C
  C237     1.0000 0.87909  0.20647  0.70947  Biso   1.000  C
  O45      1.0000 0.86081  0.56691  0.92658  Biso   1.000  O
  C238     1.0000 0.90830  0.59910  0.87326  Biso   1.000  C
  C239     1.0000 0.90921  0.53916  0.75409  Biso   1.000  C
  H291     1.0000 0.86920  0.46828  0.70706  Biso   1.000  H
  O46      1.0000 0.86062  0.12530  0.52290  Biso   1.000  O
  C240     1.0000 0.90890  0.10750  0.60799  Biso   1.000  C
  C241     1.0000 0.90987  0.17546  0.72721  Biso   1.000  C
  H292     1.0000 0.86909  0.23999  0.74431  Biso   1.000  H
  C242     1.0000 0.87742  0.59182  0.99495  Biso   1.000  C
  C243     1.0000 0.92442  0.59065  0.81676  Biso   1.000  C
  H293     1.0000 0.91798  0.63220  0.91556  Biso   1.000  H
  O47      1.0000 0.92587  0.52980  0.69749  Biso   1.000  O
  C244     1.0000 0.87684  0.09772  0.46415  Biso   1.000  C
  C245     1.0000 0.92523  0.12489  0.67636  Biso   1.000  C
  H294     1.0000 0.91889  0.07356  0.57327  Biso   1.000  H
  O48      1.0000 0.92729  0.19368  0.79370  Biso   1.000  O
  H295     1.0000 0.88510  0.66706  0.99538  Biso   1.000  H
  H296     1.0000 0.86379  0.58388  0.03054  Biso   1.000  H
  H297     1.0000 0.89470  0.54117  0.00581  Biso   1.000  H
  C246     1.0000 0.95721  0.63571  0.82047  Biso   1.000  C
  C247     1.0000 0.91196  0.48057  0.64336  Biso   1.000  C
  C248     1.0000 0.93310  0.42489  0.66776  Biso   1.000  C
  H298     1.0000 0.89649  0.13801  0.46867  Biso   1.000  H
  H299     1.0000 0.88130  0.01822  0.46431  Biso   1.000  H
  C249     1.0000 0.85646  0.12957  0.39551  Biso   1.000  C
  C250     1.0000 0.95860  0.08276  0.69609  Biso   1.000  C
  C251     1.0000 0.91120  0.23397  0.84918  Biso   1.000  C
  C252     1.0000 0.95832  0.75182  0.78919  Biso   1.000  C
  H300     1.0000 0.96709  0.63705  0.87030  Biso   1.000  H
  H301     1.0000 0.96909  0.58539  0.79467  Biso   1.000  H
  H302     1.0000 0.89230  0.51659  0.62766  Biso   1.000  H
  H303     1.0000 0.92449  0.48316  0.60546  Biso   1.000  H
  H304     1.0000 0.90839  0.40408  0.65529  Biso   1.000  H
  H305     1.0000 0.91409  0.38711  0.64857  Biso   1.000  H
  H306     1.0000 0.94469  0.37975  0.70480  Biso   1.000  H
  H307     1.0000 0.94539  0.43718  0.63019  Biso   1.000  H
  H308     1.0000 0.83681  0.08944  0.39207  Biso   1.000  H
  H309     1.0000 0.85189  0.20889  0.39658  Biso   1.000  H
  C253     1.0000 0.87169  0.10365  0.32848  Biso   1.000  C
  C254     1.0000 0.95966  0.96615  0.72866  Biso   1.000  C
  H310     1.0000 0.96859  0.08158  0.65336  Biso   1.000  H
  H311     1.0000 0.97019  0.13400  0.73028  Biso   1.000  H
  H312     1.0000 0.92539  0.23715  0.89368  Biso   1.000  H
  H313     1.0000 0.90320  0.30736  0.83697  Biso   1.000  H
  H314     1.0000 0.89429  0.18449  0.85439  Biso   1.000  H
  C255     1.0000 0.95838  0.84711  0.83117  Biso   1.000  C
  C256     1.0000 0.95924  0.76628  0.71619  Biso   1.000  C
  H315     1.0000 0.87111  0.02357  0.32047  Biso   1.000  H
  H316     1.0000 0.89340  0.12597  0.33799  Biso   1.000  H
  C257     1.0000 0.85664  0.16016  0.26193  Biso   1.000  C
  C258     1.0000 0.95957  0.87202  0.68631  Biso   1.000  C
  C259     1.0000 0.95923  0.95127  0.80085  Biso   1.000  C
  O49      1.0000 0.95755  0.82981  0.90374  Biso   1.000  O
  H317     1.0000 0.95961  0.70375  0.68690  Biso   1.000  H
  H318     1.0000 0.83490  0.13734  0.25247  Biso   1.000  H
  H319     1.0000 0.85710  0.24016  0.27032  Biso   1.000  H
  C260     1.0000 0.87110  0.13726  0.19689  Biso   1.000  C
  O50      1.0000 0.96009  0.89091  0.61353  Biso   1.000  O
  H320     1.0000 0.95950  0.01388  0.83026  Biso   1.000  H
  C261     1.0000 0.96230  0.92368  0.94856  Biso   1.000  C
  H321     1.0000 0.89349  0.14495  0.20969  Biso   1.000  H
  H322     1.0000 0.86690  0.06002  0.18297  Biso   1.000  H
  C262     1.0000 0.86075  0.20940  0.13266  Biso   1.000  C
  C263     1.0000 0.96278  0.79595  0.56929  Biso   1.000  C
  H323     1.0000 0.96309  0.90094  0.99769  Biso   1.000  H
  H324     1.0000 0.98170  0.95896  0.94265  Biso   1.000  H
  H325     1.0000 0.94550  0.97559  0.93599  Biso   1.000  H
  H326     1.0000 0.86611  0.28597  0.14599  Biso   1.000  H
  H327     1.0000 0.83820  0.20547  0.12207  Biso   1.000  H
  C264     1.0000 0.87316  0.18465  0.06590  Biso   1.000  C
  H328     1.0000 0.98039  0.75199  0.58988  Biso   1.000  H
  H329     1.0000 0.94419  0.75165  0.56617  Biso   1.000  H
  H330     1.0000 0.96560  0.82020  0.52209  Biso   1.000  H
  H331     1.0000 0.89550  0.17337  0.07821  Biso   1.000  H
  H332     1.0000 0.86421  0.11435  0.04719  Biso   1.000  H
  C265     1.0000 0.86786  0.26858  0.00688  Biso   1.000  C
  H333     1.0000 0.87390  0.23740  0.96415  Biso   1.000  H
  H334     1.0000 0.84609  0.28814  0.99774  Biso   1.000  H
  H335     1.0000 0.88010  0.33420  0.02069  Biso   1.000  H
  C266     1.0000 0.25048  0.14988  0.30827  Biso   1.000  C
  C267     1.0000 0.23135  0.24960  0.28000  Biso   1.000  C
  H336     1.0000 0.26470  0.17161  0.35089  Biso   1.000  H
  H337     1.0000 0.26280  0.12530  0.27242  Biso   1.000  H
  C268     1.0000 0.23038  0.05358  0.32692  Biso   1.000  C
  C269     1.0000 0.22312  0.26883  0.20609  Biso   1.000  C
  C270     1.0000 0.22025  0.32442  0.32697  Biso   1.000  C
  C271     1.0000 0.22203  0.04221  0.39481  Biso   1.000  C
  C272     1.0000 0.21919  0.97492  0.27516  Biso   1.000  C
  O51      1.0000 0.23452  0.19259  0.16126  Biso   1.000  O
  C273     1.0000 0.20454  0.35877  0.18093  Biso   1.000  C
  C274     1.0000 0.20137  0.41403  0.30171  Biso   1.000  C
  H338     1.0000 0.22560  0.31414  0.37627  Biso   1.000  H
  O52      1.0000 0.23322  0.12296  0.44523  Biso   1.000  O
  C275     1.0000 0.20338  0.95327  0.41018  Biso   1.000  C
  H339     1.0000 0.22460  0.98094  0.22941  Biso   1.000  H
  C276     1.0000 0.20036  0.88832  0.28994  Biso   1.000  C
  C277     1.0000 0.23214  0.22177  0.08724  Biso   1.000  C
  C278     1.0000 0.19300  0.43233  0.22769  Biso   1.000  C
  H340     1.0000 0.19971  0.37039  0.13169  Biso   1.000  H
  O53      1.0000 0.18977  0.49009  0.34627  Biso   1.000  O
  C279     1.0000 0.21805  0.13141  0.50726  Biso   1.000  C
  C280     1.0000 0.19227  0.87486  0.35858  Biso   1.000  C
  H341     1.0000 0.19829  0.94650  0.45619  Biso   1.000  H
  O54      1.0000 0.18853  0.80841  0.23995  Biso   1.000  O
  H342     1.0000 0.24320  0.16768  0.06300  Biso   1.000  H
  H343     1.0000 0.24109  0.29441  0.08299  Biso   1.000  H
  H344     1.0000 0.21061  0.22294  0.06590  Biso   1.000  H
  C281     1.0000 0.17123  0.52537  0.19942  Biso   1.000  C
  C282     1.0000 0.19974  0.47647  0.42217  Biso   1.000  C
  H345     1.0000 0.19590  0.13634  0.49248  Biso   1.000  H
  H346     1.0000 0.22530  0.19702  0.53408  Biso   1.000  H
  H347     1.0000 0.22279  0.06637  0.53688  Biso   1.000  H
  C283     1.0000 0.17160  0.77999  0.37600  Biso   1.000  C
  C284     1.0000 0.18763  0.83650  0.16669  Biso   1.000  C
  C285     1.0000 0.13737  0.48817  0.19211  Biso   1.000  C
  H348     1.0000 0.17580  0.54903  0.15287  Biso   1.000  H
  H349     1.0000 0.17449  0.58882  0.23178  Biso   1.000  H
  H350     1.0000 0.22210  0.47639  0.43201  Biso   1.000  H
  H351     1.0000 0.19189  0.40700  0.43770  Biso   1.000  H
  H352     1.0000 0.19179  0.53707  0.44759  Biso   1.000  H
  H353     1.0000 0.17660  0.76177  0.42668  Biso   1.000  H
  H354     1.0000 0.17570  0.71429  0.34869  Biso   1.000  H
  C286     1.0000 0.13740  0.81058  0.35842  Biso   1.000  C
  H355     1.0000 0.17730  0.77823  0.13712  Biso   1.000  H
  H356     1.0000 0.20859  0.84494  0.15647  Biso   1.000  H
  H357     1.0000 0.17650  0.90537  0.15669  Biso   1.000  H
  C287     1.0000 0.12224  0.44019  0.12997  Biso   1.000  C
  C288     1.0000 0.12108  0.49879  0.25049  Biso   1.000  C
  C289     1.0000 0.12185  0.86074  0.40948  Biso   1.000  C
  C290     1.0000 0.12090  0.79353  0.29048  Biso   1.000  C
  O55      1.0000 0.13918  0.43309  0.07337  Biso   1.000  O
  C291     1.0000 0.09169  0.40090  0.12669  Biso   1.000  C
  C292     1.0000 0.09079  0.46075  0.24592  Biso   1.000  C
  H358     1.0000 0.13079  0.53172  0.29290  Biso   1.000  H
  O56      1.0000 0.13937  0.87470  0.47710  Biso   1.000  O
  C293     1.0000 0.09109  0.89250  0.39196  Biso   1.000  C
  C294     1.0000 0.09013  0.82454  0.27279  Biso   1.000  C
  H359     1.0000 0.13091  0.76001  0.25570  Biso   1.000  H
  C295     1.0000 0.12257  0.40818  0.00500  Biso   1.000  C
  C296     1.0000 0.07557  0.40926  0.18319  Biso   1.000  C
  H360     1.0000 0.08201  0.36780  0.08439  Biso   1.000  H
  O57      1.0000 0.07413  0.47020  0.30252  Biso   1.000  O
  C297     1.0000 0.12315  0.90228  0.53586  Biso   1.000  C
  C298     1.0000 0.07477  0.87511  0.32364  Biso   1.000  C
  H361     1.0000 0.08110  0.92644  0.42668  Biso   1.000  H
  O58      1.0000 0.07270  0.80632  0.20630  Biso   1.000  O
  H362     1.0000 0.11489  0.33286  0.00462  Biso   1.000  H
  H363     1.0000 0.13620  0.41612  0.96947  Biso   1.000  H
  H364     1.0000 0.10529  0.45883  0.99414  Biso   1.000  H
  C299     1.0000 0.04278  0.36429  0.17948  Biso   1.000  C
  C300     1.0000 0.08803  0.51935  0.35659  Biso   1.000  C
  C301     1.0000 0.06689  0.57511  0.33219  Biso   1.000  C
  H365     1.0000 0.10350  0.86199  0.53129  Biso   1.000  H
  H366     1.0000 0.11869  0.98178  0.53569  Biso   1.000  H
  C302     1.0000 0.14353  0.87043  0.60444  Biso   1.000  C
  C303     1.0000 0.04139  0.91716  0.30391  Biso   1.000  C
  C304     1.0000 0.08879  0.76603  0.15077  Biso   1.000  C
  C305     1.0000 0.04167  0.24818  0.21082  Biso   1.000  C
  H367     1.0000 0.03290  0.36287  0.12970  Biso   1.000  H
  H368     1.0000 0.03090  0.41461  0.20528  Biso   1.000  H
  H369     1.0000 0.10769  0.48341  0.37229  Biso   1.000  H
  H370     1.0000 0.07550  0.51676  0.39449  Biso   1.000  H
  H371     1.0000 0.09160  0.59592  0.34471  Biso   1.000  H
  H372     1.0000 0.08591  0.61289  0.35138  Biso   1.000  H
  H373     1.0000 0.05530  0.62016  0.29521  Biso   1.000  H
  H374     1.0000 0.05460  0.56282  0.36981  Biso   1.000  H
  H375     1.0000 0.16318  0.91047  0.60788  Biso   1.000  H
  H376     1.0000 0.14810  0.79111  0.60337  Biso   1.000  H
  C306     1.0000 0.12830  0.89626  0.67147  Biso   1.000  C
  C307     1.0000 0.04033  0.03377  0.27129  Biso   1.000  C
  H377     1.0000 0.03140  0.91842  0.34659  Biso   1.000  H
  H378     1.0000 0.02980  0.86600  0.26967  Biso   1.000  H
  H379     1.0000 0.07460  0.76277  0.10632  Biso   1.000  H
  H380     1.0000 0.09679  0.69264  0.16298  Biso   1.000  H
  H381     1.0000 0.10570  0.81551  0.14561  Biso   1.000  H
  C308     1.0000 0.04161  0.15289  0.16878  Biso   1.000  C
  C309     1.0000 0.04075  0.23372  0.28381  Biso   1.000  C
  H382     1.0000 0.12888  0.97643  0.67948  Biso   1.000  H
  H383     1.0000 0.10659  0.87403  0.66196  Biso   1.000  H
  C310     1.0000 0.14335  0.83984  0.73802  Biso   1.000  C
  C311     1.0000 0.04076  0.04873  0.19910  Biso   1.000  C
  C312     1.0000 0.04043  0.12798  0.31370  Biso   1.000  C
  O59      1.0000 0.04245  0.17019  0.09627  Biso   1.000  O
  H384     1.0000 0.04039  0.29616  0.31311  Biso   1.000  H
  H385     1.0000 0.16509  0.86258  0.74748  Biso   1.000  H
  H386     1.0000 0.14289  0.75984  0.72969  Biso   1.000  H
  C313     1.0000 0.12889  0.86274  0.80306  Biso   1.000  C
  H387     1.0000 0.04049  0.98612  0.16970  Biso   1.000  H
  O60      1.0000 0.03990  0.10909  0.38642  Biso   1.000  O
  C314     1.0000 0.03769  0.07632  0.05139  Biso   1.000  C
  H388     1.0000 0.10650  0.85497  0.79026  Biso   1.000  H
  H389     1.0000 0.13309  0.93998  0.81698  Biso   1.000  H
  C315     1.0000 0.13925  0.79060  0.86734  Biso   1.000  C
  C316     1.0000 0.03721  0.20396  0.43066  Biso   1.000  C
  H390     1.0000 0.03690  0.09897  0.00231  Biso   1.000  H
  H391     1.0000 0.01829  0.04096  0.05730  Biso   1.000  H
  H392     1.0000 0.05449  0.02441  0.06402  Biso   1.000  H
  H393     1.0000 0.13388  0.71403  0.85396  Biso   1.000  H
  H394     1.0000 0.16179  0.79453  0.87788  Biso   1.000  H
  C317     1.0000 0.12683  0.81526  0.93405  Biso   1.000  C
  H395     1.0000 0.01960  0.24801  0.41008  Biso   1.000  H
  H396     1.0000 0.05580  0.24827  0.43378  Biso   1.000  H
  H397     1.0000 0.03439  0.17980  0.47791  Biso   1.000  H
  H398     1.0000 0.10450  0.82663  0.92180  Biso   1.000  H
  H399     1.0000 0.13578  0.88556  0.95276  Biso   1.000  H
  C318     1.0000 0.13213  0.73142  0.99307  Biso   1.000  C
  H400     1.0000 0.11989  0.66580  0.97926  Biso   1.000  H
  H401     1.0000 0.12609  0.76260  0.03580  Biso   1.000  H
  H402     1.0000 0.15390  0.71178  0.00221  Biso   1.000  H
  C319     1.0000 0.76784  0.22177  0.41276  Biso   1.000  C
  O61      1.0000 0.76549  0.19259  0.33869  Biso   1.000  O
  H403     1.0000 0.75681  0.16768  0.43701  Biso   1.000  H
  H404     1.0000 0.75890  0.29441  0.41701  Biso   1.000  H
  H405     1.0000 0.78940  0.22294  0.43410  Biso   1.000  H
  C320     1.0000 0.77689  0.26883  0.29392  Biso   1.000  C
  C321     1.0000 0.76864  0.24960  0.22001  Biso   1.000  C
  C322     1.0000 0.79544  0.35877  0.31902  Biso   1.000  C
  C323     1.0000 0.74953  0.14988  0.19173  Biso   1.000  C
  C324     1.0000 0.77975  0.32442  0.17303  Biso   1.000  C
  C325     1.0000 0.80701  0.43233  0.27231  Biso   1.000  C
  H406     1.0000 0.80030  0.37039  0.36831  Biso   1.000  H
  H407     1.0000 0.73530  0.17161  0.14911  Biso   1.000  H
  H408     1.0000 0.73719  0.12530  0.22759  Biso   1.000  H
  C326     1.0000 0.76963  0.05358  0.17308  Biso   1.000  C
  C327     1.0000 0.79862  0.41403  0.19829  Biso   1.000  C
  H409     1.0000 0.77440  0.31414  0.12368  Biso   1.000  H
  C328     1.0000 0.82875  0.52537  0.30058  Biso   1.000  C
  C329     1.0000 0.77797  0.04221  0.10519  Biso   1.000  C
  C330     1.0000 0.78079  0.97492  0.22479  Biso   1.000  C
  O62      1.0000 0.81024  0.49009  0.15373  Biso   1.000  O
  C331     1.0000 0.86264  0.48817  0.30789  Biso   1.000  C
  H410     1.0000 0.82420  0.54903  0.34708  Biso   1.000  H
  H411     1.0000 0.82549  0.58882  0.26817  Biso   1.000  H
  O63      1.0000 0.76676  0.12296  0.05472  Biso   1.000  O
  C332     1.0000 0.79661  0.95327  0.08982  Biso   1.000  C
  H412     1.0000 0.77541  0.98094  0.27059  Biso   1.000  H
  C333     1.0000 0.79965  0.88832  0.21006  Biso   1.000  C
  C334     1.0000 0.80026  0.47647  0.07778  Biso   1.000  C
  C335     1.0000 0.87774  0.44019  0.36998  Biso   1.000  C
  C336     1.0000 0.87891  0.49879  0.24952  Biso   1.000  C
  C337     1.0000 0.78193  0.13141  0.99269  Biso   1.000  C
  C338     1.0000 0.80774  0.87486  0.14142  Biso   1.000  C
  H413     1.0000 0.80170  0.94650  0.04381  Biso   1.000  H
  O64      1.0000 0.81148  0.80841  0.26005  Biso   1.000  O
  H414     1.0000 0.77790  0.47639  0.06800  Biso   1.000  H
  H415     1.0000 0.80812  0.40700  0.06230  Biso   1.000  H
  H416     1.0000 0.80820  0.53707  0.05241  Biso   1.000  H
  O65      1.0000 0.86083  0.43309  0.42658  Biso   1.000  O
  C339     1.0000 0.90830  0.40090  0.37331  Biso   1.000  C
  C340     1.0000 0.90922  0.46075  0.25409  Biso   1.000  C
  H417     1.0000 0.86919  0.53172  0.20711  Biso   1.000  H
  H418     1.0000 0.80411  0.13634  0.00753  Biso   1.000  H
  H419     1.0000 0.77470  0.19702  0.96587  Biso   1.000  H
  H420     1.0000 0.77719  0.06637  0.96307  Biso   1.000  H
  C341     1.0000 0.82838  0.77999  0.12395  Biso   1.000  C
  C342     1.0000 0.81235  0.83650  0.33332  Biso   1.000  C
  C343     1.0000 0.87743  0.40818  0.49500  Biso   1.000  C
  C344     1.0000 0.92443  0.40926  0.31682  Biso   1.000  C
  H421     1.0000 0.91800  0.36780  0.41561  Biso   1.000  H
  O66      1.0000 0.92588  0.47020  0.19749  Biso   1.000  O
  H422     1.0000 0.82340  0.76177  0.07332  Biso   1.000  H
  H423     1.0000 0.82431  0.71429  0.15131  Biso   1.000  H
  C345     1.0000 0.86260  0.81058  0.14153  Biso   1.000  C
  H424     1.0000 0.82269  0.77823  0.36288  Biso   1.000  H
  H425     1.0000 0.79139  0.84494  0.34348  Biso   1.000  H
  H426     1.0000 0.82351  0.90537  0.34332  Biso   1.000  H
  H427     1.0000 0.86380  0.41612  0.53048  Biso   1.000  H
  H428     1.0000 0.89469  0.45883  0.50581  Biso   1.000  H
  H429     1.0000 0.88509  0.33286  0.49538  Biso   1.000  H
  C346     1.0000 0.95720  0.36429  0.32047  Biso   1.000  C
  C347     1.0000 0.91196  0.51935  0.14341  Biso   1.000  C
  C348     1.0000 0.93309  0.57511  0.16781  Biso   1.000  C
  C349     1.0000 0.87814  0.86074  0.09052  Biso   1.000  C
  C350     1.0000 0.87911  0.79353  0.20947  Biso   1.000  C
  C351     1.0000 0.95831  0.24818  0.28919  Biso   1.000  C
  H430     1.0000 0.96711  0.36287  0.37030  Biso   1.000  H
  H431     1.0000 0.96910  0.41461  0.29467  Biso   1.000  H
  H432     1.0000 0.89230  0.48341  0.12772  Biso   1.000  H
  H433     1.0000 0.92451  0.51676  0.10552  Biso   1.000  H
  H434     1.0000 0.90841  0.59592  0.15529  Biso   1.000  H
  H435     1.0000 0.91410  0.61289  0.14857  Biso   1.000  H
  H436     1.0000 0.94471  0.62016  0.20480  Biso   1.000  H
  H437     1.0000 0.94541  0.56282  0.13019  Biso   1.000  H
  O67      1.0000 0.86064  0.87470  0.02290  Biso   1.000  O
  C352     1.0000 0.90892  0.89250  0.10799  Biso   1.000  C
  C353     1.0000 0.90988  0.82454  0.22721  Biso   1.000  C
  H438     1.0000 0.86910  0.76001  0.24430  Biso   1.000  H
  C354     1.0000 0.95840  0.15289  0.33117  Biso   1.000  C
  C355     1.0000 0.95924  0.23372  0.21619  Biso   1.000  C
  C356     1.0000 0.87685  0.90228  0.96409  Biso   1.000  C
  C357     1.0000 0.92524  0.87511  0.17636  Biso   1.000  C
  H439     1.0000 0.91891  0.92644  0.07332  Biso   1.000  H
  O68      1.0000 0.92728  0.80632  0.29370  Biso   1.000  O
  C358     1.0000 0.95925  0.04873  0.30090  Biso   1.000  C
  O69      1.0000 0.95756  0.17019  0.40373  Biso   1.000  O
  C359     1.0000 0.95958  0.12798  0.18631  Biso   1.000  C
  H440     1.0000 0.95960  0.29616  0.18690  Biso   1.000  H
  H441     1.0000 0.89651  0.86199  0.96866  Biso   1.000  H
  H442     1.0000 0.88131  0.98178  0.96425  Biso   1.000  H
  C360     1.0000 0.85645  0.87043  0.89551  Biso   1.000  C
  C361     1.0000 0.95859  0.91716  0.19609  Biso   1.000  C
  C362     1.0000 0.91122  0.76603  0.34917  Biso   1.000  C
  C363     1.0000 0.95967  0.03377  0.22872  Biso   1.000  C
  H443     1.0000 0.95950  0.98612  0.33031  Biso   1.000  H
  C364     1.0000 0.96231  0.07632  0.44856  Biso   1.000  C
  O70      1.0000 0.96010  0.10909  0.11352  Biso   1.000  O
  H444     1.0000 0.83680  0.91047  0.89207  Biso   1.000  H
  H445     1.0000 0.85190  0.79111  0.89653  Biso   1.000  H
  C365     1.0000 0.87168  0.89626  0.82848  Biso   1.000  C
  H446     1.0000 0.96861  0.91842  0.15341  Biso   1.000  H
  H447     1.0000 0.97020  0.86600  0.23027  Biso   1.000  H
  H448     1.0000 0.92541  0.76277  0.39368  Biso   1.000  H
  H449     1.0000 0.90321  0.69264  0.33697  Biso   1.000  H
  H450     1.0000 0.89431  0.81551  0.35439  Biso   1.000  H
  H451     1.0000 0.96311  0.09897  0.49769  Biso   1.000  H
  H452     1.0000 0.98170  0.04096  0.44270  Biso   1.000  H
  H453     1.0000 0.94549  0.02441  0.43598  Biso   1.000  H
  C366     1.0000 0.96280  0.20396  0.06929  Biso   1.000  C
  H454     1.0000 0.87110  0.97643  0.82047  Biso   1.000  H
  H455     1.0000 0.89339  0.87403  0.83794  Biso   1.000  H
  C367     1.0000 0.85665  0.83984  0.76188  Biso   1.000  C
  H456     1.0000 0.98040  0.24801  0.08987  Biso   1.000  H
  H457     1.0000 0.94421  0.24827  0.06622  Biso   1.000  H
  H458     1.0000 0.96562  0.17980  0.02209  Biso   1.000  H
  H459     1.0000 0.83492  0.86258  0.75247  Biso   1.000  H
  H460     1.0000 0.85711  0.75984  0.77026  Biso   1.000  H
  C368     1.0000 0.87109  0.86274  0.69684  Biso   1.000  C
  H461     1.0000 0.89351  0.85497  0.70963  Biso   1.000  H
  H462     1.0000 0.86691  0.93998  0.68297  Biso   1.000  H
  C369     1.0000 0.86076  0.79060  0.63260  Biso   1.000  C
  H463     1.0000 0.86612  0.71403  0.64593  Biso   1.000  H
  H464     1.0000 0.83821  0.79453  0.62207  Biso   1.000  H
  C370     1.0000 0.87314  0.81526  0.56584  Biso   1.000  C
  H465     1.0000 0.89551  0.82663  0.57815  Biso   1.000  H
  H466     1.0000 0.86420  0.88556  0.54714  Biso   1.000  H
  C371     1.0000 0.86787  0.73142  0.50688  Biso   1.000  C
  H467     1.0000 0.88011  0.66580  0.52064  Biso   1.000  H
  H468     1.0000 0.87392  0.76260  0.46414  Biso   1.000  H
  H469     1.0000 0.84611  0.71178  0.49774  Biso   1.000  H
  C372     1.0000 0.23215  0.77815  0.58724  Biso   1.000  C
  O71      1.0000 0.23450  0.80741  0.66126  Biso   1.000  O
  H470     1.0000 0.24319  0.83232  0.56300  Biso   1.000  H
  H471     1.0000 0.24110  0.70559  0.58300  Biso   1.000  H
  H472     1.0000 0.21060  0.77706  0.56590  Biso   1.000  H
  C373     1.0000 0.22311  0.73117  0.70609  Biso   1.000  C
  C374     1.0000 0.20455  0.64123  0.68093  Biso   1.000  C
  C375     1.0000 0.23136  0.75040  0.78000  Biso   1.000  C
  C376     1.0000 0.19298  0.56767  0.72770  Biso   1.000  C
  H473     1.0000 0.19969  0.62961  0.63170  Biso   1.000  H
  C377     1.0000 0.22024  0.67558  0.82698  Biso   1.000  C
  C378     1.0000 0.25047  0.85012  0.80827  Biso   1.000  C
  C379     1.0000 0.17124  0.47463  0.69937  Biso   1.000  C
  C380     1.0000 0.20137  0.58597  0.80166  Biso   1.000  C
  H474     1.0000 0.22559  0.68586  0.87627  Biso   1.000  H
  H475     1.0000 0.26469  0.82839  0.85090  Biso   1.000  H
  H476     1.0000 0.26280  0.87470  0.77236  Biso   1.000  H
  C381     1.0000 0.23036  0.94642  0.82692  Biso   1.000  C
  C382     1.0000 0.13735  0.51183  0.69206  Biso   1.000  C
  H477     1.0000 0.17579  0.45097  0.65287  Biso   1.000  H
  H478     1.0000 0.17450  0.41118  0.73178  Biso   1.000  H
  O72      1.0000 0.18975  0.50991  0.84622  Biso   1.000  O
  C383     1.0000 0.22202  0.95779  0.89481  Biso   1.000  C
  C384     1.0000 0.21920  0.02508  0.77516  Biso   1.000  C
  C385     1.0000 0.12225  0.55981  0.62998  Biso   1.000  C
  C386     1.0000 0.12109  0.50121  0.75049  Biso   1.000  C
  C387     1.0000 0.19973  0.52353  0.92217  Biso   1.000  C
  O73      1.0000 0.23323  0.87704  0.94523  Biso   1.000  O
  C388     1.0000 0.20338  0.04664  0.91013  Biso   1.000  C
  H479     1.0000 0.22458  0.01906  0.72936  Biso   1.000  H
  C389     1.0000 0.20034  0.11168  0.78994  Biso   1.000  C
  O74      1.0000 0.13916  0.56691  0.57337  Biso   1.000  O
  C390     1.0000 0.09170  0.59910  0.62670  Biso   1.000  C
  C391     1.0000 0.09077  0.53916  0.74587  Biso   1.000  C
  H480     1.0000 0.13080  0.46828  0.79290  Biso   1.000  H
  H481     1.0000 0.22209  0.52361  0.93196  Biso   1.000  H
  H482     1.0000 0.19187  0.59300  0.93765  Biso   1.000  H
  H483     1.0000 0.19180  0.46293  0.94760  Biso   1.000  H
  C392     1.0000 0.21806  0.86859  0.00726  Biso   1.000  C
  C393     1.0000 0.19226  0.12505  0.85858  Biso   1.000  C
  H484     1.0000 0.19830  0.05350  0.95620  Biso   1.000  H
  O75      1.0000 0.18851  0.19159  0.73995  Biso   1.000  O
  C394     1.0000 0.12256  0.59182  0.50500  Biso   1.000  C
  C395     1.0000 0.07556  0.59065  0.68319  Biso   1.000  C
  H485     1.0000 0.08199  0.63220  0.58439  Biso   1.000  H
  O76      1.0000 0.07411  0.52980  0.80247  Biso   1.000  O
  H486     1.0000 0.19588  0.86366  0.99248  Biso   1.000  H
  H487     1.0000 0.22529  0.80298  0.03414  Biso   1.000  H
  H488     1.0000 0.22280  0.93355  0.03693  Biso   1.000  H
  C396     1.0000 0.17161  0.22001  0.87600  Biso   1.000  C
  C397     1.0000 0.18764  0.16350  0.66669  Biso   1.000  C
  H489     1.0000 0.13619  0.58388  0.46947  Biso   1.000  H
  H490     1.0000 0.10530  0.54117  0.49420  Biso   1.000  H
  H491     1.0000 0.11490  0.66706  0.50457  Biso   1.000  H
  C398     1.0000 0.04279  0.63571  0.67948  Biso   1.000  C
  C399     1.0000 0.08804  0.48057  0.85659  Biso   1.000  C
  C400     1.0000 0.06690  0.42489  0.83219  Biso   1.000  C
  C401     1.0000 0.13739  0.18942  0.85842  Biso   1.000  C
  H492     1.0000 0.17659  0.23815  0.92669  Biso   1.000  H
  H493     1.0000 0.17568  0.28571  0.84869  Biso   1.000  H
  H494     1.0000 0.17730  0.22177  0.63707  Biso   1.000  H
  H495     1.0000 0.20860  0.15506  0.65648  Biso   1.000  H
  H496     1.0000 0.17648  0.09454  0.65669  Biso   1.000  H
  C402     1.0000 0.04168  0.75182  0.71076  Biso   1.000  C
  H497     1.0000 0.03288  0.63705  0.62971  Biso   1.000  H
  H498     1.0000 0.03089  0.58539  0.70528  Biso   1.000  H
  H499     1.0000 0.10769  0.51659  0.87229  Biso   1.000  H
  H500     1.0000 0.07549  0.48316  0.89449  Biso   1.000  H
  H501     1.0000 0.09158  0.40408  0.84466  Biso   1.000  H
  H502     1.0000 0.08589  0.38711  0.85138  Biso   1.000  H
  H503     1.0000 0.05528  0.37975  0.79516  Biso   1.000  H
  H504     1.0000 0.05458  0.43718  0.86976  Biso   1.000  H
  C403     1.0000 0.12088  0.20647  0.79048  Biso   1.000  C
  C404     1.0000 0.12186  0.13926  0.90949  Biso   1.000  C
  C405     1.0000 0.04159  0.84711  0.66878  Biso   1.000  C
  C406     1.0000 0.04076  0.76628  0.78376  Biso   1.000  C
  C407     1.0000 0.09011  0.17546  0.77274  Biso   1.000  C
  H505     1.0000 0.13089  0.23999  0.75570  Biso   1.000  H
  C408     1.0000 0.09108  0.10750  0.89196  Biso   1.000  C
  O77      1.0000 0.13935  0.12530  0.97705  Biso   1.000  O
  O78      1.0000 0.04243  0.82981  0.59622  Biso   1.000  O
  C409     1.0000 0.04074  0.95127  0.69910  Biso   1.000  C
  C410     1.0000 0.04041  0.87202  0.81370  Biso   1.000  C
  H506     1.0000 0.04039  0.70375  0.81306  Biso   1.000  H
  C411     1.0000 0.07475  0.12489  0.82364  Biso   1.000  C
  O79      1.0000 0.07271  0.19368  0.70625  Biso   1.000  O
  H507     1.0000 0.08108  0.07356  0.92669  Biso   1.000  H
  C412     1.0000 0.12314  0.09772  0.03586  Biso   1.000  C
  C413     1.0000 0.03768  0.92368  0.55139  Biso   1.000  C
  C414     1.0000 0.04032  0.96615  0.77129  Biso   1.000  C
  H508     1.0000 0.04050  0.01388  0.66970  Biso   1.000  H
  O80      1.0000 0.03989  0.89091  0.88643  Biso   1.000  O
  C415     1.0000 0.04140  0.08276  0.80386  Biso   1.000  C
  C416     1.0000 0.08877  0.23397  0.65078  Biso   1.000  C
  H509     1.0000 0.10349  0.13801  0.03134  Biso   1.000  H
  H510     1.0000 0.11868  0.01822  0.03575  Biso   1.000  H
  C417     1.0000 0.14354  0.12957  0.10450  Biso   1.000  C
  H511     1.0000 0.03688  0.90094  0.50226  Biso   1.000  H
  H512     1.0000 0.01830  0.95896  0.55730  Biso   1.000  H
  H513     1.0000 0.05450  0.97559  0.56397  Biso   1.000  H
  C418     1.0000 0.03719  0.79595  0.93066  Biso   1.000  C
  H514     1.0000 0.03138  0.08158  0.84660  Biso   1.000  H
  H515     1.0000 0.02979  0.13400  0.76968  Biso   1.000  H
  H516     1.0000 0.07458  0.23715  0.60627  Biso   1.000  H
  H517     1.0000 0.09678  0.30736  0.66298  Biso   1.000  H
  H518     1.0000 0.10568  0.18449  0.64556  Biso   1.000  H
  H519     1.0000 0.16320  0.08944  0.10794  Biso   1.000  H
  H520     1.0000 0.14809  0.20889  0.10342  Biso   1.000  H
  C419     1.0000 0.12831  0.10365  0.17153  Biso   1.000  C
  H521     1.0000 0.01959  0.75199  0.91008  Biso   1.000  H
  H522     1.0000 0.05579  0.75165  0.93378  Biso   1.000  H
  H523     1.0000 0.03437  0.82020  0.97786  Biso   1.000  H
  H524     1.0000 0.12889  0.02357  0.17954  Biso   1.000  H
  H525     1.0000 0.10660  0.12597  0.16201  Biso   1.000  H
  C420     1.0000 0.14334  0.16016  0.23807  Biso   1.000  C
  H526     1.0000 0.16508  0.13734  0.24753  Biso   1.000  H
  H527     1.0000 0.14288  0.24016  0.22974  Biso   1.000  H
  C421     1.0000 0.12890  0.13726  0.30311  Biso   1.000  C
  H528     1.0000 0.10648  0.14495  0.29032  Biso   1.000  H
  H529     1.0000 0.13308  0.06002  0.31704  Biso   1.000  H
  C422     1.0000 0.13923  0.20940  0.36735  Biso   1.000  C
  H530     1.0000 0.13387  0.28597  0.35402  Biso   1.000  H
  H531     1.0000 0.16178  0.20547  0.37794  Biso   1.000  H
  C423     1.0000 0.12685  0.18465  0.43411  Biso   1.000  C
  H532     1.0000 0.10448  0.17337  0.42180  Biso   1.000  H
  H533     1.0000 0.13579  0.11435  0.45281  Biso   1.000  H
  C424     1.0000 0.13212  0.26858  0.49313  Biso   1.000  C
  H534     1.0000 0.11988  0.33420  0.47931  Biso   1.000  H
  H535     1.0000 0.12607  0.23740  0.53581  Biso   1.000  H
  H536     1.0000 0.15388  0.28814  0.50221  Biso   1.000  H
  Ne1      1.0000 0.13378  0.12011  0.33465  Biso   1.000  Ne
  He1      1.0000 0.12996  0.25555  0.45114  Biso   1.000  He
  He2      1.0000 0.12625  0.10573  0.11434  Biso   1.000  He
  Ar1      1.0000 0.13496  0.16915  0.31843  Biso   1.000  Ar
  Ne2      1.0000 0.36622  0.62010  0.16533  Biso   1.000  Ne
  He3      1.0000 0.37175  0.57658  0.43916  Biso   1.000  He
  He4      1.0000 0.37056  0.74401  0.06445  Biso   1.000  He
  Ar2      1.0000 0.36503  0.66916  0.18154  Biso   1.000  Ar
  Ne3      1.0000 0.36621  0.37988  0.66532  Biso   1.000  Ne
  He5      1.0000 0.37324  0.39367  0.88948  Biso   1.000  He
  He6      1.0000 0.37002  0.24427  0.54848  Biso   1.000  He
  Ar3      1.0000 0.36500  0.33063  0.68155  Biso   1.000  Ar
  Ne4      1.0000 0.13377  0.87988  0.83464  Biso   1.000  Ne
  He7      1.0000 0.13063  0.72923  0.97183  Biso   1.000  He
  He8      1.0000 0.12621  0.89467  0.61604  Biso   1.000  He
  Ar4      1.0000 0.13499  0.83056  0.81835  Biso   1.000  Ar
  Ne5      1.0000 0.63378  0.62010  0.33465  Biso   1.000  Ne
  He9      1.0000 0.62996  0.75548  0.45113  Biso   1.000  He
  He10     1.0000 0.62632  0.60549  0.11440  Biso   1.000  He
  Ar5      1.0000 0.63496  0.66914  0.31844  Biso   1.000  Ar
  Ne6      1.0000 0.63378  0.37988  0.83464  Biso   1.000  Ne
  He11     1.0000 0.63063  0.22927  0.97183  Biso   1.000  He
  He12     1.0000 0.62622  0.39474  0.61604  Biso   1.000  He
  Ar6      1.0000 0.63499  0.33060  0.81842  Biso   1.000  Ar
  Ne7      1.0000 0.86622  0.12011  0.16533  Biso   1.000  Ne
  He13     1.0000 0.87117  0.05982  0.46255  Biso   1.000  He
  He14     1.0000 0.87056  0.24405  0.06445  Biso   1.000  He
  Ar7      1.0000 0.86479  0.14963  0.21495  Biso   1.000  Ar
  Ne8      1.0000 0.86621  0.87988  0.66532  Biso   1.000  Ne
  He15     1.0000 0.87114  0.94069  0.96331  Biso   1.000  He
  He16     1.0000 0.87042  0.75324  0.56074  Biso   1.000  He
  Ar8      1.0000 0.86474  0.85029  0.71684  Biso   1.000  Ar
