data_image0
_cell_length_a       24.894
_cell_length_b       24.894
_cell_length_c       24.894
_cell_angle_alpha    90
_cell_angle_beta     90
_cell_angle_gamma    90

_symmetry_space_group_name_H-M    "P 1"
_symmetry_int_tables_number       1

loop_
  _symmetry_equiv_pos_as_xyz
  'x, y, z'

loop_
  _atom_site_label
  _atom_site_occupancy
  _atom_site_fract_x
  _atom_site_fract_y
  _atom_site_fract_z
  _atom_site_thermal_displace_type
  _atom_site_B_iso_or_equiv
  _atom_site_type_symbol
  C1       1.0000 0.93099  0.85438  0.91191  Biso   1.000  C
  C2       1.0000 0.94448  0.88612  0.86700  Biso   1.000  C
  C3       1.0000 0.94452  0.88612  0.86700  Biso   1.000  C
  C4       1.0000 0.96501  0.80859  0.92601  Biso   1.000  C
  C5       1.0000 0.88612  0.86700  0.94448  Biso   1.000  C
  C6       1.0000 0.88612  0.86700  0.94452  Biso   1.000  C
  C7       1.0000 0.91191  0.93099  0.85438  Biso   1.000  C
  C8       1.0000 0.91191  0.93099  0.85442  Biso   1.000  C
  C9       1.0000 0.91191  0.93103  0.85438  Biso   1.000  C
  C10      1.0000 0.91191  0.93103  0.85442  Biso   1.000  C
  C11      1.0000 0.93099  0.85442  0.91191  Biso   1.000  C
  O1       1.0000 0.98622  0.87350  0.83570  Biso   1.000  O
  C12      1.0000 0.93103  0.85438  0.91191  Biso   1.000  C
  C13      1.0000 0.93103  0.85442  0.91191  Biso   1.000  C
  H1       1.0000 0.97530  0.87772  0.84550  Biso   1.000  H
  H2       1.0000 0.99651  0.80288  0.90540  Biso   1.000  H
  N1       1.0000 0.95509  0.77629  0.96381  Biso   1.000  N
  H3       1.0000 0.99651  0.80292  0.90540  Biso   1.000  H
  C14      1.0000 0.85438  0.91191  0.93099  Biso   1.000  C
  C15      1.0000 0.85438  0.91191  0.93103  Biso   1.000  C
  C16      1.0000 0.85442  0.91191  0.93099  Biso   1.000  C
  C17      1.0000 0.85442  0.91191  0.93103  Biso   1.000  C
  O2       1.0000 0.87350  0.83570  0.98622  Biso   1.000  O
  H4       1.0000 0.87772  0.84550  0.97530  Biso   1.000  H
  C18      1.0000 0.92601  0.96501  0.80859  Biso   1.000  C
  C19      1.0000 0.86700  0.94448  0.88612  Biso   1.000  C
  C20      1.0000 0.86700  0.94452  0.88612  Biso   1.000  C
  H5       1.0000 0.98799  0.89532  0.80991  Biso   1.000  H
  C21      1.0000 0.98891  0.73054  0.97248  Biso   1.000  C
  C22      1.0000 0.98891  0.73054  0.97252  Biso   1.000  C
  C23      1.0000 0.80859  0.92601  0.96501  Biso   1.000  C
  H6       1.0000 0.89532  0.80991  0.98799  Biso   1.000  H
  N2       1.0000 0.96381  0.95509  0.77629  Biso   1.000  N
  H7       1.0000 0.90540  0.99651  0.80288  Biso   1.000  H
  H8       1.0000 0.90540  0.99651  0.80292  Biso   1.000  H
  O3       1.0000 0.83570  0.98622  0.87350  Biso   1.000  O
  H9       1.0000 0.84550  0.97530  0.87772  Biso   1.000  H
  C24      1.0000 0.95650  0.67980  0.96260  Biso   1.000  C
  H10      1.0000 0.01928  0.73178  0.94629  Biso   1.000  H
  H11      1.0000 0.01928  0.73182  0.94629  Biso   1.000  H
  H12      1.0000 0.01932  0.73178  0.94629  Biso   1.000  H
  H13      1.0000 0.01932  0.73182  0.94629  Biso   1.000  H
  C25      1.0000 0.01113  0.73054  0.02752  Biso   1.000  C
  H14      1.0000 0.80288  0.90540  0.99651  Biso   1.000  H
  N3       1.0000 0.77629  0.96381  0.95509  Biso   1.000  N
  H15      1.0000 0.80292  0.90540  0.99651  Biso   1.000  H
  C26      1.0000 0.97248  0.98891  0.73054  Biso   1.000  C
  C27      1.0000 0.97252  0.98891  0.73054  Biso   1.000  C
  H16      1.0000 0.80991  0.98799  0.89532  Biso   1.000  H
  C28      1.0000 0.99020  0.62951  0.97220  Biso   1.000  C
  H17      1.0000 0.94320  0.67980  0.92508  Biso   1.000  H
  H18      1.0000 0.94320  0.67980  0.92512  Biso   1.000  H
  H19      1.0000 0.92500  0.67940  0.98682  Biso   1.000  H
  H20      1.0000 0.98072  0.73178  0.05371  Biso   1.000  H
  H21      1.0000 0.98072  0.73182  0.05371  Biso   1.000  H
  C29      1.0000 0.04350  0.67980  0.03740  Biso   1.000  C
  N4       1.0000 0.04491  0.77629  0.03619  Biso   1.000  N
  C30      1.0000 0.73054  0.97248  0.98891  Biso   1.000  C
  C31      1.0000 0.73054  0.97252  0.98891  Biso   1.000  C
  C32      1.0000 0.96260  0.95650  0.67980  Biso   1.000  C
  H22      1.0000 0.94629  0.01928  0.73178  Biso   1.000  H
  H23      1.0000 0.94629  0.01928  0.73182  Biso   1.000  H
  H24      1.0000 0.94629  0.01932  0.73178  Biso   1.000  H
  H25      1.0000 0.94629  0.01932  0.73182  Biso   1.000  H
  C33      1.0000 0.02752  0.01113  0.73054  Biso   1.000  C
  H26      1.0000 0.96810  0.59709  0.96569  Biso   1.000  H
  H27      1.0000 0.02101  0.62891  0.94710  Biso   1.000  H
  C34      1.0000 0.00980  0.62951  0.02780  Biso   1.000  C
  H28      1.0000 0.05680  0.67980  0.07492  Biso   1.000  H
  H29      1.0000 0.07500  0.67940  0.01322  Biso   1.000  H
  C35      1.0000 0.03499  0.80859  0.07399  Biso   1.000  C
  C36      1.0000 0.67980  0.96260  0.95650  Biso   1.000  C
  H30      1.0000 0.73178  0.94629  0.01928  Biso   1.000  H
  H31      1.0000 0.73178  0.94629  0.01932  Biso   1.000  H
  H32      1.0000 0.73182  0.94629  0.01928  Biso   1.000  H
  H33      1.0000 0.73182  0.94629  0.01932  Biso   1.000  H
  C37      1.0000 0.73054  0.02752  0.01113  Biso   1.000  C
  C38      1.0000 0.97220  0.99020  0.62951  Biso   1.000  C
  H34      1.0000 0.92508  0.94320  0.67980  Biso   1.000  H
  H35      1.0000 0.92512  0.94320  0.67980  Biso   1.000  H
  H36      1.0000 0.98682  0.92500  0.67940  Biso   1.000  H
  C39      1.0000 0.03740  0.04350  0.67980  Biso   1.000  C
  H37      1.0000 0.05371  0.98072  0.73178  Biso   1.000  H
  H38      1.0000 0.05371  0.98072  0.73182  Biso   1.000  H
  N5       1.0000 0.03619  0.04491  0.77629  Biso   1.000  N
  H39      1.0000 0.97899  0.62891  0.05290  Biso   1.000  H
  H40      1.0000 0.03190  0.59709  0.03431  Biso   1.000  H
  H41      1.0000 0.00349  0.80288  0.09460  Biso   1.000  H
  C40      1.0000 0.06901  0.85438  0.08809  Biso   1.000  C
  H42      1.0000 0.00349  0.80292  0.09460  Biso   1.000  H
  C41      1.0000 0.06901  0.85442  0.08809  Biso   1.000  C
  C42      1.0000 0.62951  0.97220  0.99020  Biso   1.000  C
  H43      1.0000 0.67980  0.92508  0.94320  Biso   1.000  H
  H44      1.0000 0.67980  0.92512  0.94320  Biso   1.000  H
  H45      1.0000 0.67940  0.98682  0.92500  Biso   1.000  H
  H46      1.0000 0.73178  0.05371  0.98072  Biso   1.000  H
  H47      1.0000 0.73182  0.05371  0.98072  Biso   1.000  H
  C43      1.0000 0.67980  0.03740  0.04350  Biso   1.000  C
  N6       1.0000 0.77629  0.03619  0.04491  Biso   1.000  N
  H48      1.0000 0.96569  0.96810  0.59709  Biso   1.000  H
  H49      1.0000 0.94710  0.02101  0.62891  Biso   1.000  H
  C44      1.0000 0.02780  0.00980  0.62951  Biso   1.000  C
  H50      1.0000 0.07492  0.05680  0.67980  Biso   1.000  H
  H51      1.0000 0.01322  0.07500  0.67940  Biso   1.000  H
  C45      1.0000 0.07399  0.03499  0.80859  Biso   1.000  C
  C46      1.0000 0.11388  0.86700  0.05552  Biso   1.000  C
  C47      1.0000 0.05552  0.88612  0.13300  Biso   1.000  C
  C48      1.0000 0.11392  0.86700  0.05552  Biso   1.000  C
  H52      1.0000 0.59709  0.96569  0.96810  Biso   1.000  H
  H53      1.0000 0.62891  0.94710  0.02101  Biso   1.000  H
  C49      1.0000 0.62951  0.02780  0.00980  Biso   1.000  C
  H54      1.0000 0.67980  0.07492  0.05680  Biso   1.000  H
  H55      1.0000 0.67940  0.01322  0.07500  Biso   1.000  H
  C50      1.0000 0.80859  0.07399  0.03499  Biso   1.000  C
  H56      1.0000 0.05290  0.97899  0.62891  Biso   1.000  H
  H57      1.0000 0.03431  0.03190  0.59709  Biso   1.000  H
  H58      1.0000 0.09460  0.00349  0.80288  Biso   1.000  H
  C51      1.0000 0.08809  0.06901  0.85438  Biso   1.000  C
  H59      1.0000 0.09460  0.00349  0.80292  Biso   1.000  H
  C52      1.0000 0.08809  0.06901  0.85442  Biso   1.000  C
  C53      1.0000 0.14562  0.91191  0.06901  Biso   1.000  C
  O4       1.0000 0.12650  0.83570  0.01382  Biso   1.000  O
  H60      1.0000 0.12232  0.84550  0.02470  Biso   1.000  H
  C54      1.0000 0.08809  0.93099  0.14562  Biso   1.000  C
  O5       1.0000 0.01382  0.87350  0.16430  Biso   1.000  O
  C55      1.0000 0.08809  0.93103  0.14562  Biso   1.000  C
  H61      1.0000 0.02470  0.87772  0.15450  Biso   1.000  H
  H62      1.0000 0.62891  0.05290  0.97899  Biso   1.000  H
  H63      1.0000 0.59709  0.03431  0.03190  Biso   1.000  H
  H64      1.0000 0.80288  0.09460  0.00349  Biso   1.000  H
  C56      1.0000 0.85438  0.08809  0.06901  Biso   1.000  C
  H65      1.0000 0.80292  0.09460  0.00349  Biso   1.000  H
  C57      1.0000 0.85442  0.08809  0.06901  Biso   1.000  C
  C58      1.0000 0.05552  0.11388  0.86700  Biso   1.000  C
  C59      1.0000 0.13300  0.05552  0.88612  Biso   1.000  C
  C60      1.0000 0.05552  0.11392  0.86700  Biso   1.000  C
  C61      1.0000 0.19141  0.92601  0.03499  Biso   1.000  C
  C62      1.0000 0.13300  0.94448  0.11388  Biso   1.000  C
  C63      1.0000 0.13300  0.94448  0.11392  Biso   1.000  C
  C64      1.0000 0.13300  0.94452  0.11388  Biso   1.000  C
  C65      1.0000 0.13300  0.94452  0.11392  Biso   1.000  C
  H66      1.0000 0.10468  0.80991  0.01201  Biso   1.000  H
  H67      1.0000 0.10472  0.80991  0.01201  Biso   1.000  H
  C66      1.0000 0.07399  0.96501  0.19141  Biso   1.000  C
  H68      1.0000 0.01201  0.89532  0.19013  Biso   1.000  H
  C67      1.0000 0.86700  0.05552  0.11388  Biso   1.000  C
  C68      1.0000 0.88612  0.13300  0.05552  Biso   1.000  C
  C69      1.0000 0.86700  0.05552  0.11392  Biso   1.000  C
  O6       1.0000 0.01382  0.12650  0.83570  Biso   1.000  O
  C70      1.0000 0.06901  0.14562  0.91191  Biso   1.000  C
  H69      1.0000 0.02470  0.12232  0.84550  Biso   1.000  H
  C71      1.0000 0.14562  0.08809  0.93099  Biso   1.000  C
  O7       1.0000 0.16430  0.01382  0.87350  Biso   1.000  O
  C72      1.0000 0.14562  0.08809  0.93103  Biso   1.000  C
  H70      1.0000 0.15450  0.02470  0.87772  Biso   1.000  H
  N7       1.0000 0.22375  0.96381  0.04491  Biso   1.000  N
  H71      1.0000 0.19712  0.90540  0.00349  Biso   1.000  H
  O8       1.0000 0.16430  0.98622  0.12650  Biso   1.000  O
  H72      1.0000 0.15450  0.97530  0.12232  Biso   1.000  H
  N8       1.0000 0.03619  0.95509  0.22375  Biso   1.000  N
  H73      1.0000 0.09460  0.99651  0.19712  Biso   1.000  H
  O9       1.0000 0.83570  0.01382  0.12650  Biso   1.000  O
  C73      1.0000 0.91191  0.06901  0.14562  Biso   1.000  C
  H74      1.0000 0.84550  0.02470  0.12232  Biso   1.000  H
  C74      1.0000 0.93099  0.14562  0.08809  Biso   1.000  C
  C75      1.0000 0.93103  0.14562  0.08809  Biso   1.000  C
  O10      1.0000 0.87350  0.16430  0.01382  Biso   1.000  O
  H75      1.0000 0.87772  0.15450  0.02470  Biso   1.000  H
  H76      1.0000 0.01201  0.10468  0.80991  Biso   1.000  H
  H77      1.0000 0.01201  0.10472  0.80991  Biso   1.000  H
  C76      1.0000 0.03499  0.19141  0.92601  Biso   1.000  C
  C77      1.0000 0.11388  0.13300  0.94448  Biso   1.000  C
  C78      1.0000 0.11388  0.13300  0.94452  Biso   1.000  C
  C79      1.0000 0.11392  0.13300  0.94448  Biso   1.000  C
  C80      1.0000 0.11392  0.13300  0.94452  Biso   1.000  C
  C81      1.0000 0.19141  0.07399  0.96501  Biso   1.000  C
  H78      1.0000 0.19013  0.01201  0.89532  Biso   1.000  H
  C82      1.0000 0.26946  0.97248  0.01113  Biso   1.000  C
  C83      1.0000 0.26946  0.97252  0.01113  Biso   1.000  C
  H79      1.0000 0.19013  0.98799  0.10468  Biso   1.000  H
  H80      1.0000 0.19013  0.98799  0.10472  Biso   1.000  H
  C84      1.0000 0.02752  0.98891  0.26946  Biso   1.000  C
  H81      1.0000 0.80991  0.01201  0.10468  Biso   1.000  H
  H82      1.0000 0.80991  0.01201  0.10472  Biso   1.000  H
  C85      1.0000 0.94448  0.11388  0.13300  Biso   1.000  C
  C86      1.0000 0.94448  0.11392  0.13300  Biso   1.000  C
  C87      1.0000 0.94452  0.11388  0.13300  Biso   1.000  C
  C88      1.0000 0.94452  0.11392  0.13300  Biso   1.000  C
  C89      1.0000 0.92601  0.03499  0.19141  Biso   1.000  C
  C90      1.0000 0.96501  0.19141  0.07399  Biso   1.000  C
  H83      1.0000 0.89532  0.19013  0.01201  Biso   1.000  H
  N9       1.0000 0.04491  0.22375  0.96381  Biso   1.000  N
  H84      1.0000 0.00349  0.19712  0.90540  Biso   1.000  H
  O11      1.0000 0.12650  0.16430  0.98622  Biso   1.000  O
  H85      1.0000 0.12232  0.15450  0.97530  Biso   1.000  H
  N10      1.0000 0.22375  0.03619  0.95509  Biso   1.000  N
  H86      1.0000 0.19712  0.09460  0.99651  Biso   1.000  H
  C91      1.0000 0.26946  0.02752  0.98891  Biso   1.000  C
  H87      1.0000 0.26822  0.94629  0.98072  Biso   1.000  H
  C92      1.0000 0.32020  0.96260  0.04350  Biso   1.000  C
  C93      1.0000 0.97248  0.01113  0.26946  Biso   1.000  C
  C94      1.0000 0.97252  0.01113  0.26946  Biso   1.000  C
  C95      1.0000 0.03740  0.95650  0.32020  Biso   1.000  C
  H88      1.0000 0.05371  0.01928  0.26822  Biso   1.000  H
  H89      1.0000 0.05371  0.01932  0.26822  Biso   1.000  H
  O12      1.0000 0.98622  0.12650  0.16430  Biso   1.000  O
  H90      1.0000 0.97530  0.12232  0.15450  Biso   1.000  H
  N11      1.0000 0.96381  0.04491  0.22375  Biso   1.000  N
  H91      1.0000 0.90540  0.00349  0.19712  Biso   1.000  H
  N12      1.0000 0.95509  0.22375  0.03619  Biso   1.000  N
  H92      1.0000 0.99651  0.19712  0.09460  Biso   1.000  H
  C96      1.0000 0.01113  0.26946  0.97248  Biso   1.000  C
  C97      1.0000 0.01113  0.26946  0.97252  Biso   1.000  C
  H93      1.0000 0.10468  0.19013  0.98799  Biso   1.000  H
  H94      1.0000 0.10472  0.19013  0.98799  Biso   1.000  H
  C98      1.0000 0.32020  0.03740  0.95650  Biso   1.000  C
  H95      1.0000 0.26822  0.05371  0.01928  Biso   1.000  H
  H96      1.0000 0.26822  0.05371  0.01932  Biso   1.000  H
  C99      1.0000 0.37049  0.97220  0.00980  Biso   1.000  C
  H97      1.0000 0.32020  0.92508  0.05680  Biso   1.000  H
  H98      1.0000 0.32020  0.92512  0.05680  Biso   1.000  H
  H99      1.0000 0.32060  0.98682  0.07500  Biso   1.000  H
  C100     1.0000 0.37053  0.97220  0.00980  Biso   1.000  C
  H100     1.0000 0.94629  0.98072  0.26822  Biso   1.000  H
  C101     1.0000 0.96260  0.04350  0.32020  Biso   1.000  C
  C102     1.0000 0.02780  0.99020  0.37049  Biso   1.000  C
  H101     1.0000 0.07492  0.94320  0.32020  Biso   1.000  H
  H102     1.0000 0.01322  0.92500  0.32060  Biso   1.000  H
  C103     1.0000 0.02780  0.99020  0.37053  Biso   1.000  C
  H103     1.0000 0.98799  0.10468  0.19013  Biso   1.000  H
  H104     1.0000 0.98799  0.10472  0.19013  Biso   1.000  H
  C104     1.0000 0.98891  0.26946  0.02752  Biso   1.000  C
  H105     1.0000 0.98072  0.26822  0.94629  Biso   1.000  H
  C105     1.0000 0.04350  0.32020  0.96260  Biso   1.000  C
  C106     1.0000 0.37049  0.02780  0.99020  Biso   1.000  C
  H106     1.0000 0.32020  0.07492  0.94320  Biso   1.000  H
  H107     1.0000 0.32060  0.01322  0.92500  Biso   1.000  H
  C107     1.0000 0.37053  0.02780  0.99020  Biso   1.000  C
  H108     1.0000 0.37109  0.94710  0.97899  Biso   1.000  H
  H109     1.0000 0.40291  0.96569  0.03190  Biso   1.000  H
  C108     1.0000 0.97220  0.00980  0.37049  Biso   1.000  C
  H110     1.0000 0.92508  0.05680  0.32020  Biso   1.000  H
  C109     1.0000 0.97220  0.00980  0.37053  Biso   1.000  C
  H111     1.0000 0.92512  0.05680  0.32020  Biso   1.000  H
  H112     1.0000 0.98682  0.07500  0.32060  Biso   1.000  H
  H113     1.0000 0.03431  0.96810  0.40291  Biso   1.000  H
  H114     1.0000 0.05290  0.02101  0.37109  Biso   1.000  H
  C110     1.0000 0.95650  0.32020  0.03740  Biso   1.000  C
  H115     1.0000 0.01928  0.26822  0.05371  Biso   1.000  H
  H116     1.0000 0.01932  0.26822  0.05371  Biso   1.000  H
  C111     1.0000 0.00980  0.37049  0.97220  Biso   1.000  C
  H117     1.0000 0.05680  0.32020  0.92508  Biso   1.000  H
  H118     1.0000 0.05680  0.32020  0.92512  Biso   1.000  H
  H119     1.0000 0.07500  0.32060  0.98682  Biso   1.000  H
  C112     1.0000 0.00980  0.37053  0.97220  Biso   1.000  C
  H120     1.0000 0.40291  0.03431  0.96810  Biso   1.000  H
  H121     1.0000 0.37109  0.05290  0.02101  Biso   1.000  H
  H122     1.0000 0.94710  0.97899  0.37109  Biso   1.000  H
  H123     1.0000 0.96569  0.03190  0.40291  Biso   1.000  H
  C113     1.0000 0.99020  0.37049  0.02780  Biso   1.000  C
  H124     1.0000 0.94320  0.32020  0.07492  Biso   1.000  H
  H125     1.0000 0.92500  0.32060  0.01322  Biso   1.000  H
  C114     1.0000 0.99020  0.37053  0.02780  Biso   1.000  C
  H126     1.0000 0.97899  0.37109  0.94710  Biso   1.000  H
  H127     1.0000 0.03190  0.40291  0.96569  Biso   1.000  H
  H128     1.0000 0.96810  0.40291  0.03431  Biso   1.000  H
  H129     1.0000 0.02101  0.37109  0.05290  Biso   1.000  H
  C115     1.0000 0.77782  0.62051  0.75982  Biso   1.000  C
  C116     1.0000 0.72222  0.62051  0.74022  Biso   1.000  C
  C117     1.0000 0.78742  0.57022  0.79352  Biso   1.000  C
  H130     1.0000 0.78433  0.65289  0.78192  Biso   1.000  H
  H131     1.0000 0.80292  0.62111  0.72901  Biso   1.000  H
  C118     1.0000 0.71262  0.57022  0.70652  Biso   1.000  C
  H132     1.0000 0.71571  0.65289  0.71812  Biso   1.000  H
  H133     1.0000 0.69712  0.62111  0.77099  Biso   1.000  H
  C119     1.0000 0.77750  0.51944  0.76111  Biso   1.000  C
  H134     1.0000 0.82490  0.57022  0.80682  Biso   1.000  H
  H135     1.0000 0.76320  0.57062  0.82502  Biso   1.000  H
  C120     1.0000 0.72250  0.51944  0.73889  Biso   1.000  C
  H136     1.0000 0.67510  0.57022  0.69322  Biso   1.000  H
  H137     1.0000 0.73680  0.57062  0.67502  Biso   1.000  H
  H138     1.0000 0.80369  0.51820  0.73070  Biso   1.000  H
  N13      1.0000 0.78621  0.47373  0.79489  Biso   1.000  N
  N14      1.0000 0.71379  0.47373  0.70511  Biso   1.000  N
  H139     1.0000 0.69631  0.51820  0.76930  Biso   1.000  H
  C121     1.0000 0.82401  0.44139  0.78501  Biso   1.000  C
  C122     1.0000 0.67599  0.44139  0.71499  Biso   1.000  C
  H140     1.0000 0.84462  0.44710  0.75351  Biso   1.000  H
  C123     1.0000 0.83811  0.39560  0.81899  Biso   1.000  C
  C124     1.0000 0.66189  0.39560  0.68101  Biso   1.000  C
  H141     1.0000 0.65542  0.44710  0.74653  Biso   1.000  H
  C125     1.0000 0.80550  0.38298  0.86390  Biso   1.000  C
  C126     1.0000 0.88302  0.36390  0.80550  Biso   1.000  C
  C127     1.0000 0.69450  0.38298  0.63610  Biso   1.000  C
  C128     1.0000 0.61702  0.36390  0.69450  Biso   1.000  C
  O13      1.0000 0.76380  0.41432  0.87652  Biso   1.000  O
  C129     1.0000 0.81899  0.33811  0.89560  Biso   1.000  C
  H142     1.0000 0.77472  0.40452  0.87230  Biso   1.000  H
  C130     1.0000 0.89560  0.31899  0.83811  Biso   1.000  C
  O14      1.0000 0.91432  0.37652  0.76380  Biso   1.000  O
  H143     1.0000 0.90452  0.37230  0.77472  Biso   1.000  H
  C131     1.0000 0.68101  0.33811  0.60440  Biso   1.000  C
  O15      1.0000 0.73620  0.41432  0.62352  Biso   1.000  O
  H144     1.0000 0.72532  0.40452  0.62770  Biso   1.000  H
  C132     1.0000 0.60440  0.31899  0.66189  Biso   1.000  C
  O16      1.0000 0.58572  0.37652  0.73620  Biso   1.000  O
  H145     1.0000 0.59548  0.37230  0.72532  Biso   1.000  H
  H146     1.0000 0.76199  0.44011  0.85470  Biso   1.000  H
  C133     1.0000 0.86390  0.30550  0.88302  Biso   1.000  C
  C134     1.0000 0.78501  0.32401  0.94139  Biso   1.000  C
  C135     1.0000 0.94139  0.28501  0.82401  Biso   1.000  C
  H147     1.0000 0.94011  0.35470  0.76199  Biso   1.000  H
  C136     1.0000 0.71499  0.32401  0.55861  Biso   1.000  C
  C137     1.0000 0.63610  0.30550  0.61702  Biso   1.000  C
  H148     1.0000 0.73801  0.44011  0.64530  Biso   1.000  H
  C138     1.0000 0.55861  0.28501  0.67599  Biso   1.000  C
  H149     1.0000 0.55989  0.35470  0.73801  Biso   1.000  H
  O17      1.0000 0.87652  0.26380  0.91432  Biso   1.000  O
  H150     1.0000 0.87230  0.27468  0.90452  Biso   1.000  H
  N15      1.0000 0.79489  0.28621  0.97373  Biso   1.000  N
  H151     1.0000 0.75351  0.34462  0.94710  Biso   1.000  H
  N16      1.0000 0.97373  0.29489  0.78621  Biso   1.000  N
  H152     1.0000 0.94710  0.25351  0.84462  Biso   1.000  H
  N17      1.0000 0.70511  0.28621  0.52627  Biso   1.000  N
  H153     1.0000 0.74653  0.34462  0.55290  Biso   1.000  H
  O18      1.0000 0.62352  0.26380  0.58572  Biso   1.000  O
  H154     1.0000 0.62770  0.27468  0.59548  Biso   1.000  H
  N18      1.0000 0.52627  0.29489  0.71379  Biso   1.000  N
  H155     1.0000 0.55290  0.25351  0.65542  Biso   1.000  H
  H156     1.0000 0.85470  0.26199  0.94011  Biso   1.000  H
  C139     1.0000 0.76111  0.27750  0.01944  Biso   1.000  C
  C140     1.0000 0.01944  0.26111  0.77750  Biso   1.000  C
  C141     1.0000 0.73889  0.27750  0.48056  Biso   1.000  C
  H157     1.0000 0.64530  0.26199  0.55989  Biso   1.000  H
  C142     1.0000 0.48056  0.26111  0.72250  Biso   1.000  C
  C143     1.0000 0.73889  0.22250  0.01944  Biso   1.000  C
  C144     1.0000 0.79352  0.28742  0.07022  Biso   1.000  C
  H158     1.0000 0.73070  0.30369  0.01820  Biso   1.000  H
  C145     1.0000 0.01944  0.23889  0.72250  Biso   1.000  C
  C146     1.0000 0.07022  0.29348  0.78742  Biso   1.000  C
  H159     1.0000 0.01820  0.23070  0.80369  Biso   1.000  H
  C147     1.0000 0.70652  0.28742  0.42982  Biso   1.000  C
  H160     1.0000 0.76930  0.30369  0.48180  Biso   1.000  H
  C148     1.0000 0.76111  0.22250  0.48056  Biso   1.000  C
  C149     1.0000 0.42982  0.29348  0.71262  Biso   1.000  C
  H161     1.0000 0.48180  0.23070  0.69631  Biso   1.000  H
  C150     1.0000 0.48056  0.23889  0.77750  Biso   1.000  C
  N19      1.0000 0.70511  0.21379  0.97373  Biso   1.000  N
  C151     1.0000 0.70652  0.21262  0.07022  Biso   1.000  C
  H162     1.0000 0.76930  0.19631  0.01820  Biso   1.000  H
  C152     1.0000 0.75982  0.27782  0.12051  Biso   1.000  C
  H163     1.0000 0.80682  0.32490  0.07022  Biso   1.000  H
  H164     1.0000 0.82502  0.26320  0.07062  Biso   1.000  H
  N20      1.0000 0.97373  0.20511  0.71379  Biso   1.000  N
  C153     1.0000 0.07022  0.20652  0.71262  Biso   1.000  C
  H165     1.0000 0.01820  0.26930  0.69631  Biso   1.000  H
  C154     1.0000 0.12051  0.25982  0.77782  Biso   1.000  C
  H166     1.0000 0.07022  0.30682  0.82490  Biso   1.000  H
  H167     1.0000 0.07062  0.32502  0.76320  Biso   1.000  H
  C155     1.0000 0.74022  0.27782  0.37949  Biso   1.000  C
  H168     1.0000 0.69322  0.32490  0.42982  Biso   1.000  H
  H169     1.0000 0.67502  0.26320  0.42942  Biso   1.000  H
  C156     1.0000 0.79352  0.21262  0.42982  Biso   1.000  C
  H170     1.0000 0.73070  0.19631  0.48180  Biso   1.000  H
  N21      1.0000 0.79489  0.21379  0.52627  Biso   1.000  N
  C157     1.0000 0.37949  0.25982  0.72222  Biso   1.000  C
  H171     1.0000 0.42982  0.30682  0.67510  Biso   1.000  H
  H172     1.0000 0.42942  0.32502  0.73680  Biso   1.000  H
  C158     1.0000 0.42982  0.20652  0.78742  Biso   1.000  C
  H173     1.0000 0.48180  0.26930  0.80369  Biso   1.000  H
  N22      1.0000 0.52627  0.20511  0.78621  Biso   1.000  N
  C159     1.0000 0.71499  0.17599  0.94139  Biso   1.000  C
  C160     1.0000 0.74022  0.22218  0.12051  Biso   1.000  C
  H174     1.0000 0.69322  0.17510  0.07022  Biso   1.000  H
  H175     1.0000 0.67502  0.23680  0.07062  Biso   1.000  H
  H176     1.0000 0.78192  0.28429  0.15293  Biso   1.000  H
  H177     1.0000 0.72901  0.30288  0.12111  Biso   1.000  H
  C161     1.0000 0.94139  0.21499  0.67599  Biso   1.000  C
  C162     1.0000 0.12051  0.24022  0.72222  Biso   1.000  C
  H178     1.0000 0.07022  0.19322  0.67510  Biso   1.000  H
  H179     1.0000 0.07062  0.17498  0.73680  Biso   1.000  H
  H180     1.0000 0.15293  0.28192  0.78433  Biso   1.000  H
  H181     1.0000 0.12111  0.22901  0.80292  Biso   1.000  H
  H182     1.0000 0.71812  0.28429  0.34711  Biso   1.000  H
  H183     1.0000 0.77099  0.30288  0.37889  Biso   1.000  H
  C163     1.0000 0.75982  0.22218  0.37949  Biso   1.000  C
  H184     1.0000 0.80682  0.17510  0.42982  Biso   1.000  H
  H185     1.0000 0.82502  0.23680  0.42942  Biso   1.000  H
  C164     1.0000 0.78501  0.17599  0.55861  Biso   1.000  C
  H186     1.0000 0.34711  0.28192  0.71571  Biso   1.000  H
  H187     1.0000 0.37889  0.22901  0.69712  Biso   1.000  H
  C165     1.0000 0.37949  0.24022  0.77782  Biso   1.000  C
  H188     1.0000 0.42982  0.19322  0.82490  Biso   1.000  H
  H189     1.0000 0.42942  0.17498  0.76320  Biso   1.000  H
  C166     1.0000 0.55861  0.21499  0.82401  Biso   1.000  C
  C167     1.0000 0.68101  0.16189  0.89560  Biso   1.000  C
  H190     1.0000 0.74653  0.15542  0.94710  Biso   1.000  H
  H191     1.0000 0.71812  0.21571  0.15293  Biso   1.000  H
  H192     1.0000 0.77099  0.19712  0.12111  Biso   1.000  H
  C168     1.0000 0.89560  0.18101  0.66189  Biso   1.000  C
  H193     1.0000 0.94710  0.24649  0.65542  Biso   1.000  H
  H194     1.0000 0.15293  0.21808  0.71571  Biso   1.000  H
  H195     1.0000 0.12111  0.27099  0.69712  Biso   1.000  H
  H196     1.0000 0.78192  0.21571  0.34711  Biso   1.000  H
  H197     1.0000 0.72901  0.19712  0.37889  Biso   1.000  H
  H198     1.0000 0.75351  0.15542  0.55290  Biso   1.000  H
  C169     1.0000 0.81899  0.16189  0.60440  Biso   1.000  C
  H199     1.0000 0.34711  0.21808  0.78433  Biso   1.000  H
  H200     1.0000 0.37889  0.27099  0.80292  Biso   1.000  H
  H201     1.0000 0.55290  0.24649  0.84462  Biso   1.000  H
  C170     1.0000 0.60440  0.18101  0.83811  Biso   1.000  C
  C171     1.0000 0.63610  0.19450  0.88302  Biso   1.000  C
  C172     1.0000 0.69450  0.11702  0.86390  Biso   1.000  C
  C173     1.0000 0.86390  0.19450  0.61702  Biso   1.000  C
  C174     1.0000 0.88302  0.13610  0.69450  Biso   1.000  C
  C175     1.0000 0.80550  0.11702  0.63610  Biso   1.000  C
  C176     1.0000 0.61702  0.13610  0.80550  Biso   1.000  C
  O19      1.0000 0.62352  0.23620  0.91432  Biso   1.000  O
  H202     1.0000 0.62770  0.22532  0.90452  Biso   1.000  H
  C177     1.0000 0.66189  0.10440  0.81899  Biso   1.000  C
  O20      1.0000 0.73620  0.08568  0.87652  Biso   1.000  O
  H203     1.0000 0.72532  0.09548  0.87230  Biso   1.000  H
  O21      1.0000 0.87652  0.23620  0.58572  Biso   1.000  O
  H204     1.0000 0.87230  0.22532  0.59548  Biso   1.000  H
  C178     1.0000 0.83811  0.10440  0.68101  Biso   1.000  C
  O22      1.0000 0.91432  0.12348  0.73620  Biso   1.000  O
  H205     1.0000 0.90452  0.12770  0.72532  Biso   1.000  H
  O23      1.0000 0.76380  0.08568  0.62352  Biso   1.000  O
  H206     1.0000 0.77472  0.09548  0.62770  Biso   1.000  H
  O24      1.0000 0.58572  0.12348  0.76380  Biso   1.000  O
  H207     1.0000 0.59548  0.12770  0.77472  Biso   1.000  H
  H208     1.0000 0.64530  0.23801  0.94011  Biso   1.000  H
  C179     1.0000 0.67599  0.05861  0.78501  Biso   1.000  C
  H209     1.0000 0.73801  0.05989  0.85470  Biso   1.000  H
  H210     1.0000 0.85470  0.23801  0.55989  Biso   1.000  H
  C180     1.0000 0.82401  0.05861  0.71499  Biso   1.000  C
  H211     1.0000 0.94011  0.14530  0.73801  Biso   1.000  H
  H212     1.0000 0.76199  0.05989  0.64530  Biso   1.000  H
  H213     1.0000 0.55989  0.14530  0.76199  Biso   1.000  H
  N23      1.0000 0.71379  0.02627  0.79489  Biso   1.000  N
  H214     1.0000 0.65542  0.05290  0.75351  Biso   1.000  H
  N24      1.0000 0.78621  0.02627  0.70511  Biso   1.000  N
  H215     1.0000 0.84462  0.05290  0.74653  Biso   1.000  H
  C181     1.0000 0.72250  0.98056  0.76111  Biso   1.000  C
  C182     1.0000 0.77750  0.98056  0.73889  Biso   1.000  C
  C183     1.0000 0.71262  0.92978  0.79352  Biso   1.000  C
  H216     1.0000 0.69631  0.98180  0.73070  Biso   1.000  H
  C184     1.0000 0.78742  0.92978  0.70652  Biso   1.000  C
  H217     1.0000 0.80369  0.98180  0.76930  Biso   1.000  H
  C185     1.0000 0.72222  0.87949  0.75982  Biso   1.000  C
  H218     1.0000 0.67510  0.92978  0.80682  Biso   1.000  H
  H219     1.0000 0.73680  0.92938  0.82502  Biso   1.000  H
  C186     1.0000 0.77782  0.87949  0.74022  Biso   1.000  C
  H220     1.0000 0.82490  0.92978  0.69322  Biso   1.000  H
  H221     1.0000 0.76320  0.92938  0.67502  Biso   1.000  H
  H222     1.0000 0.71571  0.84711  0.78192  Biso   1.000  H
  H223     1.0000 0.69712  0.87889  0.72901  Biso   1.000  H
  H224     1.0000 0.78433  0.84711  0.71812  Biso   1.000  H
  H225     1.0000 0.80292  0.87889  0.77099  Biso   1.000  H
  C187     1.0000 0.75982  0.77782  0.62051  Biso   1.000  C
  C188     1.0000 0.74022  0.72222  0.62051  Biso   1.000  C
  C189     1.0000 0.79352  0.78742  0.57022  Biso   1.000  C
  H226     1.0000 0.78192  0.78433  0.65289  Biso   1.000  H
  H227     1.0000 0.72901  0.80292  0.62111  Biso   1.000  H
  C190     1.0000 0.70652  0.71262  0.57022  Biso   1.000  C
  H228     1.0000 0.71812  0.71571  0.65289  Biso   1.000  H
  H229     1.0000 0.77099  0.69712  0.62111  Biso   1.000  H
  C191     1.0000 0.76111  0.77750  0.51944  Biso   1.000  C
  H230     1.0000 0.80682  0.82490  0.57022  Biso   1.000  H
  H231     1.0000 0.82502  0.76320  0.57062  Biso   1.000  H
  C192     1.0000 0.73889  0.72250  0.51944  Biso   1.000  C
  H232     1.0000 0.69322  0.67510  0.57022  Biso   1.000  H
  H233     1.0000 0.67502  0.73680  0.57062  Biso   1.000  H
  H234     1.0000 0.73070  0.80369  0.51820  Biso   1.000  H
  N25      1.0000 0.79489  0.78621  0.47373  Biso   1.000  N
  N26      1.0000 0.70511  0.71379  0.47373  Biso   1.000  N
  H235     1.0000 0.76930  0.69631  0.51820  Biso   1.000  H
  C193     1.0000 0.78501  0.82401  0.44139  Biso   1.000  C
  C194     1.0000 0.71499  0.67599  0.44139  Biso   1.000  C
  H236     1.0000 0.75351  0.84462  0.44710  Biso   1.000  H
  C195     1.0000 0.81899  0.83811  0.39560  Biso   1.000  C
  C196     1.0000 0.68101  0.66189  0.39560  Biso   1.000  C
  H237     1.0000 0.74653  0.65542  0.44710  Biso   1.000  H
  C197     1.0000 0.86390  0.80550  0.38298  Biso   1.000  C
  C198     1.0000 0.80550  0.88302  0.36390  Biso   1.000  C
  C199     1.0000 0.69450  0.61702  0.36390  Biso   1.000  C
  C200     1.0000 0.63610  0.69450  0.38298  Biso   1.000  C
  C201     1.0000 0.89560  0.81899  0.33811  Biso   1.000  C
  O25      1.0000 0.87652  0.76380  0.41432  Biso   1.000  O
  H238     1.0000 0.87230  0.77472  0.40452  Biso   1.000  H
  C202     1.0000 0.83811  0.89560  0.31899  Biso   1.000  C
  O26      1.0000 0.76380  0.91432  0.37652  Biso   1.000  O
  H239     1.0000 0.77472  0.90452  0.37230  Biso   1.000  H
  C203     1.0000 0.66189  0.60440  0.31899  Biso   1.000  C
  O27      1.0000 0.73620  0.58572  0.37652  Biso   1.000  O
  H240     1.0000 0.72532  0.59548  0.37230  Biso   1.000  H
  C204     1.0000 0.60440  0.68101  0.33811  Biso   1.000  C
  O28      1.0000 0.62352  0.73620  0.41432  Biso   1.000  O
  H241     1.0000 0.62770  0.72532  0.40452  Biso   1.000  H
  C205     1.0000 0.94139  0.78501  0.32401  Biso   1.000  C
  C206     1.0000 0.88302  0.86390  0.30550  Biso   1.000  C
  H242     1.0000 0.85470  0.76199  0.44011  Biso   1.000  H
  C207     1.0000 0.82401  0.94139  0.28501  Biso   1.000  C
  H243     1.0000 0.76199  0.94011  0.35470  Biso   1.000  H
  C208     1.0000 0.67599  0.55861  0.28501  Biso   1.000  C
  C209     1.0000 0.61702  0.63610  0.30550  Biso   1.000  C
  H244     1.0000 0.73801  0.55989  0.35470  Biso   1.000  H
  C210     1.0000 0.55861  0.71499  0.32401  Biso   1.000  C
  H245     1.0000 0.64530  0.73801  0.44011  Biso   1.000  H
  N27      1.0000 0.97373  0.79489  0.28621  Biso   1.000  N
  H246     1.0000 0.94710  0.75351  0.34462  Biso   1.000  H
  O29      1.0000 0.91432  0.87652  0.26380  Biso   1.000  O
  H247     1.0000 0.90452  0.87230  0.27468  Biso   1.000  H
  N28      1.0000 0.78621  0.97373  0.29489  Biso   1.000  N
  H248     1.0000 0.84462  0.94710  0.25351  Biso   1.000  H
  N29      1.0000 0.71379  0.52627  0.29489  Biso   1.000  N
  H249     1.0000 0.65542  0.55290  0.25351  Biso   1.000  H
  O30      1.0000 0.58572  0.62352  0.26380  Biso   1.000  O
  H250     1.0000 0.59548  0.62770  0.27468  Biso   1.000  H
  N30      1.0000 0.52627  0.70511  0.28621  Biso   1.000  N
  H251     1.0000 0.55290  0.74653  0.34462  Biso   1.000  H
  C211     1.0000 0.01944  0.76111  0.27750  Biso   1.000  C
  H252     1.0000 0.94011  0.85470  0.26199  Biso   1.000  H
  C212     1.0000 0.77750  0.01944  0.26111  Biso   1.000  C
  C213     1.0000 0.72250  0.48056  0.26111  Biso   1.000  C
  H253     1.0000 0.55989  0.64530  0.26199  Biso   1.000  H
  C214     1.0000 0.48056  0.73889  0.27750  Biso   1.000  C
  C215     1.0000 0.01944  0.73889  0.22250  Biso   1.000  C
  C216     1.0000 0.07022  0.79352  0.28742  Biso   1.000  C
  H254     1.0000 0.01820  0.73070  0.30369  Biso   1.000  H
  C217     1.0000 0.72250  0.01944  0.23889  Biso   1.000  C
  C218     1.0000 0.78742  0.07022  0.29348  Biso   1.000  C
  H255     1.0000 0.80369  0.01820  0.23070  Biso   1.000  H
  C219     1.0000 0.71262  0.42982  0.29348  Biso   1.000  C
  H256     1.0000 0.69631  0.48180  0.23070  Biso   1.000  H
  C220     1.0000 0.77750  0.48056  0.23889  Biso   1.000  C
  C221     1.0000 0.42982  0.70652  0.28742  Biso   1.000  C
  H257     1.0000 0.48180  0.76930  0.30369  Biso   1.000  H
  C222     1.0000 0.48056  0.76111  0.22250  Biso   1.000  C
  N31      1.0000 0.97373  0.70511  0.21379  Biso   1.000  N
  C223     1.0000 0.07022  0.70652  0.21262  Biso   1.000  C
  H258     1.0000 0.01820  0.76930  0.19631  Biso   1.000  H
  C224     1.0000 0.12051  0.75982  0.27782  Biso   1.000  C
  H259     1.0000 0.07022  0.80682  0.32490  Biso   1.000  H
  H260     1.0000 0.07062  0.82502  0.26320  Biso   1.000  H
  N32      1.0000 0.71379  0.97373  0.20511  Biso   1.000  N
  C225     1.0000 0.71262  0.07022  0.20652  Biso   1.000  C
  H261     1.0000 0.69631  0.01820  0.26930  Biso   1.000  H
  C226     1.0000 0.77782  0.12051  0.25982  Biso   1.000  C
  H262     1.0000 0.82490  0.07022  0.30682  Biso   1.000  H
  H263     1.0000 0.76320  0.07062  0.32502  Biso   1.000  H
  C227     1.0000 0.72222  0.37949  0.25982  Biso   1.000  C
  H264     1.0000 0.67510  0.42982  0.30682  Biso   1.000  H
  H265     1.0000 0.73680  0.42942  0.32502  Biso   1.000  H
  C228     1.0000 0.78742  0.42982  0.20652  Biso   1.000  C
  H266     1.0000 0.80369  0.48180  0.26930  Biso   1.000  H
  N33      1.0000 0.78621  0.52627  0.20511  Biso   1.000  N
  C229     1.0000 0.37949  0.74022  0.27782  Biso   1.000  C
  H267     1.0000 0.42982  0.69322  0.32490  Biso   1.000  H
  H268     1.0000 0.42942  0.67502  0.26320  Biso   1.000  H
  C230     1.0000 0.42982  0.79352  0.21262  Biso   1.000  C
  H269     1.0000 0.48180  0.73070  0.19631  Biso   1.000  H
  N34      1.0000 0.52627  0.79489  0.21379  Biso   1.000  N
  C231     1.0000 0.94139  0.71499  0.17599  Biso   1.000  C
  C232     1.0000 0.12051  0.74022  0.22218  Biso   1.000  C
  H270     1.0000 0.07022  0.69322  0.17510  Biso   1.000  H
  H271     1.0000 0.07062  0.67502  0.23680  Biso   1.000  H
  H272     1.0000 0.15293  0.78192  0.28429  Biso   1.000  H
  H273     1.0000 0.12111  0.72901  0.30288  Biso   1.000  H
  C233     1.0000 0.67599  0.94139  0.21499  Biso   1.000  C
  C234     1.0000 0.72222  0.12051  0.24022  Biso   1.000  C
  H274     1.0000 0.67510  0.07022  0.19322  Biso   1.000  H
  H275     1.0000 0.73680  0.07062  0.17498  Biso   1.000  H
  H276     1.0000 0.78433  0.15293  0.28192  Biso   1.000  H
  H277     1.0000 0.80292  0.12111  0.22901  Biso   1.000  H
  H278     1.0000 0.71571  0.34711  0.28192  Biso   1.000  H
  H279     1.0000 0.69712  0.37889  0.22901  Biso   1.000  H
  C235     1.0000 0.77782  0.37949  0.24022  Biso   1.000  C
  H280     1.0000 0.82490  0.42982  0.19322  Biso   1.000  H
  H281     1.0000 0.76320  0.42942  0.17498  Biso   1.000  H
  C236     1.0000 0.82401  0.55861  0.21499  Biso   1.000  C
  H282     1.0000 0.34711  0.71812  0.28429  Biso   1.000  H
  H283     1.0000 0.37889  0.77099  0.30288  Biso   1.000  H
  C237     1.0000 0.37949  0.75982  0.22218  Biso   1.000  C
  H284     1.0000 0.42982  0.80682  0.17510  Biso   1.000  H
  H285     1.0000 0.42942  0.82502  0.23680  Biso   1.000  H
  C238     1.0000 0.55861  0.78501  0.17599  Biso   1.000  C
  C239     1.0000 0.89560  0.68101  0.16189  Biso   1.000  C
  H286     1.0000 0.94710  0.74653  0.15542  Biso   1.000  H
  H287     1.0000 0.15293  0.71812  0.21571  Biso   1.000  H
  H288     1.0000 0.12111  0.77099  0.19712  Biso   1.000  H
  C240     1.0000 0.66189  0.89560  0.18101  Biso   1.000  C
  H289     1.0000 0.65542  0.94710  0.24649  Biso   1.000  H
  H290     1.0000 0.71571  0.15293  0.21808  Biso   1.000  H
  H291     1.0000 0.69712  0.12111  0.27099  Biso   1.000  H
  H292     1.0000 0.78433  0.34711  0.21808  Biso   1.000  H
  H293     1.0000 0.80292  0.37889  0.27099  Biso   1.000  H
  H294     1.0000 0.84462  0.55290  0.24649  Biso   1.000  H
  C241     1.0000 0.83811  0.60440  0.18101  Biso   1.000  C
  H295     1.0000 0.34711  0.78192  0.21571  Biso   1.000  H
  H296     1.0000 0.37889  0.72901  0.19712  Biso   1.000  H
  H297     1.0000 0.55290  0.75351  0.15542  Biso   1.000  H
  C242     1.0000 0.60440  0.81899  0.16189  Biso   1.000  C
  C243     1.0000 0.88302  0.63610  0.19450  Biso   1.000  C
  C244     1.0000 0.86390  0.69450  0.11702  Biso   1.000  C
  C245     1.0000 0.61702  0.86390  0.19450  Biso   1.000  C
  C246     1.0000 0.69450  0.88302  0.13610  Biso   1.000  C
  C247     1.0000 0.80550  0.61702  0.13610  Biso   1.000  C
  C248     1.0000 0.63610  0.80550  0.11702  Biso   1.000  C
  O31      1.0000 0.91432  0.62352  0.23620  Biso   1.000  O
  H298     1.0000 0.90452  0.62770  0.22532  Biso   1.000  H
  C249     1.0000 0.81899  0.66189  0.10440  Biso   1.000  C
  O32      1.0000 0.87652  0.73620  0.08568  Biso   1.000  O
  H299     1.0000 0.87230  0.72532  0.09548  Biso   1.000  H
  O33      1.0000 0.58572  0.87652  0.23620  Biso   1.000  O
  H300     1.0000 0.59548  0.87230  0.22532  Biso   1.000  H
  C250     1.0000 0.68101  0.83811  0.10440  Biso   1.000  C
  O34      1.0000 0.73620  0.91432  0.12348  Biso   1.000  O
  H301     1.0000 0.72532  0.90452  0.12770  Biso   1.000  H
  O35      1.0000 0.76380  0.58572  0.12348  Biso   1.000  O
  H302     1.0000 0.77472  0.59548  0.12770  Biso   1.000  H
  O36      1.0000 0.62352  0.76380  0.08568  Biso   1.000  O
  H303     1.0000 0.62770  0.77472  0.09548  Biso   1.000  H
  H304     1.0000 0.94011  0.64530  0.23801  Biso   1.000  H
  C251     1.0000 0.78501  0.67599  0.05861  Biso   1.000  C
  H305     1.0000 0.85470  0.73801  0.05989  Biso   1.000  H
  H306     1.0000 0.55989  0.85470  0.23801  Biso   1.000  H
  C252     1.0000 0.71499  0.82401  0.05861  Biso   1.000  C
  H307     1.0000 0.73801  0.94011  0.14530  Biso   1.000  H
  H308     1.0000 0.76199  0.55989  0.14530  Biso   1.000  H
  H309     1.0000 0.64530  0.76199  0.05989  Biso   1.000  H
  N35      1.0000 0.79489  0.71379  0.02627  Biso   1.000  N
  H310     1.0000 0.75351  0.65542  0.05290  Biso   1.000  H
  N36      1.0000 0.70511  0.78621  0.02627  Biso   1.000  N
  H311     1.0000 0.74653  0.84462  0.05290  Biso   1.000  H
  C253     1.0000 0.76111  0.72250  0.98056  Biso   1.000  C
  C254     1.0000 0.73889  0.77750  0.98056  Biso   1.000  C
  C255     1.0000 0.79352  0.71262  0.92978  Biso   1.000  C
  H312     1.0000 0.73070  0.69631  0.98180  Biso   1.000  H
  C256     1.0000 0.70652  0.78742  0.92978  Biso   1.000  C
  H313     1.0000 0.76930  0.80369  0.98180  Biso   1.000  H
  C257     1.0000 0.75982  0.72222  0.87949  Biso   1.000  C
  H314     1.0000 0.80682  0.67510  0.92978  Biso   1.000  H
  H315     1.0000 0.82502  0.73680  0.92938  Biso   1.000  H
  C258     1.0000 0.74022  0.77782  0.87949  Biso   1.000  C
  H316     1.0000 0.69322  0.82490  0.92978  Biso   1.000  H
  H317     1.0000 0.67502  0.76320  0.92938  Biso   1.000  H
  H318     1.0000 0.78192  0.71571  0.84711  Biso   1.000  H
  H319     1.0000 0.72901  0.69712  0.87889  Biso   1.000  H
  H320     1.0000 0.71812  0.78433  0.84711  Biso   1.000  H
  H321     1.0000 0.77099  0.80292  0.87889  Biso   1.000  H
  C259     1.0000 0.62051  0.75982  0.77782  Biso   1.000  C
  C260     1.0000 0.62051  0.74022  0.72222  Biso   1.000  C
  C261     1.0000 0.57022  0.79352  0.78742  Biso   1.000  C
  H322     1.0000 0.65289  0.78192  0.78433  Biso   1.000  H
  H323     1.0000 0.62111  0.72901  0.80292  Biso   1.000  H
  C262     1.0000 0.57022  0.70652  0.71262  Biso   1.000  C
  H324     1.0000 0.65289  0.71812  0.71571  Biso   1.000  H
  H325     1.0000 0.62111  0.77099  0.69712  Biso   1.000  H
  C263     1.0000 0.51944  0.76111  0.77750  Biso   1.000  C
  H326     1.0000 0.57022  0.80682  0.82490  Biso   1.000  H
  H327     1.0000 0.57062  0.82502  0.76320  Biso   1.000  H
  C264     1.0000 0.51944  0.73889  0.72250  Biso   1.000  C
  H328     1.0000 0.57022  0.69322  0.67510  Biso   1.000  H
  H329     1.0000 0.57062  0.67502  0.73680  Biso   1.000  H
  H330     1.0000 0.51820  0.73070  0.80369  Biso   1.000  H
  N37      1.0000 0.47373  0.79489  0.78621  Biso   1.000  N
  N38      1.0000 0.47373  0.70511  0.71379  Biso   1.000  N
  H331     1.0000 0.51820  0.76930  0.69631  Biso   1.000  H
  C265     1.0000 0.44139  0.78501  0.82401  Biso   1.000  C
  C266     1.0000 0.44139  0.71499  0.67599  Biso   1.000  C
  H332     1.0000 0.44710  0.75351  0.84462  Biso   1.000  H
  C267     1.0000 0.39560  0.81899  0.83811  Biso   1.000  C
  C268     1.0000 0.39560  0.68101  0.66189  Biso   1.000  C
  H333     1.0000 0.44710  0.74653  0.65542  Biso   1.000  H
  C269     1.0000 0.38298  0.86390  0.80550  Biso   1.000  C
  C270     1.0000 0.36390  0.80550  0.88302  Biso   1.000  C
  C271     1.0000 0.36390  0.69450  0.61702  Biso   1.000  C
  C272     1.0000 0.38298  0.63610  0.69450  Biso   1.000  C
  C273     1.0000 0.33811  0.89560  0.81899  Biso   1.000  C
  O37      1.0000 0.41432  0.87652  0.76380  Biso   1.000  O
  H334     1.0000 0.40452  0.87230  0.77472  Biso   1.000  H
  C274     1.0000 0.31899  0.83811  0.89560  Biso   1.000  C
  O38      1.0000 0.37652  0.76380  0.91432  Biso   1.000  O
  H335     1.0000 0.37230  0.77472  0.90452  Biso   1.000  H
  C275     1.0000 0.31899  0.66189  0.60440  Biso   1.000  C
  O39      1.0000 0.37652  0.73620  0.58572  Biso   1.000  O
  H336     1.0000 0.37230  0.72532  0.59548  Biso   1.000  H
  C276     1.0000 0.33811  0.60440  0.68101  Biso   1.000  C
  O40      1.0000 0.41432  0.62352  0.73620  Biso   1.000  O
  H337     1.0000 0.40452  0.62770  0.72532  Biso   1.000  H
  C277     1.0000 0.32401  0.94139  0.78501  Biso   1.000  C
  C278     1.0000 0.30550  0.88302  0.86390  Biso   1.000  C
  H338     1.0000 0.44011  0.85470  0.76199  Biso   1.000  H
  C279     1.0000 0.28501  0.82401  0.94139  Biso   1.000  C
  H339     1.0000 0.35470  0.76199  0.94011  Biso   1.000  H
  C280     1.0000 0.28501  0.67599  0.55861  Biso   1.000  C
  C281     1.0000 0.30550  0.61702  0.63610  Biso   1.000  C
  H340     1.0000 0.35470  0.73801  0.55989  Biso   1.000  H
  C282     1.0000 0.32401  0.55861  0.71499  Biso   1.000  C
  H341     1.0000 0.44011  0.64530  0.73801  Biso   1.000  H
  N39      1.0000 0.28621  0.97373  0.79489  Biso   1.000  N
  H342     1.0000 0.34462  0.94710  0.75351  Biso   1.000  H
  O41      1.0000 0.26380  0.91432  0.87652  Biso   1.000  O
  H343     1.0000 0.27468  0.90452  0.87230  Biso   1.000  H
  N40      1.0000 0.29489  0.78621  0.97373  Biso   1.000  N
  H344     1.0000 0.25351  0.84462  0.94710  Biso   1.000  H
  N41      1.0000 0.29489  0.71379  0.52627  Biso   1.000  N
  H345     1.0000 0.25351  0.65542  0.55290  Biso   1.000  H
  O42      1.0000 0.26380  0.58572  0.62352  Biso   1.000  O
  H346     1.0000 0.27468  0.59548  0.62770  Biso   1.000  H
  N42      1.0000 0.28621  0.52627  0.70511  Biso   1.000  N
  H347     1.0000 0.34462  0.55290  0.74653  Biso   1.000  H
  C283     1.0000 0.27750  0.01944  0.76111  Biso   1.000  C
  H348     1.0000 0.26199  0.94011  0.85470  Biso   1.000  H
  C284     1.0000 0.26111  0.77750  0.01944  Biso   1.000  C
  C285     1.0000 0.26111  0.72250  0.48056  Biso   1.000  C
  H349     1.0000 0.26199  0.55989  0.64530  Biso   1.000  H
  C286     1.0000 0.27750  0.48056  0.73889  Biso   1.000  C
  C287     1.0000 0.22250  0.01944  0.73889  Biso   1.000  C
  C288     1.0000 0.28742  0.07022  0.79352  Biso   1.000  C
  H350     1.0000 0.30369  0.01820  0.73070  Biso   1.000  H
  C289     1.0000 0.23889  0.72250  0.01944  Biso   1.000  C
  C290     1.0000 0.29348  0.78742  0.07022  Biso   1.000  C
  H351     1.0000 0.23070  0.80369  0.01820  Biso   1.000  H
  C291     1.0000 0.29348  0.71262  0.42982  Biso   1.000  C
  H352     1.0000 0.23070  0.69631  0.48180  Biso   1.000  H
  C292     1.0000 0.23889  0.77750  0.48056  Biso   1.000  C
  C293     1.0000 0.28742  0.42982  0.70652  Biso   1.000  C
  H353     1.0000 0.30369  0.48180  0.76930  Biso   1.000  H
  C294     1.0000 0.22250  0.48056  0.76111  Biso   1.000  C
  N43      1.0000 0.21379  0.97373  0.70511  Biso   1.000  N
  C295     1.0000 0.21262  0.07022  0.70652  Biso   1.000  C
  H354     1.0000 0.19631  0.01820  0.76930  Biso   1.000  H
  C296     1.0000 0.27782  0.12051  0.75982  Biso   1.000  C
  H355     1.0000 0.32490  0.07022  0.80682  Biso   1.000  H
  H356     1.0000 0.26320  0.07062  0.82502  Biso   1.000  H
  N44      1.0000 0.20511  0.71379  0.97373  Biso   1.000  N
  C297     1.0000 0.20652  0.71262  0.07022  Biso   1.000  C
  H357     1.0000 0.26930  0.69631  0.01820  Biso   1.000  H
  C298     1.0000 0.25982  0.77782  0.12051  Biso   1.000  C
  H358     1.0000 0.30682  0.82490  0.07022  Biso   1.000  H
  H359     1.0000 0.32502  0.76320  0.07062  Biso   1.000  H
  C299     1.0000 0.25982  0.72222  0.37949  Biso   1.000  C
  H360     1.0000 0.30682  0.67510  0.42982  Biso   1.000  H
  H361     1.0000 0.32502  0.73680  0.42942  Biso   1.000  H
  C300     1.0000 0.20652  0.78742  0.42982  Biso   1.000  C
  H362     1.0000 0.26930  0.80369  0.48180  Biso   1.000  H
  N45      1.0000 0.20511  0.78621  0.52627  Biso   1.000  N
  C301     1.0000 0.27782  0.37949  0.74022  Biso   1.000  C
  H363     1.0000 0.32490  0.42982  0.69322  Biso   1.000  H
  H364     1.0000 0.26320  0.42942  0.67502  Biso   1.000  H
  C302     1.0000 0.21262  0.42982  0.79352  Biso   1.000  C
  H365     1.0000 0.19631  0.48180  0.73070  Biso   1.000  H
  N46      1.0000 0.21379  0.52627  0.79489  Biso   1.000  N
  C303     1.0000 0.17599  0.94139  0.71499  Biso   1.000  C
  C304     1.0000 0.22218  0.12051  0.74022  Biso   1.000  C
  H366     1.0000 0.17510  0.07022  0.69322  Biso   1.000  H
  H367     1.0000 0.23680  0.07062  0.67502  Biso   1.000  H
  H368     1.0000 0.28429  0.15293  0.78192  Biso   1.000  H
  H369     1.0000 0.30288  0.12111  0.72901  Biso   1.000  H
  C305     1.0000 0.21499  0.67599  0.94139  Biso   1.000  C
  C306     1.0000 0.24022  0.72222  0.12051  Biso   1.000  C
  H370     1.0000 0.19322  0.67510  0.07022  Biso   1.000  H
  H371     1.0000 0.17498  0.73680  0.07062  Biso   1.000  H
  H372     1.0000 0.28192  0.78433  0.15293  Biso   1.000  H
  H373     1.0000 0.22901  0.80292  0.12111  Biso   1.000  H
  H374     1.0000 0.28192  0.71571  0.34711  Biso   1.000  H
  H375     1.0000 0.22901  0.69712  0.37889  Biso   1.000  H
  C307     1.0000 0.24022  0.77782  0.37949  Biso   1.000  C
  H376     1.0000 0.19322  0.82490  0.42982  Biso   1.000  H
  H377     1.0000 0.17498  0.76320  0.42942  Biso   1.000  H
  C308     1.0000 0.21499  0.82401  0.55861  Biso   1.000  C
  H378     1.0000 0.28429  0.34711  0.71812  Biso   1.000  H
  H379     1.0000 0.30288  0.37889  0.77099  Biso   1.000  H
  C309     1.0000 0.22218  0.37949  0.75982  Biso   1.000  C
  H380     1.0000 0.17510  0.42982  0.80682  Biso   1.000  H
  H381     1.0000 0.23680  0.42942  0.82502  Biso   1.000  H
  C310     1.0000 0.17599  0.55861  0.78501  Biso   1.000  C
  C311     1.0000 0.16189  0.89560  0.68101  Biso   1.000  C
  H382     1.0000 0.15542  0.94710  0.74653  Biso   1.000  H
  H383     1.0000 0.21571  0.15293  0.71812  Biso   1.000  H
  H384     1.0000 0.19712  0.12111  0.77099  Biso   1.000  H
  C312     1.0000 0.18101  0.66189  0.89560  Biso   1.000  C
  H385     1.0000 0.24649  0.65542  0.94710  Biso   1.000  H
  H386     1.0000 0.21808  0.71571  0.15293  Biso   1.000  H
  H387     1.0000 0.27099  0.69712  0.12111  Biso   1.000  H
  H388     1.0000 0.21808  0.78433  0.34711  Biso   1.000  H
  H389     1.0000 0.27099  0.80292  0.37889  Biso   1.000  H
  H390     1.0000 0.24649  0.84462  0.55290  Biso   1.000  H
  C313     1.0000 0.18101  0.83811  0.60440  Biso   1.000  C
  H391     1.0000 0.21571  0.34711  0.78192  Biso   1.000  H
  H392     1.0000 0.19712  0.37889  0.72901  Biso   1.000  H
  H393     1.0000 0.15542  0.55290  0.75351  Biso   1.000  H
  C314     1.0000 0.16189  0.60440  0.81899  Biso   1.000  C
  C315     1.0000 0.19450  0.88302  0.63610  Biso   1.000  C
  C316     1.0000 0.11702  0.86390  0.69450  Biso   1.000  C
  C317     1.0000 0.19450  0.61702  0.86390  Biso   1.000  C
  C318     1.0000 0.13610  0.69450  0.88302  Biso   1.000  C
  C319     1.0000 0.13610  0.80550  0.61702  Biso   1.000  C
  C320     1.0000 0.11702  0.63610  0.80550  Biso   1.000  C
  O43      1.0000 0.23620  0.91432  0.62352  Biso   1.000  O
  H394     1.0000 0.22532  0.90452  0.62770  Biso   1.000  H
  C321     1.0000 0.10440  0.81899  0.66189  Biso   1.000  C
  O44      1.0000 0.08568  0.87652  0.73620  Biso   1.000  O
  H395     1.0000 0.09548  0.87230  0.72532  Biso   1.000  H
  O45      1.0000 0.23620  0.58572  0.87652  Biso   1.000  O
  H396     1.0000 0.22532  0.59548  0.87230  Biso   1.000  H
  C322     1.0000 0.10440  0.68101  0.83811  Biso   1.000  C
  O46      1.0000 0.12348  0.73620  0.91432  Biso   1.000  O
  H397     1.0000 0.12770  0.72532  0.90452  Biso   1.000  H
  O47      1.0000 0.12348  0.76380  0.58572  Biso   1.000  O
  H398     1.0000 0.12770  0.77472  0.59548  Biso   1.000  H
  O48      1.0000 0.08568  0.62352  0.76380  Biso   1.000  O
  H399     1.0000 0.09548  0.62770  0.77472  Biso   1.000  H
  H400     1.0000 0.23801  0.94011  0.64530  Biso   1.000  H
  C323     1.0000 0.05861  0.78501  0.67599  Biso   1.000  C
  H401     1.0000 0.05989  0.85470  0.73801  Biso   1.000  H
  H402     1.0000 0.23801  0.55989  0.85470  Biso   1.000  H
  C324     1.0000 0.05861  0.71499  0.82401  Biso   1.000  C
  H403     1.0000 0.14530  0.73801  0.94011  Biso   1.000  H
  H404     1.0000 0.14530  0.76199  0.55989  Biso   1.000  H
  H405     1.0000 0.05989  0.64530  0.76199  Biso   1.000  H
  N47      1.0000 0.02627  0.79489  0.71379  Biso   1.000  N
  H406     1.0000 0.05290  0.75351  0.65542  Biso   1.000  H
  N48      1.0000 0.02627  0.70511  0.78621  Biso   1.000  N
  H407     1.0000 0.05290  0.74653  0.84462  Biso   1.000  H
  C325     1.0000 0.98056  0.76111  0.72250  Biso   1.000  C
  C326     1.0000 0.98056  0.73889  0.77750  Biso   1.000  C
  C327     1.0000 0.92978  0.79352  0.71262  Biso   1.000  C
  H408     1.0000 0.98180  0.73070  0.69631  Biso   1.000  H
  C328     1.0000 0.92978  0.70652  0.78742  Biso   1.000  C
  H409     1.0000 0.98180  0.76930  0.80369  Biso   1.000  H
  C329     1.0000 0.87949  0.75982  0.72222  Biso   1.000  C
  H410     1.0000 0.92978  0.80682  0.67510  Biso   1.000  H
  H411     1.0000 0.92938  0.82502  0.73680  Biso   1.000  H
  C330     1.0000 0.87949  0.74022  0.77782  Biso   1.000  C
  H412     1.0000 0.92978  0.69322  0.82490  Biso   1.000  H
  H413     1.0000 0.92938  0.67502  0.76320  Biso   1.000  H
  H414     1.0000 0.84711  0.78192  0.71571  Biso   1.000  H
  H415     1.0000 0.87889  0.72901  0.69712  Biso   1.000  H
  H416     1.0000 0.84711  0.71812  0.78433  Biso   1.000  H
  H417     1.0000 0.87889  0.77099  0.80292  Biso   1.000  H
  C331     1.0000 0.94448  0.61392  0.63300  Biso   1.000  C
  C332     1.0000 0.94452  0.61392  0.63300  Biso   1.000  C
  H418     1.0000 0.98799  0.60472  0.69009  Biso   1.000  H
  C333     1.0000 0.93099  0.64562  0.58809  Biso   1.000  C
  C334     1.0000 0.93103  0.64562  0.58809  Biso   1.000  C
  C335     1.0000 0.91191  0.56901  0.64562  Biso   1.000  C
  O49      1.0000 0.98622  0.62650  0.66430  Biso   1.000  O
  H419     1.0000 0.97530  0.62232  0.65450  Biso   1.000  H
  C336     1.0000 0.88612  0.63300  0.55552  Biso   1.000  C
  C337     1.0000 0.96501  0.69141  0.57399  Biso   1.000  C
  C338     1.0000 0.86700  0.55552  0.61392  Biso   1.000  C
  C339     1.0000 0.92601  0.53499  0.69141  Biso   1.000  C
  C340     1.0000 0.85438  0.58809  0.56901  Biso   1.000  C
  C341     1.0000 0.85442  0.58809  0.56901  Biso   1.000  C
  O50      1.0000 0.87350  0.66430  0.51382  Biso   1.000  O
  H420     1.0000 0.87772  0.65450  0.52470  Biso   1.000  H
  N49      1.0000 0.95509  0.72375  0.53619  Biso   1.000  N
  H421     1.0000 0.99651  0.69712  0.59460  Biso   1.000  H
  O51      1.0000 0.83570  0.51382  0.62650  Biso   1.000  O
  H422     1.0000 0.84550  0.52470  0.62232  Biso   1.000  H
  N50      1.0000 0.96381  0.54491  0.72375  Biso   1.000  N
  H423     1.0000 0.90540  0.50349  0.69712  Biso   1.000  H
  C342     1.0000 0.80859  0.57399  0.53499  Biso   1.000  C
  H424     1.0000 0.89532  0.69009  0.51201  Biso   1.000  H
  C343     1.0000 0.98891  0.76946  0.52752  Biso   1.000  C
  H425     1.0000 0.80991  0.51201  0.60472  Biso   1.000  H
  C344     1.0000 0.97248  0.51109  0.76946  Biso   1.000  C
  C345     1.0000 0.97252  0.51109  0.76946  Biso   1.000  C
  N51      1.0000 0.77629  0.53619  0.54491  Biso   1.000  N
  H426     1.0000 0.80288  0.59460  0.50349  Biso   1.000  H
  H427     1.0000 0.80292  0.59460  0.50349  Biso   1.000  H
  C346     1.0000 0.95650  0.82020  0.53740  Biso   1.000  C
  H428     1.0000 0.01928  0.76822  0.55371  Biso   1.000  H
  H429     1.0000 0.01932  0.76822  0.55371  Biso   1.000  H
  C347     1.0000 0.01113  0.76946  0.47252  Biso   1.000  C
  C348     1.0000 0.96260  0.54350  0.82020  Biso   1.000  C
  H430     1.0000 0.94629  0.48072  0.76822  Biso   1.000  H
  C349     1.0000 0.02752  0.48891  0.76946  Biso   1.000  C
  C350     1.0000 0.73054  0.52752  0.51109  Biso   1.000  C
  C351     1.0000 0.99020  0.87049  0.52780  Biso   1.000  C
  H431     1.0000 0.94320  0.82020  0.57492  Biso   1.000  H
  H432     1.0000 0.92500  0.82060  0.51322  Biso   1.000  H
  H433     1.0000 0.98072  0.76822  0.44629  Biso   1.000  H
  C352     1.0000 0.04350  0.82020  0.46260  Biso   1.000  C
  N52      1.0000 0.04491  0.72375  0.46381  Biso   1.000  N
  C353     1.0000 0.97220  0.50980  0.87049  Biso   1.000  C
  H434     1.0000 0.92508  0.55680  0.82020  Biso   1.000  H
  H435     1.0000 0.92512  0.55680  0.82020  Biso   1.000  H
  H436     1.0000 0.98682  0.57500  0.82060  Biso   1.000  H
  C354     1.0000 0.03740  0.45650  0.82020  Biso   1.000  C
  H437     1.0000 0.05371  0.51932  0.76822  Biso   1.000  H
  N53      1.0000 0.03619  0.45509  0.72375  Biso   1.000  N
  C355     1.0000 0.67980  0.53740  0.54350  Biso   1.000  C
  C356     1.0000 0.73054  0.47252  0.48891  Biso   1.000  C
  H438     1.0000 0.73178  0.55371  0.48072  Biso   1.000  H
  H439     1.0000 0.73182  0.55371  0.48072  Biso   1.000  H
  H440     1.0000 0.96810  0.90291  0.53431  Biso   1.000  H
  H441     1.0000 0.02101  0.87109  0.55290  Biso   1.000  H
  C357     1.0000 0.00980  0.87049  0.47220  Biso   1.000  C
  H442     1.0000 0.05680  0.82020  0.42512  Biso   1.000  H
  H443     1.0000 0.07500  0.82060  0.48678  Biso   1.000  H
  C358     1.0000 0.03499  0.69141  0.42601  Biso   1.000  C
  H444     1.0000 0.96569  0.53190  0.90291  Biso   1.000  H
  H445     1.0000 0.94710  0.47899  0.87109  Biso   1.000  H
  C359     1.0000 0.02780  0.49020  0.87049  Biso   1.000  C
  H446     1.0000 0.07492  0.44320  0.82020  Biso   1.000  H
  H447     1.0000 0.01322  0.42500  0.82060  Biso   1.000  H
  C360     1.0000 0.07399  0.46501  0.69141  Biso   1.000  C
  C361     1.0000 0.62951  0.52780  0.50980  Biso   1.000  C
  H448     1.0000 0.67980  0.57492  0.55680  Biso   1.000  H
  H449     1.0000 0.67940  0.51322  0.57500  Biso   1.000  H
  C362     1.0000 0.67980  0.46260  0.45650  Biso   1.000  C
  H450     1.0000 0.73178  0.44629  0.51932  Biso   1.000  H
  H451     1.0000 0.73182  0.44629  0.51932  Biso   1.000  H
  N54      1.0000 0.77629  0.46381  0.45509  Biso   1.000  N
  H452     1.0000 0.97899  0.87109  0.44710  Biso   1.000  H
  H453     1.0000 0.03190  0.90291  0.46569  Biso   1.000  H
  H454     1.0000 0.00349  0.69712  0.40540  Biso   1.000  H
  C363     1.0000 0.06901  0.64562  0.41191  Biso   1.000  C
  H455     1.0000 0.03431  0.46810  0.90291  Biso   1.000  H
  H456     1.0000 0.05290  0.52101  0.87109  Biso   1.000  H
  H457     1.0000 0.09460  0.49651  0.69712  Biso   1.000  H
  C364     1.0000 0.08809  0.43099  0.64562  Biso   1.000  C
  C365     1.0000 0.62951  0.47220  0.49020  Biso   1.000  C
  H458     1.0000 0.59709  0.53431  0.53190  Biso   1.000  H
  H459     1.0000 0.62891  0.55290  0.47899  Biso   1.000  H
  H460     1.0000 0.67980  0.42512  0.44320  Biso   1.000  H
  H461     1.0000 0.67940  0.48678  0.42500  Biso   1.000  H
  C366     1.0000 0.80859  0.42601  0.46501  Biso   1.000  C
  C367     1.0000 0.05552  0.61392  0.36700  Biso   1.000  C
  C368     1.0000 0.11388  0.63300  0.44448  Biso   1.000  C
  C369     1.0000 0.11392  0.63300  0.44448  Biso   1.000  C
  C370     1.0000 0.05552  0.38612  0.63300  Biso   1.000  C
  C371     1.0000 0.13300  0.44448  0.61392  Biso   1.000  C
  H462     1.0000 0.59709  0.46569  0.46810  Biso   1.000  H
  H463     1.0000 0.62891  0.44710  0.52101  Biso   1.000  H
  H464     1.0000 0.80288  0.40540  0.49651  Biso   1.000  H
  C372     1.0000 0.85438  0.41191  0.43099  Biso   1.000  C
  H465     1.0000 0.80292  0.40540  0.49651  Biso   1.000  H
  C373     1.0000 0.85442  0.41191  0.43099  Biso   1.000  C
  C374     1.0000 0.08809  0.56901  0.35442  Biso   1.000  C
  O52      1.0000 0.01382  0.62650  0.33570  Biso   1.000  O
  H466     1.0000 0.02470  0.62232  0.34550  Biso   1.000  H
  C375     1.0000 0.14562  0.58809  0.43099  Biso   1.000  C
  O53      1.0000 0.12650  0.66430  0.48622  Biso   1.000  O
  H467     1.0000 0.12232  0.65450  0.47530  Biso   1.000  H
  C376     1.0000 0.06901  0.35442  0.58809  Biso   1.000  C
  O54      1.0000 0.01382  0.37350  0.66430  Biso   1.000  O
  H468     1.0000 0.02470  0.37772  0.65450  Biso   1.000  H
  C377     1.0000 0.14562  0.41191  0.56901  Biso   1.000  C
  O55      1.0000 0.16430  0.48622  0.62650  Biso   1.000  O
  H469     1.0000 0.15450  0.47530  0.62232  Biso   1.000  H
  C378     1.0000 0.86700  0.44448  0.38612  Biso   1.000  C
  C379     1.0000 0.88612  0.36700  0.44448  Biso   1.000  C
  C380     1.0000 0.07399  0.53499  0.30859  Biso   1.000  C
  C381     1.0000 0.13300  0.55552  0.38612  Biso   1.000  C
  H470     1.0000 0.01201  0.60472  0.30991  Biso   1.000  H
  C382     1.0000 0.19141  0.57399  0.46501  Biso   1.000  C
  H471     1.0000 0.10468  0.69009  0.48799  Biso   1.000  H
  H472     1.0000 0.10472  0.69009  0.48799  Biso   1.000  H
  C383     1.0000 0.03499  0.30859  0.57399  Biso   1.000  C
  C384     1.0000 0.11388  0.36700  0.55552  Biso   1.000  C
  C385     1.0000 0.11392  0.36700  0.55552  Biso   1.000  C
  H473     1.0000 0.01201  0.39532  0.69009  Biso   1.000  H
  C386     1.0000 0.19141  0.42601  0.53499  Biso   1.000  C
  H474     1.0000 0.19013  0.48799  0.60472  Biso   1.000  H
  O56      1.0000 0.83570  0.48622  0.37350  Biso   1.000  O
  C387     1.0000 0.91191  0.43099  0.35442  Biso   1.000  C
  H475     1.0000 0.84550  0.47530  0.37772  Biso   1.000  H
  O57      1.0000 0.87350  0.33570  0.48622  Biso   1.000  O
  C388     1.0000 0.93099  0.35442  0.41191  Biso   1.000  C
  C389     1.0000 0.93103  0.35442  0.41191  Biso   1.000  C
  H476     1.0000 0.87772  0.34550  0.47530  Biso   1.000  H
  N55      1.0000 0.03619  0.54491  0.27629  Biso   1.000  N
  H477     1.0000 0.09460  0.50349  0.30288  Biso   1.000  H
  O58      1.0000 0.16430  0.51382  0.37350  Biso   1.000  O
  H478     1.0000 0.15450  0.52470  0.37772  Biso   1.000  H
  N56      1.0000 0.22375  0.53619  0.45509  Biso   1.000  N
  H479     1.0000 0.19712  0.59460  0.49651  Biso   1.000  H
  N57      1.0000 0.04491  0.27629  0.53619  Biso   1.000  N
  H480     1.0000 0.00349  0.30288  0.59460  Biso   1.000  H
  O59      1.0000 0.12650  0.33570  0.51382  Biso   1.000  O
  H481     1.0000 0.12232  0.34550  0.52470  Biso   1.000  H
  N58      1.0000 0.22375  0.46381  0.54491  Biso   1.000  N
  H482     1.0000 0.19712  0.40540  0.50349  Biso   1.000  H
  H483     1.0000 0.80991  0.48799  0.39532  Biso   1.000  H
  C390     1.0000 0.92601  0.46501  0.30859  Biso   1.000  C
  C391     1.0000 0.94448  0.38612  0.36700  Biso   1.000  C
  C392     1.0000 0.94452  0.38612  0.36700  Biso   1.000  C
  H484     1.0000 0.89532  0.30991  0.48799  Biso   1.000  H
  C393     1.0000 0.96501  0.30859  0.42601  Biso   1.000  C
  C394     1.0000 0.02752  0.51109  0.23054  Biso   1.000  C
  H485     1.0000 0.19013  0.51201  0.39532  Biso   1.000  H
  C395     1.0000 0.26946  0.52752  0.48891  Biso   1.000  C
  C396     1.0000 0.01113  0.23054  0.52752  Biso   1.000  C
  H486     1.0000 0.10468  0.30991  0.51201  Biso   1.000  H
  H487     1.0000 0.10472  0.30991  0.51201  Biso   1.000  H
  C397     1.0000 0.26946  0.47252  0.51109  Biso   1.000  C
  N59      1.0000 0.96381  0.45509  0.27629  Biso   1.000  N
  H488     1.0000 0.90540  0.49651  0.30288  Biso   1.000  H
  O60      1.0000 0.98622  0.37350  0.33570  Biso   1.000  O
  H489     1.0000 0.97530  0.37772  0.34550  Biso   1.000  H
  N60      1.0000 0.95509  0.27629  0.46381  Biso   1.000  N
  H490     1.0000 0.99651  0.30288  0.40540  Biso   1.000  H
  C398     1.0000 0.97248  0.48891  0.23054  Biso   1.000  C
  C399     1.0000 0.97252  0.48891  0.23054  Biso   1.000  C
  C400     1.0000 0.03740  0.54350  0.17980  Biso   1.000  C
  H491     1.0000 0.05371  0.48072  0.23178  Biso   1.000  H
  C401     1.0000 0.32020  0.53740  0.45650  Biso   1.000  C
  H492     1.0000 0.26822  0.55371  0.51932  Biso   1.000  H
  C402     1.0000 0.98891  0.23054  0.47252  Biso   1.000  C
  H493     1.0000 0.98072  0.23178  0.55371  Biso   1.000  H
  C403     1.0000 0.04350  0.17980  0.53740  Biso   1.000  C
  C404     1.0000 0.32020  0.46260  0.54350  Biso   1.000  C
  H494     1.0000 0.26822  0.44629  0.48072  Biso   1.000  H
  H495     1.0000 0.98799  0.39532  0.30991  Biso   1.000  H
  C405     1.0000 0.96260  0.45650  0.17980  Biso   1.000  C
  H496     1.0000 0.94629  0.51932  0.23178  Biso   1.000  H
  C406     1.0000 0.02780  0.50980  0.12951  Biso   1.000  C
  H497     1.0000 0.07492  0.55680  0.17980  Biso   1.000  H
  H498     1.0000 0.01322  0.57500  0.17940  Biso   1.000  H
  C407     1.0000 0.37049  0.52780  0.49020  Biso   1.000  C
  H499     1.0000 0.32020  0.57492  0.44320  Biso   1.000  H
  H500     1.0000 0.32060  0.51322  0.42500  Biso   1.000  H
  C408     1.0000 0.37053  0.52780  0.49020  Biso   1.000  C
  C409     1.0000 0.95650  0.17980  0.46260  Biso   1.000  C
  H501     1.0000 0.01928  0.23178  0.44629  Biso   1.000  H
  H502     1.0000 0.01932  0.23178  0.44629  Biso   1.000  H
  C410     1.0000 0.00980  0.12951  0.52780  Biso   1.000  C
  H503     1.0000 0.05680  0.17980  0.57492  Biso   1.000  H
  H504     1.0000 0.07500  0.17940  0.51322  Biso   1.000  H
  C411     1.0000 0.37049  0.47220  0.50980  Biso   1.000  C
  H505     1.0000 0.32020  0.42512  0.55680  Biso   1.000  H
  H506     1.0000 0.32060  0.48678  0.57500  Biso   1.000  H
  C412     1.0000 0.37053  0.47220  0.50980  Biso   1.000  C
  C413     1.0000 0.97220  0.49020  0.12951  Biso   1.000  C
  H507     1.0000 0.92508  0.44320  0.17980  Biso   1.000  H
  H508     1.0000 0.92512  0.44320  0.17980  Biso   1.000  H
  H509     1.0000 0.98682  0.42500  0.17940  Biso   1.000  H
  H510     1.0000 0.03431  0.53190  0.09709  Biso   1.000  H
  H511     1.0000 0.05290  0.47899  0.12891  Biso   1.000  H
  H512     1.0000 0.40291  0.53431  0.46810  Biso   1.000  H
  H513     1.0000 0.37109  0.55290  0.52101  Biso   1.000  H
  C414     1.0000 0.99020  0.12951  0.47220  Biso   1.000  C
  H514     1.0000 0.94320  0.17980  0.42512  Biso   1.000  H
  H515     1.0000 0.92500  0.17940  0.48678  Biso   1.000  H
  H516     1.0000 0.97899  0.12891  0.55290  Biso   1.000  H
  H517     1.0000 0.03190  0.09709  0.53431  Biso   1.000  H
  H518     1.0000 0.40291  0.46569  0.53190  Biso   1.000  H
  H519     1.0000 0.37109  0.44710  0.47899  Biso   1.000  H
  H520     1.0000 0.96569  0.46810  0.09709  Biso   1.000  H
  H521     1.0000 0.94710  0.52101  0.12891  Biso   1.000  H
  H522     1.0000 0.96810  0.09709  0.46569  Biso   1.000  H
  H523     1.0000 0.02101  0.12891  0.44710  Biso   1.000  H
  C415     1.0000 0.63300  0.94448  0.61392  Biso   1.000  C
  C416     1.0000 0.63300  0.94452  0.61392  Biso   1.000  C
  H524     1.0000 0.69009  0.98799  0.60472  Biso   1.000  H
  C417     1.0000 0.58809  0.93099  0.64562  Biso   1.000  C
  C418     1.0000 0.58809  0.93103  0.64562  Biso   1.000  C
  C419     1.0000 0.64562  0.91191  0.56901  Biso   1.000  C
  O61      1.0000 0.66430  0.98622  0.62650  Biso   1.000  O
  H525     1.0000 0.65450  0.97530  0.62232  Biso   1.000  H
  C420     1.0000 0.55552  0.88612  0.63300  Biso   1.000  C
  C421     1.0000 0.57399  0.96501  0.69141  Biso   1.000  C
  C422     1.0000 0.61392  0.86700  0.55552  Biso   1.000  C
  C423     1.0000 0.69141  0.92601  0.53499  Biso   1.000  C
  C424     1.0000 0.56901  0.85438  0.58809  Biso   1.000  C
  C425     1.0000 0.56901  0.85442  0.58809  Biso   1.000  C
  O62      1.0000 0.51382  0.87350  0.66430  Biso   1.000  O
  H526     1.0000 0.52470  0.87772  0.65450  Biso   1.000  H
  N61      1.0000 0.53619  0.95509  0.72375  Biso   1.000  N
  H527     1.0000 0.59460  0.99651  0.69712  Biso   1.000  H
  O63      1.0000 0.62650  0.83570  0.51382  Biso   1.000  O
  H528     1.0000 0.62232  0.84550  0.52470  Biso   1.000  H
  N62      1.0000 0.72375  0.96381  0.54491  Biso   1.000  N
  H529     1.0000 0.69712  0.90540  0.50349  Biso   1.000  H
  C426     1.0000 0.53499  0.80859  0.57399  Biso   1.000  C
  H530     1.0000 0.51201  0.89532  0.69009  Biso   1.000  H
  C427     1.0000 0.52752  0.98891  0.76946  Biso   1.000  C
  H531     1.0000 0.60472  0.80991  0.51201  Biso   1.000  H
  C428     1.0000 0.76946  0.97248  0.51109  Biso   1.000  C
  C429     1.0000 0.76946  0.97252  0.51109  Biso   1.000  C
  N63      1.0000 0.54491  0.77629  0.53619  Biso   1.000  N
  H532     1.0000 0.50349  0.80288  0.59460  Biso   1.000  H
  H533     1.0000 0.50349  0.80292  0.59460  Biso   1.000  H
  C430     1.0000 0.53740  0.95650  0.82020  Biso   1.000  C
  H534     1.0000 0.55371  0.01928  0.76822  Biso   1.000  H
  H535     1.0000 0.55371  0.01932  0.76822  Biso   1.000  H
  C431     1.0000 0.47252  0.01113  0.76946  Biso   1.000  C
  C432     1.0000 0.82020  0.96260  0.54350  Biso   1.000  C
  H536     1.0000 0.76822  0.94629  0.48072  Biso   1.000  H
  C433     1.0000 0.76946  0.02752  0.48891  Biso   1.000  C
  C434     1.0000 0.51109  0.73054  0.52752  Biso   1.000  C
  C435     1.0000 0.52780  0.99020  0.87049  Biso   1.000  C
  H537     1.0000 0.57492  0.94320  0.82020  Biso   1.000  H
  H538     1.0000 0.51322  0.92500  0.82060  Biso   1.000  H
  H539     1.0000 0.44629  0.98072  0.76822  Biso   1.000  H
  C436     1.0000 0.46260  0.04350  0.82020  Biso   1.000  C
  N64      1.0000 0.46381  0.04491  0.72375  Biso   1.000  N
  C437     1.0000 0.87049  0.97220  0.50980  Biso   1.000  C
  H540     1.0000 0.82020  0.92508  0.55680  Biso   1.000  H
  H541     1.0000 0.82020  0.92512  0.55680  Biso   1.000  H
  H542     1.0000 0.82060  0.98682  0.57500  Biso   1.000  H
  C438     1.0000 0.82020  0.03740  0.45650  Biso   1.000  C
  H543     1.0000 0.76822  0.05371  0.51932  Biso   1.000  H
  N65      1.0000 0.72375  0.03619  0.45509  Biso   1.000  N
  C439     1.0000 0.54350  0.67980  0.53740  Biso   1.000  C
  C440     1.0000 0.48891  0.73054  0.47252  Biso   1.000  C
  H544     1.0000 0.48072  0.73178  0.55371  Biso   1.000  H
  H545     1.0000 0.48072  0.73182  0.55371  Biso   1.000  H
  H546     1.0000 0.53431  0.96810  0.90291  Biso   1.000  H
  H547     1.0000 0.55290  0.02101  0.87109  Biso   1.000  H
  C441     1.0000 0.47220  0.00980  0.87049  Biso   1.000  C
  H548     1.0000 0.42512  0.05680  0.82020  Biso   1.000  H
  H549     1.0000 0.48678  0.07500  0.82060  Biso   1.000  H
  C442     1.0000 0.42601  0.03499  0.69141  Biso   1.000  C
  H550     1.0000 0.90291  0.96569  0.53190  Biso   1.000  H
  H551     1.0000 0.87109  0.94710  0.47899  Biso   1.000  H
  C443     1.0000 0.87049  0.02780  0.49020  Biso   1.000  C
  H552     1.0000 0.82020  0.07492  0.44320  Biso   1.000  H
  H553     1.0000 0.82060  0.01322  0.42500  Biso   1.000  H
  C444     1.0000 0.69141  0.07399  0.46501  Biso   1.000  C
  C445     1.0000 0.50980  0.62951  0.52780  Biso   1.000  C
  H554     1.0000 0.55680  0.67980  0.57492  Biso   1.000  H
  H555     1.0000 0.57500  0.67940  0.51322  Biso   1.000  H
  C446     1.0000 0.45650  0.67980  0.46260  Biso   1.000  C
  H556     1.0000 0.51932  0.73178  0.44629  Biso   1.000  H
  H557     1.0000 0.51932  0.73182  0.44629  Biso   1.000  H
  N66      1.0000 0.45509  0.77629  0.46381  Biso   1.000  N
  H558     1.0000 0.44710  0.97899  0.87109  Biso   1.000  H
  H559     1.0000 0.46569  0.03190  0.90291  Biso   1.000  H
  H560     1.0000 0.40540  0.00349  0.69712  Biso   1.000  H
  C447     1.0000 0.41191  0.06901  0.64562  Biso   1.000  C
  H561     1.0000 0.90291  0.03431  0.46810  Biso   1.000  H
  H562     1.0000 0.87109  0.05290  0.52101  Biso   1.000  H
  H563     1.0000 0.69712  0.09460  0.49651  Biso   1.000  H
  C448     1.0000 0.64562  0.08809  0.43099  Biso   1.000  C
  C449     1.0000 0.49020  0.62951  0.47220  Biso   1.000  C
  H564     1.0000 0.53190  0.59709  0.53431  Biso   1.000  H
  H565     1.0000 0.47899  0.62891  0.55290  Biso   1.000  H
  H566     1.0000 0.44320  0.67980  0.42512  Biso   1.000  H
  H567     1.0000 0.42500  0.67940  0.48678  Biso   1.000  H
  C450     1.0000 0.46501  0.80859  0.42601  Biso   1.000  C
  C451     1.0000 0.36700  0.05552  0.61392  Biso   1.000  C
  C452     1.0000 0.44448  0.11388  0.63300  Biso   1.000  C
  C453     1.0000 0.44448  0.11392  0.63300  Biso   1.000  C
  C454     1.0000 0.63300  0.05552  0.38612  Biso   1.000  C
  C455     1.0000 0.61392  0.13300  0.44448  Biso   1.000  C
  H568     1.0000 0.46810  0.59709  0.46569  Biso   1.000  H
  H569     1.0000 0.52101  0.62891  0.44710  Biso   1.000  H
  H570     1.0000 0.49651  0.80288  0.40540  Biso   1.000  H
  C456     1.0000 0.43099  0.85438  0.41191  Biso   1.000  C
  H571     1.0000 0.49651  0.80292  0.40540  Biso   1.000  H
  C457     1.0000 0.43099  0.85442  0.41191  Biso   1.000  C
  C458     1.0000 0.35442  0.08809  0.56901  Biso   1.000  C
  O64      1.0000 0.33570  0.01382  0.62650  Biso   1.000  O
  H572     1.0000 0.34550  0.02470  0.62232  Biso   1.000  H
  C459     1.0000 0.43099  0.14562  0.58809  Biso   1.000  C
  O65      1.0000 0.48622  0.12650  0.66430  Biso   1.000  O
  H573     1.0000 0.47530  0.12232  0.65450  Biso   1.000  H
  C460     1.0000 0.58809  0.06901  0.35442  Biso   1.000  C
  O66      1.0000 0.66430  0.01382  0.37350  Biso   1.000  O
  H574     1.0000 0.65450  0.02470  0.37772  Biso   1.000  H
  C461     1.0000 0.56901  0.14562  0.41191  Biso   1.000  C
  O67      1.0000 0.62650  0.16430  0.48622  Biso   1.000  O
  H575     1.0000 0.62232  0.15450  0.47530  Biso   1.000  H
  C462     1.0000 0.38612  0.86700  0.44448  Biso   1.000  C
  C463     1.0000 0.44448  0.88612  0.36700  Biso   1.000  C
  C464     1.0000 0.30859  0.07399  0.53499  Biso   1.000  C
  C465     1.0000 0.38612  0.13300  0.55552  Biso   1.000  C
  H576     1.0000 0.30991  0.01201  0.60472  Biso   1.000  H
  C466     1.0000 0.46501  0.19141  0.57399  Biso   1.000  C
  H577     1.0000 0.48799  0.10468  0.69009  Biso   1.000  H
  H578     1.0000 0.48799  0.10472  0.69009  Biso   1.000  H
  C467     1.0000 0.57399  0.03499  0.30859  Biso   1.000  C
  C468     1.0000 0.55552  0.11388  0.36700  Biso   1.000  C
  C469     1.0000 0.55552  0.11392  0.36700  Biso   1.000  C
  H579     1.0000 0.69009  0.01201  0.39532  Biso   1.000  H
  C470     1.0000 0.53499  0.19141  0.42601  Biso   1.000  C
  H580     1.0000 0.60472  0.19013  0.48799  Biso   1.000  H
  O68      1.0000 0.37350  0.83570  0.48622  Biso   1.000  O
  C471     1.0000 0.35442  0.91191  0.43099  Biso   1.000  C
  H581     1.0000 0.37772  0.84550  0.47530  Biso   1.000  H
  O69      1.0000 0.48622  0.87350  0.33570  Biso   1.000  O
  C472     1.0000 0.41191  0.93099  0.35442  Biso   1.000  C
  C473     1.0000 0.41191  0.93103  0.35442  Biso   1.000  C
  H582     1.0000 0.47530  0.87772  0.34550  Biso   1.000  H
  N67      1.0000 0.27629  0.03619  0.54491  Biso   1.000  N
  H583     1.0000 0.30288  0.09460  0.50349  Biso   1.000  H
  O70      1.0000 0.37350  0.16430  0.51382  Biso   1.000  O
  H584     1.0000 0.37772  0.15450  0.52470  Biso   1.000  H
  N68      1.0000 0.45509  0.22375  0.53619  Biso   1.000  N
  H585     1.0000 0.49651  0.19712  0.59460  Biso   1.000  H
  N69      1.0000 0.53619  0.04491  0.27629  Biso   1.000  N
  H586     1.0000 0.59460  0.00349  0.30288  Biso   1.000  H
  O71      1.0000 0.51382  0.12650  0.33570  Biso   1.000  O
  H587     1.0000 0.52470  0.12232  0.34550  Biso   1.000  H
  N70      1.0000 0.54491  0.22375  0.46381  Biso   1.000  N
  H588     1.0000 0.50349  0.19712  0.40540  Biso   1.000  H
  H589     1.0000 0.39532  0.80991  0.48799  Biso   1.000  H
  C474     1.0000 0.30859  0.92601  0.46501  Biso   1.000  C
  C475     1.0000 0.36700  0.94448  0.38612  Biso   1.000  C
  C476     1.0000 0.36700  0.94452  0.38612  Biso   1.000  C
  H590     1.0000 0.48799  0.89532  0.30991  Biso   1.000  H
  C477     1.0000 0.42601  0.96501  0.30859  Biso   1.000  C
  C478     1.0000 0.23054  0.02752  0.51109  Biso   1.000  C
  H591     1.0000 0.39532  0.19013  0.51201  Biso   1.000  H
  C479     1.0000 0.48891  0.26946  0.52752  Biso   1.000  C
  C480     1.0000 0.52752  0.01113  0.23054  Biso   1.000  C
  H592     1.0000 0.51201  0.10468  0.30991  Biso   1.000  H
  H593     1.0000 0.51201  0.10472  0.30991  Biso   1.000  H
  C481     1.0000 0.51109  0.26946  0.47252  Biso   1.000  C
  N71      1.0000 0.27629  0.96381  0.45509  Biso   1.000  N
  H594     1.0000 0.30288  0.90540  0.49651  Biso   1.000  H
  O72      1.0000 0.33570  0.98622  0.37350  Biso   1.000  O
  H595     1.0000 0.34550  0.97530  0.37772  Biso   1.000  H
  N72      1.0000 0.46381  0.95509  0.27629  Biso   1.000  N
  H596     1.0000 0.40540  0.99651  0.30288  Biso   1.000  H
  C482     1.0000 0.23054  0.97248  0.48891  Biso   1.000  C
  C483     1.0000 0.23054  0.97252  0.48891  Biso   1.000  C
  C484     1.0000 0.17980  0.03740  0.54350  Biso   1.000  C
  H597     1.0000 0.23178  0.05371  0.48072  Biso   1.000  H
  C485     1.0000 0.45650  0.32020  0.53740  Biso   1.000  C
  H598     1.0000 0.51932  0.26822  0.55371  Biso   1.000  H
  C486     1.0000 0.47252  0.98891  0.23054  Biso   1.000  C
  H599     1.0000 0.55371  0.98072  0.23178  Biso   1.000  H
  C487     1.0000 0.53740  0.04350  0.17980  Biso   1.000  C
  C488     1.0000 0.54350  0.32020  0.46260  Biso   1.000  C
  H600     1.0000 0.48072  0.26822  0.44629  Biso   1.000  H
  H601     1.0000 0.30991  0.98799  0.39532  Biso   1.000  H
  C489     1.0000 0.17980  0.96260  0.45650  Biso   1.000  C
  H602     1.0000 0.23178  0.94629  0.51932  Biso   1.000  H
  C490     1.0000 0.12951  0.02780  0.50980  Biso   1.000  C
  H603     1.0000 0.17980  0.07492  0.55680  Biso   1.000  H
  H604     1.0000 0.17940  0.01322  0.57500  Biso   1.000  H
  C491     1.0000 0.49020  0.37049  0.52780  Biso   1.000  C
  H605     1.0000 0.44320  0.32020  0.57492  Biso   1.000  H
  H606     1.0000 0.42500  0.32060  0.51322  Biso   1.000  H
  C492     1.0000 0.49020  0.37053  0.52780  Biso   1.000  C
  C493     1.0000 0.46260  0.95650  0.17980  Biso   1.000  C
  H607     1.0000 0.44629  0.01928  0.23178  Biso   1.000  H
  H608     1.0000 0.44629  0.01932  0.23178  Biso   1.000  H
  C494     1.0000 0.52780  0.00980  0.12951  Biso   1.000  C
  H609     1.0000 0.57492  0.05680  0.17980  Biso   1.000  H
  H610     1.0000 0.51322  0.07500  0.17940  Biso   1.000  H
  C495     1.0000 0.50980  0.37049  0.47220  Biso   1.000  C
  H611     1.0000 0.55680  0.32020  0.42512  Biso   1.000  H
  H612     1.0000 0.57500  0.32060  0.48678  Biso   1.000  H
  C496     1.0000 0.50980  0.37053  0.47220  Biso   1.000  C
  C497     1.0000 0.12951  0.97220  0.49020  Biso   1.000  C
  H613     1.0000 0.17980  0.92508  0.44320  Biso   1.000  H
  H614     1.0000 0.17980  0.92512  0.44320  Biso   1.000  H
  H615     1.0000 0.17940  0.98682  0.42500  Biso   1.000  H
  H616     1.0000 0.09709  0.03431  0.53190  Biso   1.000  H
  H617     1.0000 0.12891  0.05290  0.47899  Biso   1.000  H
  H618     1.0000 0.46810  0.40291  0.53431  Biso   1.000  H
  H619     1.0000 0.52101  0.37109  0.55290  Biso   1.000  H
  C498     1.0000 0.47220  0.99020  0.12951  Biso   1.000  C
  H620     1.0000 0.42512  0.94320  0.17980  Biso   1.000  H
  H621     1.0000 0.48678  0.92500  0.17940  Biso   1.000  H
  H622     1.0000 0.55290  0.97899  0.12891  Biso   1.000  H
  H623     1.0000 0.53431  0.03190  0.09709  Biso   1.000  H
  H624     1.0000 0.53190  0.40291  0.46569  Biso   1.000  H
  H625     1.0000 0.47899  0.37109  0.44710  Biso   1.000  H
  H626     1.0000 0.09709  0.96569  0.46810  Biso   1.000  H
  H627     1.0000 0.12891  0.94710  0.52101  Biso   1.000  H
  H628     1.0000 0.46569  0.96810  0.09709  Biso   1.000  H
  H629     1.0000 0.44710  0.02101  0.12891  Biso   1.000  H
  C499     1.0000 0.61392  0.63300  0.94448  Biso   1.000  C
  C500     1.0000 0.61392  0.63300  0.94452  Biso   1.000  C
  H630     1.0000 0.60472  0.69009  0.98799  Biso   1.000  H
  C501     1.0000 0.56901  0.64562  0.91191  Biso   1.000  C
  C502     1.0000 0.64562  0.58809  0.93099  Biso   1.000  C
  C503     1.0000 0.64562  0.58809  0.93103  Biso   1.000  C
  O73      1.0000 0.62650  0.66430  0.98622  Biso   1.000  O
  H631     1.0000 0.62232  0.65450  0.97530  Biso   1.000  H
  C504     1.0000 0.55552  0.61392  0.86700  Biso   1.000  C
  C505     1.0000 0.53499  0.69141  0.92601  Biso   1.000  C
  C506     1.0000 0.63300  0.55552  0.88612  Biso   1.000  C
  C507     1.0000 0.69141  0.57399  0.96501  Biso   1.000  C
  C508     1.0000 0.58809  0.56901  0.85438  Biso   1.000  C
  C509     1.0000 0.58809  0.56901  0.85442  Biso   1.000  C
  O74      1.0000 0.51382  0.62650  0.83570  Biso   1.000  O
  H632     1.0000 0.52470  0.62232  0.84550  Biso   1.000  H
  N73      1.0000 0.54491  0.72375  0.96381  Biso   1.000  N
  H633     1.0000 0.50349  0.69712  0.90540  Biso   1.000  H
  O75      1.0000 0.66430  0.51382  0.87350  Biso   1.000  O
  H634     1.0000 0.65450  0.52470  0.87772  Biso   1.000  H
  N74      1.0000 0.72375  0.53619  0.95509  Biso   1.000  N
  H635     1.0000 0.69712  0.59460  0.99651  Biso   1.000  H
  C510     1.0000 0.57399  0.53499  0.80859  Biso   1.000  C
  H636     1.0000 0.51201  0.60472  0.80991  Biso   1.000  H
  C511     1.0000 0.51109  0.76946  0.97248  Biso   1.000  C
  C512     1.0000 0.51109  0.76946  0.97252  Biso   1.000  C
  H637     1.0000 0.69009  0.51201  0.89532  Biso   1.000  H
  C513     1.0000 0.76946  0.52752  0.98891  Biso   1.000  C
  N75      1.0000 0.53619  0.54491  0.77629  Biso   1.000  N
  H638     1.0000 0.59460  0.50349  0.80288  Biso   1.000  H
  H639     1.0000 0.59460  0.50349  0.80292  Biso   1.000  H
  C514     1.0000 0.54350  0.82020  0.96260  Biso   1.000  C
  H640     1.0000 0.48072  0.76822  0.94629  Biso   1.000  H
  C515     1.0000 0.48891  0.76946  0.02752  Biso   1.000  C
  C516     1.0000 0.82020  0.53740  0.95650  Biso   1.000  C
  H641     1.0000 0.76822  0.55371  0.01928  Biso   1.000  H
  H642     1.0000 0.76822  0.55371  0.01932  Biso   1.000  H
  C517     1.0000 0.76946  0.47252  0.01113  Biso   1.000  C
  C518     1.0000 0.52752  0.51109  0.73054  Biso   1.000  C
  C519     1.0000 0.50980  0.87049  0.97220  Biso   1.000  C
  H643     1.0000 0.55680  0.82020  0.92508  Biso   1.000  H
  H644     1.0000 0.55680  0.82020  0.92512  Biso   1.000  H
  H645     1.0000 0.57500  0.82060  0.98682  Biso   1.000  H
  C520     1.0000 0.45650  0.82020  0.03740  Biso   1.000  C
  H646     1.0000 0.51932  0.76822  0.05371  Biso   1.000  H
  N76      1.0000 0.45509  0.72375  0.03619  Biso   1.000  N
  C521     1.0000 0.87049  0.52780  0.99020  Biso   1.000  C
  H647     1.0000 0.82020  0.57492  0.94320  Biso   1.000  H
  H648     1.0000 0.82060  0.51322  0.92500  Biso   1.000  H
  H649     1.0000 0.76822  0.44629  0.98072  Biso   1.000  H
  C522     1.0000 0.82020  0.46260  0.04350  Biso   1.000  C
  N77      1.0000 0.72375  0.46381  0.04491  Biso   1.000  N
  C523     1.0000 0.53740  0.54350  0.67980  Biso   1.000  C
  C524     1.0000 0.47252  0.48891  0.73054  Biso   1.000  C
  H650     1.0000 0.55371  0.48072  0.73178  Biso   1.000  H
  H651     1.0000 0.55371  0.48072  0.73182  Biso   1.000  H
  H652     1.0000 0.53190  0.90291  0.96569  Biso   1.000  H
  H653     1.0000 0.47899  0.87109  0.94710  Biso   1.000  H
  C525     1.0000 0.49020  0.87049  0.02780  Biso   1.000  C
  H654     1.0000 0.44320  0.82020  0.07492  Biso   1.000  H
  H655     1.0000 0.42500  0.82060  0.01322  Biso   1.000  H
  C526     1.0000 0.46501  0.69141  0.07399  Biso   1.000  C
  H656     1.0000 0.90291  0.53431  0.96810  Biso   1.000  H
  H657     1.0000 0.87109  0.55290  0.02101  Biso   1.000  H
  C527     1.0000 0.87049  0.47220  0.00980  Biso   1.000  C
  H658     1.0000 0.82020  0.42512  0.05680  Biso   1.000  H
  H659     1.0000 0.82060  0.48678  0.07500  Biso   1.000  H
  C528     1.0000 0.69141  0.42601  0.03499  Biso   1.000  C
  C529     1.0000 0.52780  0.50980  0.62951  Biso   1.000  C
  H660     1.0000 0.57492  0.55680  0.67980  Biso   1.000  H
  H661     1.0000 0.51322  0.57500  0.67940  Biso   1.000  H
  C530     1.0000 0.46260  0.45650  0.67980  Biso   1.000  C
  H662     1.0000 0.44629  0.51932  0.73178  Biso   1.000  H
  H663     1.0000 0.44629  0.51932  0.73182  Biso   1.000  H
  N78      1.0000 0.46381  0.45509  0.77629  Biso   1.000  N
  H664     1.0000 0.46810  0.90291  0.03431  Biso   1.000  H
  H665     1.0000 0.52101  0.87109  0.05290  Biso   1.000  H
  H666     1.0000 0.49651  0.69712  0.09460  Biso   1.000  H
  C531     1.0000 0.43099  0.64562  0.08809  Biso   1.000  C
  H667     1.0000 0.87109  0.44710  0.97899  Biso   1.000  H
  H668     1.0000 0.90291  0.46569  0.03190  Biso   1.000  H
  H669     1.0000 0.69712  0.40540  0.00349  Biso   1.000  H
  C532     1.0000 0.64562  0.41191  0.06901  Biso   1.000  C
  C533     1.0000 0.47220  0.49020  0.62951  Biso   1.000  C
  H670     1.0000 0.53431  0.53190  0.59709  Biso   1.000  H
  H671     1.0000 0.55290  0.47899  0.62891  Biso   1.000  H
  H672     1.0000 0.42512  0.44320  0.67980  Biso   1.000  H
  H673     1.0000 0.48678  0.42500  0.67940  Biso   1.000  H
  C534     1.0000 0.42601  0.46501  0.80859  Biso   1.000  C
  C535     1.0000 0.38612  0.63300  0.05552  Biso   1.000  C
  C536     1.0000 0.44448  0.61392  0.13300  Biso   1.000  C
  C537     1.0000 0.61392  0.36700  0.05552  Biso   1.000  C
  C538     1.0000 0.63300  0.44448  0.11388  Biso   1.000  C
  C539     1.0000 0.63300  0.44448  0.11392  Biso   1.000  C
  H674     1.0000 0.46569  0.46810  0.59709  Biso   1.000  H
  H675     1.0000 0.44710  0.52101  0.62891  Biso   1.000  H
  H676     1.0000 0.40540  0.49651  0.80288  Biso   1.000  H
  C540     1.0000 0.41191  0.43099  0.85438  Biso   1.000  C
  H677     1.0000 0.40540  0.49651  0.80292  Biso   1.000  H
  C541     1.0000 0.41191  0.43099  0.85442  Biso   1.000  C
  C542     1.0000 0.35442  0.58809  0.06901  Biso   1.000  C
  O76      1.0000 0.37350  0.66430  0.01382  Biso   1.000  O
  H678     1.0000 0.37772  0.65450  0.02470  Biso   1.000  H
  C543     1.0000 0.41191  0.56901  0.14562  Biso   1.000  C
  O77      1.0000 0.48622  0.62650  0.16430  Biso   1.000  O
  H679     1.0000 0.47530  0.62232  0.15450  Biso   1.000  H
  C544     1.0000 0.56901  0.35442  0.08809  Biso   1.000  C
  O78      1.0000 0.62650  0.33570  0.01382  Biso   1.000  O
  H680     1.0000 0.62232  0.34550  0.02470  Biso   1.000  H
  C545     1.0000 0.58809  0.43099  0.14562  Biso   1.000  C
  O79      1.0000 0.66430  0.48622  0.12650  Biso   1.000  O
  H681     1.0000 0.65450  0.47530  0.12232  Biso   1.000  H
  C546     1.0000 0.44448  0.38612  0.86700  Biso   1.000  C
  C547     1.0000 0.36700  0.44448  0.88612  Biso   1.000  C
  C548     1.0000 0.30859  0.57399  0.03499  Biso   1.000  C
  C549     1.0000 0.36700  0.55552  0.11388  Biso   1.000  C
  C550     1.0000 0.36700  0.55552  0.11392  Biso   1.000  C
  H682     1.0000 0.39532  0.69009  0.01201  Biso   1.000  H
  C551     1.0000 0.42601  0.53499  0.19141  Biso   1.000  C
  H683     1.0000 0.48799  0.60472  0.19013  Biso   1.000  H
  C552     1.0000 0.53499  0.30859  0.07399  Biso   1.000  C
  C553     1.0000 0.55552  0.38612  0.13300  Biso   1.000  C
  H684     1.0000 0.60472  0.30991  0.01201  Biso   1.000  H
  C554     1.0000 0.57399  0.46501  0.19141  Biso   1.000  C
  H685     1.0000 0.69009  0.48799  0.10468  Biso   1.000  H
  H686     1.0000 0.69009  0.48799  0.10472  Biso   1.000  H
  O80      1.0000 0.48622  0.37350  0.83570  Biso   1.000  O
  C555     1.0000 0.43099  0.35442  0.91191  Biso   1.000  C
  H687     1.0000 0.47530  0.37772  0.84550  Biso   1.000  H
  O81      1.0000 0.33570  0.48622  0.87350  Biso   1.000  O
  C556     1.0000 0.35442  0.41191  0.93099  Biso   1.000  C
  C557     1.0000 0.35442  0.41191  0.93103  Biso   1.000  C
  H688     1.0000 0.34550  0.47530  0.87772  Biso   1.000  H
  N79      1.0000 0.27629  0.53619  0.04491  Biso   1.000  N
  H689     1.0000 0.30288  0.59460  0.00349  Biso   1.000  H
  O82      1.0000 0.33570  0.51382  0.12650  Biso   1.000  O
  H690     1.0000 0.34550  0.52470  0.12232  Biso   1.000  H
  N80      1.0000 0.46381  0.54491  0.22375  Biso   1.000  N
  H691     1.0000 0.40540  0.50349  0.19712  Biso   1.000  H
  N81      1.0000 0.54491  0.27629  0.03619  Biso   1.000  N
  H692     1.0000 0.50349  0.30288  0.09460  Biso   1.000  H
  O83      1.0000 0.51382  0.37350  0.16430  Biso   1.000  O
  H693     1.0000 0.52470  0.37772  0.15450  Biso   1.000  H
  N82      1.0000 0.53619  0.45509  0.22375  Biso   1.000  N
  H694     1.0000 0.59460  0.49651  0.19712  Biso   1.000  H
  H695     1.0000 0.48799  0.39532  0.80991  Biso   1.000  H
  C558     1.0000 0.46501  0.30859  0.92601  Biso   1.000  C
  C559     1.0000 0.38612  0.36700  0.94448  Biso   1.000  C
  C560     1.0000 0.38612  0.36700  0.94452  Biso   1.000  C
  H696     1.0000 0.30991  0.48799  0.89532  Biso   1.000  H
  C561     1.0000 0.30859  0.42601  0.96501  Biso   1.000  C
  C562     1.0000 0.23054  0.52752  0.01113  Biso   1.000  C
  H697     1.0000 0.30991  0.51201  0.10468  Biso   1.000  H
  H698     1.0000 0.30991  0.51201  0.10472  Biso   1.000  H
  C563     1.0000 0.47252  0.51109  0.26946  Biso   1.000  C
  C564     1.0000 0.51109  0.23054  0.02752  Biso   1.000  C
  H699     1.0000 0.51201  0.39532  0.19013  Biso   1.000  H
  C565     1.0000 0.52752  0.48891  0.26946  Biso   1.000  C
  N83      1.0000 0.45509  0.27629  0.96381  Biso   1.000  N
  H700     1.0000 0.49651  0.30288  0.90540  Biso   1.000  H
  O84      1.0000 0.37350  0.33570  0.98622  Biso   1.000  O
  H701     1.0000 0.37772  0.34550  0.97530  Biso   1.000  H
  N84      1.0000 0.27629  0.46381  0.95509  Biso   1.000  N
  H702     1.0000 0.30288  0.40540  0.99651  Biso   1.000  H
  C566     1.0000 0.23054  0.47252  0.98891  Biso   1.000  C
  H703     1.0000 0.23178  0.55371  0.98072  Biso   1.000  H
  C567     1.0000 0.17980  0.53740  0.04350  Biso   1.000  C
  C568     1.0000 0.46260  0.54350  0.32020  Biso   1.000  C
  H704     1.0000 0.44629  0.48072  0.26822  Biso   1.000  H
  C569     1.0000 0.48891  0.23054  0.97248  Biso   1.000  C
  C570     1.0000 0.48891  0.23054  0.97252  Biso   1.000  C
  C571     1.0000 0.54350  0.17980  0.03740  Biso   1.000  C
  H705     1.0000 0.48072  0.23178  0.05371  Biso   1.000  H
  C572     1.0000 0.53740  0.45650  0.32020  Biso   1.000  C
  H706     1.0000 0.55371  0.51932  0.26822  Biso   1.000  H
  H707     1.0000 0.39532  0.30991  0.98799  Biso   1.000  H
  C573     1.0000 0.17980  0.46260  0.95650  Biso   1.000  C
  H708     1.0000 0.23178  0.44629  0.01928  Biso   1.000  H
  H709     1.0000 0.23178  0.44629  0.01932  Biso   1.000  H
  C574     1.0000 0.12951  0.52780  0.00980  Biso   1.000  C
  H710     1.0000 0.17980  0.57492  0.05680  Biso   1.000  H
  H711     1.0000 0.17940  0.51322  0.07500  Biso   1.000  H
  C575     1.0000 0.47220  0.50980  0.37049  Biso   1.000  C
  H712     1.0000 0.42512  0.55680  0.32020  Biso   1.000  H
  H713     1.0000 0.48678  0.57500  0.32060  Biso   1.000  H
  C576     1.0000 0.47220  0.50980  0.37053  Biso   1.000  C
  C577     1.0000 0.45650  0.17980  0.96260  Biso   1.000  C
  H714     1.0000 0.51932  0.23178  0.94629  Biso   1.000  H
  C578     1.0000 0.50980  0.12951  0.02780  Biso   1.000  C
  H715     1.0000 0.55680  0.17980  0.07492  Biso   1.000  H
  H716     1.0000 0.57500  0.17940  0.01322  Biso   1.000  H
  C579     1.0000 0.52780  0.49020  0.37049  Biso   1.000  C
  H717     1.0000 0.57492  0.44320  0.32020  Biso   1.000  H
  H718     1.0000 0.51322  0.42500  0.32060  Biso   1.000  H
  C580     1.0000 0.52780  0.49020  0.37053  Biso   1.000  C
  C581     1.0000 0.12951  0.47220  0.99020  Biso   1.000  C
  H719     1.0000 0.17980  0.42512  0.94320  Biso   1.000  H
  H720     1.0000 0.17940  0.48678  0.92500  Biso   1.000  H
  H721     1.0000 0.12891  0.55290  0.97899  Biso   1.000  H
  H722     1.0000 0.09709  0.53431  0.03190  Biso   1.000  H
  H723     1.0000 0.46569  0.53190  0.40291  Biso   1.000  H
  H724     1.0000 0.44710  0.47899  0.37109  Biso   1.000  H
  C582     1.0000 0.49020  0.12951  0.97220  Biso   1.000  C
  H725     1.0000 0.44320  0.17980  0.92508  Biso   1.000  H
  H726     1.0000 0.44320  0.17980  0.92512  Biso   1.000  H
  H727     1.0000 0.42500  0.17940  0.98682  Biso   1.000  H
  H728     1.0000 0.53190  0.09709  0.03431  Biso   1.000  H
  H729     1.0000 0.47899  0.12891  0.05290  Biso   1.000  H
  H730     1.0000 0.53431  0.46810  0.40291  Biso   1.000  H
  H731     1.0000 0.55290  0.52101  0.37109  Biso   1.000  H
  H732     1.0000 0.09709  0.46569  0.96810  Biso   1.000  H
  H733     1.0000 0.12891  0.44710  0.02101  Biso   1.000  H
  H734     1.0000 0.46810  0.09709  0.96569  Biso   1.000  H
  H735     1.0000 0.52101  0.12891  0.94710  Biso   1.000  H
  C583     1.0000 0.57022  0.29348  0.28742  Biso   1.000  C
  C584     1.0000 0.51944  0.26111  0.27750  Biso   1.000  C
  C585     1.0000 0.62051  0.25982  0.27782  Biso   1.000  C
  H736     1.0000 0.57022  0.30682  0.32490  Biso   1.000  H
  H737     1.0000 0.57062  0.32502  0.26320  Biso   1.000  H
  C586     1.0000 0.51944  0.23889  0.22250  Biso   1.000  C
  H738     1.0000 0.51820  0.23070  0.30369  Biso   1.000  H
  N85      1.0000 0.47373  0.29489  0.28621  Biso   1.000  N
  C587     1.0000 0.62051  0.24022  0.22218  Biso   1.000  C
  H739     1.0000 0.65289  0.28192  0.28429  Biso   1.000  H
  H740     1.0000 0.62111  0.22901  0.30288  Biso   1.000  H
  N86      1.0000 0.47373  0.20511  0.21379  Biso   1.000  N
  C588     1.0000 0.57022  0.20652  0.21262  Biso   1.000  C
  H741     1.0000 0.51820  0.26930  0.19631  Biso   1.000  H
  C589     1.0000 0.44139  0.28501  0.32401  Biso   1.000  C
  H742     1.0000 0.65289  0.21808  0.21571  Biso   1.000  H
  H743     1.0000 0.62111  0.27099  0.19712  Biso   1.000  H
  C590     1.0000 0.44139  0.21499  0.17599  Biso   1.000  C
  H744     1.0000 0.57022  0.19322  0.17510  Biso   1.000  H
  H745     1.0000 0.57062  0.17498  0.23680  Biso   1.000  H
  H746     1.0000 0.44710  0.25351  0.34462  Biso   1.000  H
  C591     1.0000 0.39560  0.31899  0.33811  Biso   1.000  C
  C592     1.0000 0.39560  0.18101  0.16189  Biso   1.000  C
  H747     1.0000 0.44710  0.24649  0.15542  Biso   1.000  H
  C593     1.0000 0.36390  0.30550  0.38298  Biso   1.000  C
  C594     1.0000 0.38298  0.36390  0.30550  Biso   1.000  C
  C595     1.0000 0.38298  0.13610  0.19450  Biso   1.000  C
  C596     1.0000 0.36390  0.19450  0.11702  Biso   1.000  C
  C597     1.0000 0.31899  0.33811  0.39560  Biso   1.000  C
  O85      1.0000 0.37652  0.26380  0.41432  Biso   1.000  O
  H748     1.0000 0.37230  0.27468  0.40452  Biso   1.000  H
  C598     1.0000 0.33811  0.39560  0.31899  Biso   1.000  C
  O86      1.0000 0.41432  0.37652  0.26380  Biso   1.000  O
  H749     1.0000 0.40452  0.37230  0.27468  Biso   1.000  H
  O87      1.0000 0.41432  0.12348  0.23620  Biso   1.000  O
  C599     1.0000 0.33811  0.10440  0.18101  Biso   1.000  C
  H750     1.0000 0.40452  0.12770  0.22532  Biso   1.000  H
  C600     1.0000 0.31899  0.16189  0.10440  Biso   1.000  C
  O88      1.0000 0.37652  0.23620  0.08568  Biso   1.000  O
  H751     1.0000 0.37230  0.22532  0.09548  Biso   1.000  H
  C601     1.0000 0.28501  0.32401  0.44139  Biso   1.000  C
  C602     1.0000 0.30550  0.38298  0.36390  Biso   1.000  C
  H752     1.0000 0.35470  0.26199  0.44011  Biso   1.000  H
  C603     1.0000 0.32401  0.44139  0.28501  Biso   1.000  C
  H753     1.0000 0.44011  0.35470  0.26199  Biso   1.000  H
  H754     1.0000 0.44011  0.14530  0.23801  Biso   1.000  H
  C604     1.0000 0.32401  0.05861  0.21499  Biso   1.000  C
  C605     1.0000 0.30550  0.11702  0.13610  Biso   1.000  C
  C606     1.0000 0.28501  0.17599  0.05861  Biso   1.000  C
  H755     1.0000 0.35470  0.23801  0.05989  Biso   1.000  H
  N87      1.0000 0.29489  0.28621  0.47373  Biso   1.000  N
  H756     1.0000 0.25351  0.34462  0.44710  Biso   1.000  H
  O89      1.0000 0.26380  0.41432  0.37652  Biso   1.000  O
  H757     1.0000 0.27468  0.40452  0.37230  Biso   1.000  H
  N88      1.0000 0.28621  0.47373  0.29489  Biso   1.000  N
  H758     1.0000 0.34462  0.44710  0.25351  Biso   1.000  H
  N89      1.0000 0.28621  0.02627  0.20511  Biso   1.000  N
  H759     1.0000 0.34462  0.05290  0.24649  Biso   1.000  H
  O90      1.0000 0.26380  0.08568  0.12348  Biso   1.000  O
  H760     1.0000 0.27468  0.09548  0.12770  Biso   1.000  H
  N90      1.0000 0.29489  0.21379  0.02627  Biso   1.000  N
  H761     1.0000 0.25351  0.15542  0.05290  Biso   1.000  H
  C607     1.0000 0.26111  0.27750  0.51944  Biso   1.000  C
  H762     1.0000 0.26199  0.44011  0.35470  Biso   1.000  H
  C608     1.0000 0.27750  0.51944  0.26111  Biso   1.000  C
  C609     1.0000 0.27750  0.98056  0.23889  Biso   1.000  C
  H763     1.0000 0.26199  0.05989  0.14530  Biso   1.000  H
  C610     1.0000 0.26111  0.22250  0.98056  Biso   1.000  C
  C611     1.0000 0.29348  0.28742  0.57022  Biso   1.000  C
  H764     1.0000 0.23070  0.30369  0.51820  Biso   1.000  H
  C612     1.0000 0.23889  0.22250  0.51944  Biso   1.000  C
  C613     1.0000 0.28742  0.57022  0.29348  Biso   1.000  C
  H765     1.0000 0.30369  0.51820  0.23070  Biso   1.000  H
  C614     1.0000 0.22250  0.51944  0.23889  Biso   1.000  C
  C615     1.0000 0.28742  0.92978  0.20652  Biso   1.000  C
  H766     1.0000 0.30369  0.98180  0.26930  Biso   1.000  H
  C616     1.0000 0.22250  0.98056  0.26111  Biso   1.000  C
  C617     1.0000 0.29348  0.21262  0.92978  Biso   1.000  C
  H767     1.0000 0.23070  0.19631  0.98180  Biso   1.000  H
  C618     1.0000 0.23889  0.27750  0.98056  Biso   1.000  C
  C619     1.0000 0.25982  0.27782  0.62051  Biso   1.000  C
  H768     1.0000 0.30682  0.32490  0.57022  Biso   1.000  H
  H769     1.0000 0.32502  0.26320  0.57062  Biso   1.000  H
  N91      1.0000 0.20511  0.21379  0.47373  Biso   1.000  N
  C620     1.0000 0.20652  0.21262  0.57022  Biso   1.000  C
  H770     1.0000 0.26930  0.19631  0.51820  Biso   1.000  H
  C621     1.0000 0.27782  0.62051  0.25982  Biso   1.000  C
  H771     1.0000 0.32490  0.57022  0.30682  Biso   1.000  H
  H772     1.0000 0.26320  0.57062  0.32502  Biso   1.000  H
  N92      1.0000 0.21379  0.47373  0.20511  Biso   1.000  N
  C622     1.0000 0.21262  0.57022  0.20652  Biso   1.000  C
  H773     1.0000 0.19631  0.51820  0.26930  Biso   1.000  H
  C623     1.0000 0.27782  0.87949  0.24022  Biso   1.000  C
  H774     1.0000 0.32490  0.92978  0.19322  Biso   1.000  H
  H775     1.0000 0.26320  0.92938  0.17498  Biso   1.000  H
  N93      1.0000 0.21379  0.02627  0.29489  Biso   1.000  N
  C624     1.0000 0.21262  0.92978  0.29348  Biso   1.000  C
  H776     1.0000 0.19631  0.98180  0.23070  Biso   1.000  H
  C625     1.0000 0.25982  0.22218  0.87949  Biso   1.000  C
  H777     1.0000 0.30682  0.17510  0.92978  Biso   1.000  H
  H778     1.0000 0.32502  0.23680  0.92938  Biso   1.000  H
  N94      1.0000 0.20511  0.28621  0.02627  Biso   1.000  N
  C626     1.0000 0.20652  0.28742  0.92978  Biso   1.000  C
  H779     1.0000 0.26930  0.30369  0.98180  Biso   1.000  H
  H780     1.0000 0.28192  0.28429  0.65289  Biso   1.000  H
  H781     1.0000 0.22901  0.30288  0.62111  Biso   1.000  H
  C627     1.0000 0.24022  0.22218  0.62051  Biso   1.000  C
  C628     1.0000 0.21499  0.17599  0.44139  Biso   1.000  C
  H782     1.0000 0.19322  0.17510  0.57022  Biso   1.000  H
  H783     1.0000 0.17498  0.23680  0.57062  Biso   1.000  H
  H784     1.0000 0.28429  0.65289  0.28192  Biso   1.000  H
  H785     1.0000 0.30288  0.62111  0.22901  Biso   1.000  H
  C629     1.0000 0.22218  0.62051  0.24022  Biso   1.000  C
  C630     1.0000 0.17599  0.44139  0.21499  Biso   1.000  C
  H786     1.0000 0.17510  0.57022  0.19322  Biso   1.000  H
  H787     1.0000 0.23680  0.57062  0.17498  Biso   1.000  H
  H788     1.0000 0.28429  0.84711  0.21808  Biso   1.000  H
  H789     1.0000 0.30288  0.87889  0.27099  Biso   1.000  H
  C631     1.0000 0.22218  0.87949  0.25982  Biso   1.000  C
  C632     1.0000 0.17599  0.05861  0.28501  Biso   1.000  C
  H790     1.0000 0.17510  0.92978  0.30682  Biso   1.000  H
  H791     1.0000 0.23680  0.92938  0.32502  Biso   1.000  H
  H792     1.0000 0.28192  0.21571  0.84711  Biso   1.000  H
  H793     1.0000 0.22901  0.19712  0.87889  Biso   1.000  H
  C633     1.0000 0.24022  0.27782  0.87949  Biso   1.000  C
  C634     1.0000 0.21499  0.32401  0.05861  Biso   1.000  C
  H794     1.0000 0.19322  0.32490  0.92978  Biso   1.000  H
  H795     1.0000 0.17498  0.26320  0.92938  Biso   1.000  H
  H796     1.0000 0.21808  0.21571  0.65289  Biso   1.000  H
  H797     1.0000 0.27099  0.19712  0.62111  Biso   1.000  H
  C635     1.0000 0.18101  0.16189  0.39560  Biso   1.000  C
  H798     1.0000 0.24649  0.15542  0.44710  Biso   1.000  H
  H799     1.0000 0.21571  0.65289  0.21808  Biso   1.000  H
  H800     1.0000 0.19712  0.62111  0.27099  Biso   1.000  H
  C636     1.0000 0.16189  0.39560  0.18101  Biso   1.000  C
  H801     1.0000 0.15542  0.44710  0.24649  Biso   1.000  H
  H802     1.0000 0.21571  0.84711  0.28192  Biso   1.000  H
  H803     1.0000 0.19712  0.87889  0.22901  Biso   1.000  H
  H804     1.0000 0.15542  0.05290  0.25351  Biso   1.000  H
  C637     1.0000 0.16189  0.10440  0.31899  Biso   1.000  C
  H805     1.0000 0.21808  0.28429  0.84711  Biso   1.000  H
  H806     1.0000 0.27099  0.30288  0.87889  Biso   1.000  H
  H807     1.0000 0.24649  0.34462  0.05290  Biso   1.000  H
  C638     1.0000 0.18101  0.33811  0.10440  Biso   1.000  C
  C639     1.0000 0.19450  0.11702  0.36390  Biso   1.000  C
  C640     1.0000 0.13610  0.19450  0.38298  Biso   1.000  C
  C641     1.0000 0.19450  0.38298  0.13610  Biso   1.000  C
  C642     1.0000 0.11702  0.36390  0.19450  Biso   1.000  C
  C643     1.0000 0.11702  0.13610  0.30550  Biso   1.000  C
  C644     1.0000 0.13610  0.30550  0.11702  Biso   1.000  C
  O91      1.0000 0.23620  0.08568  0.37652  Biso   1.000  O
  H808     1.0000 0.22532  0.09548  0.37230  Biso   1.000  H
  C645     1.0000 0.10440  0.18101  0.33811  Biso   1.000  C
  O92      1.0000 0.12348  0.23620  0.41432  Biso   1.000  O
  H809     1.0000 0.12770  0.22532  0.40452  Biso   1.000  H
  O93      1.0000 0.23620  0.41432  0.12348  Biso   1.000  O
  H810     1.0000 0.22532  0.40452  0.12770  Biso   1.000  H
  C646     1.0000 0.10440  0.31899  0.16189  Biso   1.000  C
  O94      1.0000 0.08568  0.37652  0.23620  Biso   1.000  O
  H811     1.0000 0.09548  0.37230  0.22532  Biso   1.000  H
  O95      1.0000 0.08568  0.12348  0.26380  Biso   1.000  O
  H812     1.0000 0.09548  0.12770  0.27468  Biso   1.000  H
  O96      1.0000 0.12348  0.26380  0.08568  Biso   1.000  O
  H813     1.0000 0.12770  0.27468  0.09548  Biso   1.000  H
  H814     1.0000 0.23801  0.05989  0.35470  Biso   1.000  H
  C647     1.0000 0.05861  0.21499  0.32401  Biso   1.000  C
  H815     1.0000 0.14530  0.23801  0.44011  Biso   1.000  H
  H816     1.0000 0.23801  0.44011  0.14530  Biso   1.000  H
  C648     1.0000 0.05861  0.28501  0.17599  Biso   1.000  C
  H817     1.0000 0.05989  0.35470  0.23801  Biso   1.000  H
  H818     1.0000 0.05989  0.14530  0.26199  Biso   1.000  H
  H819     1.0000 0.14530  0.26199  0.05989  Biso   1.000  H
  N95      1.0000 0.02627  0.20511  0.28621  Biso   1.000  N
  H820     1.0000 0.05290  0.24649  0.34462  Biso   1.000  H
  N96      1.0000 0.02627  0.29489  0.21379  Biso   1.000  N
  H821     1.0000 0.05290  0.25351  0.15542  Biso   1.000  H
  C649     1.0000 0.98056  0.23889  0.27750  Biso   1.000  C
  C650     1.0000 0.98056  0.26111  0.22250  Biso   1.000  C
  C651     1.0000 0.92978  0.20652  0.28742  Biso   1.000  C
  H822     1.0000 0.98180  0.26930  0.30369  Biso   1.000  H
  C652     1.0000 0.92978  0.29348  0.21262  Biso   1.000  C
  H823     1.0000 0.98180  0.23070  0.19631  Biso   1.000  H
  C653     1.0000 0.87949  0.24022  0.27782  Biso   1.000  C
  H824     1.0000 0.92978  0.19322  0.32490  Biso   1.000  H
  H825     1.0000 0.92938  0.17498  0.26320  Biso   1.000  H
  C654     1.0000 0.87949  0.25982  0.22218  Biso   1.000  C
  H826     1.0000 0.92978  0.30682  0.17510  Biso   1.000  H
  H827     1.0000 0.92938  0.32502  0.23680  Biso   1.000  H
  H828     1.0000 0.84711  0.21808  0.28429  Biso   1.000  H
  H829     1.0000 0.87889  0.27099  0.30288  Biso   1.000  H
  H830     1.0000 0.84711  0.28192  0.21571  Biso   1.000  H
  H831     1.0000 0.87889  0.22901  0.19712  Biso   1.000  H
