data_image0
_cell_length_a       24.894
_cell_length_b       24.894
_cell_length_c       24.894
_cell_angle_alpha    90
_cell_angle_beta     90
_cell_angle_gamma    90

_symmetry_space_group_name_H-M    "P 1"
_symmetry_int_tables_number       1

loop_
  _symmetry_equiv_pos_as_xyz
  'x, y, z'

loop_
  _atom_site_label
  _atom_site_occupancy
  _atom_site_fract_x
  _atom_site_fract_y
  _atom_site_fract_z
  _atom_site_thermal_displace_type
  _atom_site_B_iso_or_equiv
  _atom_site_type_symbol
  C1       1.0000 0.93099  0.85438  0.91191  Biso   1.000  C
  C2       1.0000 0.94448  0.88612  0.86700  Biso   1.000  C
  C3       1.0000 0.94452  0.88612  0.86700  Biso   1.000  C
  C4       1.0000 0.96501  0.80859  0.92601  Biso   1.000  C
  C5       1.0000 0.88612  0.86700  0.94448  Biso   1.000  C
  C6       1.0000 0.88612  0.86700  0.94452  Biso   1.000  C
  C7       1.0000 0.91191  0.93099  0.85438  Biso   1.000  C
  C8       1.0000 0.91191  0.93099  0.85442  Biso   1.000  C
  C9       1.0000 0.91191  0.93103  0.85438  Biso   1.000  C
  C10      1.0000 0.91191  0.93103  0.85442  Biso   1.000  C
  O1       1.0000 0.98618  0.87350  0.83570  Biso   1.000  O
  C11      1.0000 0.93099  0.85442  0.91191  Biso   1.000  C
  O2       1.0000 0.98622  0.87350  0.83570  Biso   1.000  O
  C12      1.0000 0.93103  0.85438  0.91191  Biso   1.000  C
  C13      1.0000 0.93103  0.85442  0.91191  Biso   1.000  C
  H1       1.0000 0.97530  0.87772  0.84550  Biso   1.000  H
  N1       1.0000 0.95509  0.77625  0.96381  Biso   1.000  N
  H2       1.0000 0.99651  0.80288  0.90540  Biso   1.000  H
  N2       1.0000 0.95509  0.77629  0.96381  Biso   1.000  N
  H3       1.0000 0.99651  0.80292  0.90540  Biso   1.000  H
  C14      1.0000 0.85438  0.91191  0.93099  Biso   1.000  C
  C15      1.0000 0.85438  0.91191  0.93103  Biso   1.000  C
  C16      1.0000 0.85442  0.91191  0.93099  Biso   1.000  C
  C17      1.0000 0.85442  0.91191  0.93103  Biso   1.000  C
  O3       1.0000 0.87350  0.83570  0.98618  Biso   1.000  O
  O4       1.0000 0.87350  0.83570  0.98622  Biso   1.000  O
  H4       1.0000 0.87772  0.84550  0.97530  Biso   1.000  H
  C18      1.0000 0.92601  0.96501  0.80859  Biso   1.000  C
  C19      1.0000 0.86700  0.94448  0.88612  Biso   1.000  C
  C20      1.0000 0.86700  0.94452  0.88612  Biso   1.000  C
  H5       1.0000 0.98799  0.89532  0.80991  Biso   1.000  H
  C21      1.0000 0.98891  0.73054  0.97248  Biso   1.000  C
  C22      1.0000 0.98891  0.73054  0.97252  Biso   1.000  C
  C23      1.0000 0.80859  0.92601  0.96501  Biso   1.000  C
  H6       1.0000 0.89532  0.80991  0.98799  Biso   1.000  H
  N3       1.0000 0.96381  0.95509  0.77625  Biso   1.000  N
  N4       1.0000 0.96381  0.95509  0.77629  Biso   1.000  N
  H7       1.0000 0.90540  0.99651  0.80288  Biso   1.000  H
  H8       1.0000 0.90540  0.99651  0.80292  Biso   1.000  H
  O5       1.0000 0.83570  0.98618  0.87350  Biso   1.000  O
  O6       1.0000 0.83570  0.98622  0.87350  Biso   1.000  O
  H9       1.0000 0.84550  0.97530  0.87772  Biso   1.000  H
  C24      1.0000 0.95650  0.67980  0.96260  Biso   1.000  C
  H10      1.0000 0.01928  0.73178  0.94629  Biso   1.000  H
  H11      1.0000 0.01928  0.73182  0.94629  Biso   1.000  H
  H12      1.0000 0.01932  0.73178  0.94629  Biso   1.000  H
  H13      1.0000 0.01932  0.73182  0.94629  Biso   1.000  H
  C25      1.0000 0.01109  0.73054  0.02752  Biso   1.000  C
  C26      1.0000 0.01113  0.73054  0.02752  Biso   1.000  C
  N5       1.0000 0.77625  0.96381  0.95509  Biso   1.000  N
  H14      1.0000 0.80288  0.90540  0.99651  Biso   1.000  H
  N6       1.0000 0.77629  0.96381  0.95509  Biso   1.000  N
  H15      1.0000 0.80292  0.90540  0.99651  Biso   1.000  H
  C27      1.0000 0.97248  0.98891  0.73054  Biso   1.000  C
  C28      1.0000 0.97252  0.98891  0.73054  Biso   1.000  C
  H16      1.0000 0.80991  0.98799  0.89532  Biso   1.000  H
  C29      1.0000 0.99020  0.62951  0.97220  Biso   1.000  C
  H17      1.0000 0.94320  0.67980  0.92508  Biso   1.000  H
  H18      1.0000 0.92500  0.67940  0.98678  Biso   1.000  H
  H19      1.0000 0.94320  0.67980  0.92512  Biso   1.000  H
  H20      1.0000 0.92500  0.67940  0.98682  Biso   1.000  H
  H21      1.0000 0.98072  0.73178  0.05371  Biso   1.000  H
  H22      1.0000 0.98072  0.73182  0.05371  Biso   1.000  H
  C30      1.0000 0.04350  0.67980  0.03740  Biso   1.000  C
  N7       1.0000 0.04491  0.77625  0.03619  Biso   1.000  N
  N8       1.0000 0.04491  0.77629  0.03619  Biso   1.000  N
  C31      1.0000 0.73054  0.97248  0.98891  Biso   1.000  C
  C32      1.0000 0.73054  0.97252  0.98891  Biso   1.000  C
  C33      1.0000 0.96260  0.95650  0.67980  Biso   1.000  C
  H23      1.0000 0.94629  0.01928  0.73178  Biso   1.000  H
  H24      1.0000 0.94629  0.01928  0.73182  Biso   1.000  H
  H25      1.0000 0.94629  0.01932  0.73178  Biso   1.000  H
  H26      1.0000 0.94629  0.01932  0.73182  Biso   1.000  H
  C34      1.0000 0.02752  0.01109  0.73054  Biso   1.000  C
  C35      1.0000 0.02752  0.01113  0.73054  Biso   1.000  C
  H27      1.0000 0.96810  0.59709  0.96569  Biso   1.000  H
  H28      1.0000 0.02101  0.62891  0.94710  Biso   1.000  H
  C36      1.0000 0.00980  0.62951  0.02780  Biso   1.000  C
  H29      1.0000 0.05680  0.67980  0.07492  Biso   1.000  H
  H30      1.0000 0.07500  0.67940  0.01322  Biso   1.000  H
  C37      1.0000 0.03499  0.80859  0.07399  Biso   1.000  C
  C38      1.0000 0.67980  0.96260  0.95650  Biso   1.000  C
  H31      1.0000 0.73178  0.94629  0.01928  Biso   1.000  H
  H32      1.0000 0.73178  0.94629  0.01932  Biso   1.000  H
  H33      1.0000 0.73182  0.94629  0.01928  Biso   1.000  H
  H34      1.0000 0.73182  0.94629  0.01932  Biso   1.000  H
  C39      1.0000 0.73054  0.02752  0.01109  Biso   1.000  C
  C40      1.0000 0.73054  0.02752  0.01113  Biso   1.000  C
  C41      1.0000 0.97220  0.99020  0.62951  Biso   1.000  C
  H35      1.0000 0.92508  0.94320  0.67980  Biso   1.000  H
  H36      1.0000 0.98678  0.92500  0.67940  Biso   1.000  H
  H37      1.0000 0.92512  0.94320  0.67980  Biso   1.000  H
  H38      1.0000 0.98682  0.92500  0.67940  Biso   1.000  H
  C42      1.0000 0.03740  0.04350  0.67980  Biso   1.000  C
  H39      1.0000 0.05371  0.98072  0.73178  Biso   1.000  H
  H40      1.0000 0.05371  0.98072  0.73182  Biso   1.000  H
  N9       1.0000 0.03619  0.04491  0.77625  Biso   1.000  N
  N10      1.0000 0.03619  0.04491  0.77629  Biso   1.000  N
  H41      1.0000 0.97899  0.62891  0.05290  Biso   1.000  H
  H42      1.0000 0.03190  0.59709  0.03431  Biso   1.000  H
  H43      1.0000 0.00349  0.80288  0.09460  Biso   1.000  H
  C43      1.0000 0.06901  0.85438  0.08809  Biso   1.000  C
  H44      1.0000 0.00349  0.80292  0.09460  Biso   1.000  H
  C44      1.0000 0.06901  0.85442  0.08809  Biso   1.000  C
  C45      1.0000 0.62951  0.97220  0.99020  Biso   1.000  C
  H45      1.0000 0.67980  0.92508  0.94320  Biso   1.000  H
  H46      1.0000 0.67940  0.98678  0.92500  Biso   1.000  H
  H47      1.0000 0.67980  0.92512  0.94320  Biso   1.000  H
  H48      1.0000 0.67940  0.98682  0.92500  Biso   1.000  H
  H49      1.0000 0.73178  0.05371  0.98072  Biso   1.000  H
  H50      1.0000 0.73182  0.05371  0.98072  Biso   1.000  H
  C46      1.0000 0.67980  0.03740  0.04350  Biso   1.000  C
  N11      1.0000 0.77625  0.03619  0.04491  Biso   1.000  N
  N12      1.0000 0.77629  0.03619  0.04491  Biso   1.000  N
  H51      1.0000 0.96569  0.96810  0.59709  Biso   1.000  H
  H52      1.0000 0.94710  0.02101  0.62891  Biso   1.000  H
  C47      1.0000 0.02780  0.00980  0.62951  Biso   1.000  C
  H53      1.0000 0.07492  0.05680  0.67980  Biso   1.000  H
  H54      1.0000 0.01322  0.07500  0.67940  Biso   1.000  H
  C48      1.0000 0.07399  0.03499  0.80859  Biso   1.000  C
  C49      1.0000 0.11388  0.86700  0.05552  Biso   1.000  C
  C50      1.0000 0.05552  0.88612  0.13300  Biso   1.000  C
  C51      1.0000 0.11392  0.86700  0.05552  Biso   1.000  C
  H55      1.0000 0.59709  0.96569  0.96810  Biso   1.000  H
  H56      1.0000 0.62891  0.94710  0.02101  Biso   1.000  H
  C52      1.0000 0.62951  0.02780  0.00980  Biso   1.000  C
  H57      1.0000 0.67980  0.07492  0.05680  Biso   1.000  H
  H58      1.0000 0.67940  0.01322  0.07500  Biso   1.000  H
  C53      1.0000 0.80859  0.07399  0.03499  Biso   1.000  C
  H59      1.0000 0.05290  0.97899  0.62891  Biso   1.000  H
  H60      1.0000 0.03431  0.03190  0.59709  Biso   1.000  H
  H61      1.0000 0.09460  0.00349  0.80288  Biso   1.000  H
  C54      1.0000 0.08809  0.06901  0.85438  Biso   1.000  C
  H62      1.0000 0.09460  0.00349  0.80292  Biso   1.000  H
  C55      1.0000 0.08809  0.06901  0.85442  Biso   1.000  C
  C56      1.0000 0.14562  0.91191  0.06901  Biso   1.000  C
  O7       1.0000 0.12650  0.83570  0.01382  Biso   1.000  O
  H63      1.0000 0.12232  0.84550  0.02470  Biso   1.000  H
  C57      1.0000 0.08809  0.93099  0.14562  Biso   1.000  C
  O8       1.0000 0.01382  0.87350  0.16430  Biso   1.000  O
  C58      1.0000 0.08809  0.93103  0.14562  Biso   1.000  C
  H64      1.0000 0.02470  0.87772  0.15450  Biso   1.000  H
  H65      1.0000 0.62891  0.05290  0.97899  Biso   1.000  H
  H66      1.0000 0.59709  0.03431  0.03190  Biso   1.000  H
  H67      1.0000 0.80288  0.09460  0.00349  Biso   1.000  H
  C59      1.0000 0.85438  0.08809  0.06901  Biso   1.000  C
  H68      1.0000 0.80292  0.09460  0.00349  Biso   1.000  H
  C60      1.0000 0.85442  0.08809  0.06901  Biso   1.000  C
  C61      1.0000 0.05552  0.11388  0.86700  Biso   1.000  C
  C62      1.0000 0.13300  0.05552  0.88612  Biso   1.000  C
  C63      1.0000 0.05552  0.11392  0.86700  Biso   1.000  C
  C64      1.0000 0.19141  0.92601  0.03499  Biso   1.000  C
  C65      1.0000 0.13300  0.94448  0.11388  Biso   1.000  C
  C66      1.0000 0.13300  0.94448  0.11392  Biso   1.000  C
  C67      1.0000 0.13300  0.94452  0.11388  Biso   1.000  C
  C68      1.0000 0.13300  0.94452  0.11392  Biso   1.000  C
  H69      1.0000 0.10468  0.80991  0.01201  Biso   1.000  H
  H70      1.0000 0.10472  0.80991  0.01201  Biso   1.000  H
  C69      1.0000 0.07399  0.96501  0.19141  Biso   1.000  C
  H71      1.0000 0.01201  0.89532  0.19009  Biso   1.000  H
  H72      1.0000 0.01201  0.89532  0.19013  Biso   1.000  H
  C70      1.0000 0.86700  0.05552  0.11388  Biso   1.000  C
  C71      1.0000 0.88612  0.13300  0.05552  Biso   1.000  C
  C72      1.0000 0.86700  0.05552  0.11392  Biso   1.000  C
  O9       1.0000 0.01382  0.12650  0.83570  Biso   1.000  O
  C73      1.0000 0.06901  0.14562  0.91191  Biso   1.000  C
  H73      1.0000 0.02470  0.12232  0.84550  Biso   1.000  H
  C74      1.0000 0.14562  0.08809  0.93099  Biso   1.000  C
  O10      1.0000 0.16430  0.01382  0.87350  Biso   1.000  O
  C75      1.0000 0.14562  0.08809  0.93103  Biso   1.000  C
  H74      1.0000 0.15450  0.02470  0.87772  Biso   1.000  H
  N13      1.0000 0.22375  0.96381  0.04491  Biso   1.000  N
  H75      1.0000 0.19712  0.90540  0.00349  Biso   1.000  H
  O11      1.0000 0.16430  0.98618  0.12650  Biso   1.000  O
  O12      1.0000 0.16430  0.98622  0.12650  Biso   1.000  O
  H76      1.0000 0.15450  0.97530  0.12232  Biso   1.000  H
  N14      1.0000 0.03619  0.95509  0.22375  Biso   1.000  N
  H77      1.0000 0.09460  0.99651  0.19712  Biso   1.000  H
  O13      1.0000 0.83570  0.01382  0.12650  Biso   1.000  O
  C76      1.0000 0.91191  0.06901  0.14562  Biso   1.000  C
  H78      1.0000 0.84550  0.02470  0.12232  Biso   1.000  H
  C77      1.0000 0.93099  0.14562  0.08809  Biso   1.000  C
  C78      1.0000 0.93103  0.14562  0.08809  Biso   1.000  C
  O14      1.0000 0.87350  0.16430  0.01382  Biso   1.000  O
  H79      1.0000 0.87772  0.15450  0.02470  Biso   1.000  H
  H80      1.0000 0.01201  0.10468  0.80991  Biso   1.000  H
  H81      1.0000 0.01201  0.10472  0.80991  Biso   1.000  H
  C79      1.0000 0.03499  0.19141  0.92601  Biso   1.000  C
  C80      1.0000 0.11388  0.13300  0.94448  Biso   1.000  C
  C81      1.0000 0.11388  0.13300  0.94452  Biso   1.000  C
  C82      1.0000 0.11392  0.13300  0.94448  Biso   1.000  C
  C83      1.0000 0.11392  0.13300  0.94452  Biso   1.000  C
  C84      1.0000 0.19141  0.07399  0.96501  Biso   1.000  C
  H82      1.0000 0.19009  0.01201  0.89532  Biso   1.000  H
  H83      1.0000 0.19013  0.01201  0.89532  Biso   1.000  H
  C85      1.0000 0.26946  0.97248  0.01109  Biso   1.000  C
  C86      1.0000 0.26946  0.97248  0.01113  Biso   1.000  C
  C87      1.0000 0.26946  0.97252  0.01109  Biso   1.000  C
  C88      1.0000 0.26946  0.97252  0.01113  Biso   1.000  C
  H84      1.0000 0.19009  0.98799  0.10468  Biso   1.000  H
  H85      1.0000 0.19009  0.98799  0.10472  Biso   1.000  H
  H86      1.0000 0.19013  0.98799  0.10468  Biso   1.000  H
  H87      1.0000 0.19013  0.98799  0.10472  Biso   1.000  H
  C89      1.0000 0.02752  0.98891  0.26946  Biso   1.000  C
  H88      1.0000 0.80991  0.01201  0.10468  Biso   1.000  H
  H89      1.0000 0.80991  0.01201  0.10472  Biso   1.000  H
  C90      1.0000 0.94448  0.11388  0.13300  Biso   1.000  C
  C91      1.0000 0.94448  0.11392  0.13300  Biso   1.000  C
  C92      1.0000 0.94452  0.11388  0.13300  Biso   1.000  C
  C93      1.0000 0.94452  0.11392  0.13300  Biso   1.000  C
  C94      1.0000 0.92601  0.03499  0.19141  Biso   1.000  C
  C95      1.0000 0.96501  0.19141  0.07399  Biso   1.000  C
  H90      1.0000 0.89532  0.19009  0.01201  Biso   1.000  H
  H91      1.0000 0.89532  0.19013  0.01201  Biso   1.000  H
  N15      1.0000 0.04491  0.22375  0.96381  Biso   1.000  N
  H92      1.0000 0.00349  0.19712  0.90540  Biso   1.000  H
  O15      1.0000 0.12650  0.16430  0.98618  Biso   1.000  O
  O16      1.0000 0.12650  0.16430  0.98622  Biso   1.000  O
  H93      1.0000 0.12232  0.15450  0.97530  Biso   1.000  H
  N16      1.0000 0.22375  0.03619  0.95509  Biso   1.000  N
  H94      1.0000 0.19712  0.09460  0.99651  Biso   1.000  H
  C96      1.0000 0.26946  0.02752  0.98891  Biso   1.000  C
  H95      1.0000 0.26822  0.94629  0.98072  Biso   1.000  H
  C97      1.0000 0.32020  0.96260  0.04350  Biso   1.000  C
  C98      1.0000 0.97248  0.01109  0.26946  Biso   1.000  C
  C99      1.0000 0.97248  0.01113  0.26946  Biso   1.000  C
  C100     1.0000 0.97252  0.01109  0.26946  Biso   1.000  C
  C101     1.0000 0.97252  0.01113  0.26946  Biso   1.000  C
  C102     1.0000 0.03740  0.95650  0.32020  Biso   1.000  C
  H96      1.0000 0.05371  0.01928  0.26822  Biso   1.000  H
  H97      1.0000 0.05371  0.01932  0.26822  Biso   1.000  H
  O17      1.0000 0.98618  0.12650  0.16430  Biso   1.000  O
  O18      1.0000 0.98622  0.12650  0.16430  Biso   1.000  O
  H98      1.0000 0.97530  0.12232  0.15450  Biso   1.000  H
  N17      1.0000 0.96381  0.04491  0.22375  Biso   1.000  N
  H99      1.0000 0.90540  0.00349  0.19712  Biso   1.000  H
  N18      1.0000 0.95509  0.22375  0.03619  Biso   1.000  N
  H100     1.0000 0.99651  0.19712  0.09460  Biso   1.000  H
  C103     1.0000 0.01109  0.26946  0.97248  Biso   1.000  C
  C104     1.0000 0.01109  0.26946  0.97252  Biso   1.000  C
  C105     1.0000 0.01113  0.26946  0.97248  Biso   1.000  C
  C106     1.0000 0.01113  0.26946  0.97252  Biso   1.000  C
  H101     1.0000 0.10468  0.19009  0.98799  Biso   1.000  H
  H102     1.0000 0.10468  0.19013  0.98799  Biso   1.000  H
  H103     1.0000 0.10472  0.19009  0.98799  Biso   1.000  H
  H104     1.0000 0.10472  0.19013  0.98799  Biso   1.000  H
  C107     1.0000 0.32020  0.03740  0.95650  Biso   1.000  C
  H105     1.0000 0.26822  0.05371  0.01928  Biso   1.000  H
  H106     1.0000 0.26822  0.05371  0.01932  Biso   1.000  H
  C108     1.0000 0.37049  0.97220  0.00980  Biso   1.000  C
  H107     1.0000 0.32020  0.92508  0.05680  Biso   1.000  H
  H108     1.0000 0.32060  0.98678  0.07500  Biso   1.000  H
  H109     1.0000 0.32020  0.92512  0.05680  Biso   1.000  H
  H110     1.0000 0.32060  0.98682  0.07500  Biso   1.000  H
  C109     1.0000 0.37053  0.97220  0.00980  Biso   1.000  C
  H111     1.0000 0.94629  0.98072  0.26822  Biso   1.000  H
  C110     1.0000 0.96260  0.04350  0.32020  Biso   1.000  C
  C111     1.0000 0.02780  0.99020  0.37049  Biso   1.000  C
  H112     1.0000 0.07492  0.94320  0.32020  Biso   1.000  H
  H113     1.0000 0.01322  0.92500  0.32060  Biso   1.000  H
  C112     1.0000 0.02780  0.99020  0.37053  Biso   1.000  C
  H114     1.0000 0.98799  0.10468  0.19009  Biso   1.000  H
  H115     1.0000 0.98799  0.10468  0.19013  Biso   1.000  H
  H116     1.0000 0.98799  0.10472  0.19009  Biso   1.000  H
  H117     1.0000 0.98799  0.10472  0.19013  Biso   1.000  H
  C113     1.0000 0.98891  0.26946  0.02752  Biso   1.000  C
  H118     1.0000 0.98072  0.26822  0.94629  Biso   1.000  H
  C114     1.0000 0.04350  0.32020  0.96260  Biso   1.000  C
  C115     1.0000 0.37049  0.02780  0.99020  Biso   1.000  C
  H119     1.0000 0.32020  0.07492  0.94320  Biso   1.000  H
  H120     1.0000 0.32060  0.01322  0.92500  Biso   1.000  H
  C116     1.0000 0.37053  0.02780  0.99020  Biso   1.000  C
  H121     1.0000 0.37109  0.94710  0.97899  Biso   1.000  H
  H122     1.0000 0.40291  0.96569  0.03190  Biso   1.000  H
  C117     1.0000 0.97220  0.00980  0.37049  Biso   1.000  C
  H123     1.0000 0.92508  0.05680  0.32020  Biso   1.000  H
  H124     1.0000 0.98678  0.07500  0.32060  Biso   1.000  H
  C118     1.0000 0.97220  0.00980  0.37053  Biso   1.000  C
  H125     1.0000 0.92512  0.05680  0.32020  Biso   1.000  H
  H126     1.0000 0.98682  0.07500  0.32060  Biso   1.000  H
  H127     1.0000 0.03431  0.96810  0.40291  Biso   1.000  H
  H128     1.0000 0.05290  0.02101  0.37109  Biso   1.000  H
  C119     1.0000 0.95650  0.32020  0.03740  Biso   1.000  C
  H129     1.0000 0.01928  0.26822  0.05371  Biso   1.000  H
  H130     1.0000 0.01932  0.26822  0.05371  Biso   1.000  H
  C120     1.0000 0.00980  0.37049  0.97220  Biso   1.000  C
  H131     1.0000 0.05680  0.32020  0.92508  Biso   1.000  H
  H132     1.0000 0.07500  0.32060  0.98678  Biso   1.000  H
  H133     1.0000 0.05680  0.32020  0.92512  Biso   1.000  H
  H134     1.0000 0.07500  0.32060  0.98682  Biso   1.000  H
  C121     1.0000 0.00980  0.37053  0.97220  Biso   1.000  C
  H135     1.0000 0.40291  0.03431  0.96810  Biso   1.000  H
  H136     1.0000 0.37109  0.05290  0.02101  Biso   1.000  H
  H137     1.0000 0.94710  0.97899  0.37109  Biso   1.000  H
  H138     1.0000 0.96569  0.03190  0.40291  Biso   1.000  H
  C122     1.0000 0.99020  0.37049  0.02780  Biso   1.000  C
  H139     1.0000 0.94320  0.32020  0.07492  Biso   1.000  H
  H140     1.0000 0.92500  0.32060  0.01322  Biso   1.000  H
  C123     1.0000 0.99020  0.37053  0.02780  Biso   1.000  C
  H141     1.0000 0.97899  0.37109  0.94710  Biso   1.000  H
  H142     1.0000 0.03190  0.40291  0.96569  Biso   1.000  H
  H143     1.0000 0.96810  0.40291  0.03431  Biso   1.000  H
  H144     1.0000 0.02101  0.37109  0.05290  Biso   1.000  H
  C124     1.0000 0.93099  0.85438  0.91191  Biso   1.000  C
  C125     1.0000 0.94448  0.88612  0.86700  Biso   1.000  C
  C126     1.0000 0.94452  0.88612  0.86700  Biso   1.000  C
  C127     1.0000 0.96501  0.80859  0.92601  Biso   1.000  C
  C128     1.0000 0.88612  0.86700  0.94448  Biso   1.000  C
  C129     1.0000 0.88612  0.86700  0.94452  Biso   1.000  C
  C130     1.0000 0.91191  0.93099  0.85438  Biso   1.000  C
  C131     1.0000 0.91191  0.93099  0.85442  Biso   1.000  C
  C132     1.0000 0.91191  0.93103  0.85438  Biso   1.000  C
  C133     1.0000 0.91191  0.93103  0.85442  Biso   1.000  C
  O19      1.0000 0.98618  0.87350  0.83570  Biso   1.000  O
  C134     1.0000 0.93099  0.85442  0.91191  Biso   1.000  C
  O20      1.0000 0.98622  0.87350  0.83570  Biso   1.000  O
  C135     1.0000 0.93103  0.85438  0.91191  Biso   1.000  C
  C136     1.0000 0.93103  0.85442  0.91191  Biso   1.000  C
  H145     1.0000 0.97530  0.87772  0.84550  Biso   1.000  H
  N19      1.0000 0.95509  0.77625  0.96381  Biso   1.000  N
  H146     1.0000 0.99651  0.80288  0.90540  Biso   1.000  H
  N20      1.0000 0.95509  0.77629  0.96381  Biso   1.000  N
  H147     1.0000 0.99651  0.80292  0.90540  Biso   1.000  H
  C137     1.0000 0.85438  0.91191  0.93099  Biso   1.000  C
  C138     1.0000 0.85438  0.91191  0.93103  Biso   1.000  C
  C139     1.0000 0.85442  0.91191  0.93099  Biso   1.000  C
  C140     1.0000 0.85442  0.91191  0.93103  Biso   1.000  C
  O21      1.0000 0.87350  0.83570  0.98618  Biso   1.000  O
  O22      1.0000 0.87350  0.83570  0.98622  Biso   1.000  O
  H148     1.0000 0.87772  0.84550  0.97530  Biso   1.000  H
  C141     1.0000 0.92601  0.96501  0.80859  Biso   1.000  C
  C142     1.0000 0.86700  0.94448  0.88612  Biso   1.000  C
  C143     1.0000 0.86700  0.94452  0.88612  Biso   1.000  C
  H149     1.0000 0.98799  0.89532  0.80991  Biso   1.000  H
  C144     1.0000 0.98891  0.73054  0.97248  Biso   1.000  C
  C145     1.0000 0.98891  0.73054  0.97252  Biso   1.000  C
  C146     1.0000 0.80859  0.92601  0.96501  Biso   1.000  C
  H150     1.0000 0.89532  0.80991  0.98799  Biso   1.000  H
  N21      1.0000 0.96381  0.95509  0.77625  Biso   1.000  N
  N22      1.0000 0.96381  0.95509  0.77629  Biso   1.000  N
  H151     1.0000 0.90540  0.99651  0.80288  Biso   1.000  H
  H152     1.0000 0.90540  0.99651  0.80292  Biso   1.000  H
  O23      1.0000 0.83570  0.98618  0.87350  Biso   1.000  O
  O24      1.0000 0.83570  0.98622  0.87350  Biso   1.000  O
  H153     1.0000 0.84550  0.97530  0.87772  Biso   1.000  H
  C147     1.0000 0.95650  0.67980  0.96260  Biso   1.000  C
  H154     1.0000 0.01928  0.73178  0.94629  Biso   1.000  H
  H155     1.0000 0.01928  0.73182  0.94629  Biso   1.000  H
  H156     1.0000 0.01932  0.73178  0.94629  Biso   1.000  H
  H157     1.0000 0.01932  0.73182  0.94629  Biso   1.000  H
  C148     1.0000 0.01109  0.73054  0.02752  Biso   1.000  C
  C149     1.0000 0.01113  0.73054  0.02752  Biso   1.000  C
  N23      1.0000 0.77625  0.96381  0.95509  Biso   1.000  N
  H158     1.0000 0.80288  0.90540  0.99651  Biso   1.000  H
  N24      1.0000 0.77629  0.96381  0.95509  Biso   1.000  N
  H159     1.0000 0.80292  0.90540  0.99651  Biso   1.000  H
  C150     1.0000 0.97248  0.98891  0.73054  Biso   1.000  C
  C151     1.0000 0.97252  0.98891  0.73054  Biso   1.000  C
  H160     1.0000 0.80991  0.98799  0.89532  Biso   1.000  H
  C152     1.0000 0.99020  0.62951  0.97220  Biso   1.000  C
  H161     1.0000 0.94320  0.67980  0.92508  Biso   1.000  H
  H162     1.0000 0.92500  0.67940  0.98678  Biso   1.000  H
  H163     1.0000 0.94320  0.67980  0.92512  Biso   1.000  H
  H164     1.0000 0.92500  0.67940  0.98682  Biso   1.000  H
  H165     1.0000 0.98072  0.73178  0.05371  Biso   1.000  H
  H166     1.0000 0.98072  0.73182  0.05371  Biso   1.000  H
  C153     1.0000 0.04350  0.67980  0.03740  Biso   1.000  C
  N25      1.0000 0.04491  0.77625  0.03619  Biso   1.000  N
  N26      1.0000 0.04491  0.77629  0.03619  Biso   1.000  N
  C154     1.0000 0.73054  0.97248  0.98891  Biso   1.000  C
  C155     1.0000 0.73054  0.97252  0.98891  Biso   1.000  C
  C156     1.0000 0.96260  0.95650  0.67980  Biso   1.000  C
  H167     1.0000 0.94629  0.01928  0.73178  Biso   1.000  H
  H168     1.0000 0.94629  0.01928  0.73182  Biso   1.000  H
  H169     1.0000 0.94629  0.01932  0.73178  Biso   1.000  H
  H170     1.0000 0.94629  0.01932  0.73182  Biso   1.000  H
  C157     1.0000 0.02752  0.01109  0.73054  Biso   1.000  C
  C158     1.0000 0.02752  0.01113  0.73054  Biso   1.000  C
  H171     1.0000 0.96810  0.59709  0.96569  Biso   1.000  H
  H172     1.0000 0.02101  0.62891  0.94710  Biso   1.000  H
  C159     1.0000 0.00980  0.62951  0.02780  Biso   1.000  C
  H173     1.0000 0.05680  0.67980  0.07492  Biso   1.000  H
  H174     1.0000 0.07500  0.67940  0.01322  Biso   1.000  H
  C160     1.0000 0.03499  0.80859  0.07399  Biso   1.000  C
  C161     1.0000 0.67980  0.96260  0.95650  Biso   1.000  C
  H175     1.0000 0.73178  0.94629  0.01928  Biso   1.000  H
  H176     1.0000 0.73178  0.94629  0.01932  Biso   1.000  H
  H177     1.0000 0.73182  0.94629  0.01928  Biso   1.000  H
  H178     1.0000 0.73182  0.94629  0.01932  Biso   1.000  H
  C162     1.0000 0.73054  0.02752  0.01109  Biso   1.000  C
  C163     1.0000 0.73054  0.02752  0.01113  Biso   1.000  C
  C164     1.0000 0.97220  0.99020  0.62951  Biso   1.000  C
  H179     1.0000 0.92508  0.94320  0.67980  Biso   1.000  H
  H180     1.0000 0.98678  0.92500  0.67940  Biso   1.000  H
  H181     1.0000 0.92512  0.94320  0.67980  Biso   1.000  H
  H182     1.0000 0.98682  0.92500  0.67940  Biso   1.000  H
  C165     1.0000 0.03740  0.04350  0.67980  Biso   1.000  C
  H183     1.0000 0.05371  0.98072  0.73178  Biso   1.000  H
  H184     1.0000 0.05371  0.98072  0.73182  Biso   1.000  H
  N27      1.0000 0.03619  0.04491  0.77625  Biso   1.000  N
  N28      1.0000 0.03619  0.04491  0.77629  Biso   1.000  N
  H185     1.0000 0.97899  0.62891  0.05290  Biso   1.000  H
  H186     1.0000 0.03190  0.59709  0.03431  Biso   1.000  H
  H187     1.0000 0.00349  0.80288  0.09460  Biso   1.000  H
  C166     1.0000 0.06901  0.85438  0.08809  Biso   1.000  C
  H188     1.0000 0.00349  0.80292  0.09460  Biso   1.000  H
  C167     1.0000 0.06901  0.85442  0.08809  Biso   1.000  C
  C168     1.0000 0.62951  0.97220  0.99020  Biso   1.000  C
  H189     1.0000 0.67980  0.92508  0.94320  Biso   1.000  H
  H190     1.0000 0.67940  0.98678  0.92500  Biso   1.000  H
  H191     1.0000 0.67980  0.92512  0.94320  Biso   1.000  H
  H192     1.0000 0.67940  0.98682  0.92500  Biso   1.000  H
  H193     1.0000 0.73178  0.05371  0.98072  Biso   1.000  H
  H194     1.0000 0.73182  0.05371  0.98072  Biso   1.000  H
  C169     1.0000 0.67980  0.03740  0.04350  Biso   1.000  C
  N29      1.0000 0.77625  0.03619  0.04491  Biso   1.000  N
  N30      1.0000 0.77629  0.03619  0.04491  Biso   1.000  N
  H195     1.0000 0.96569  0.96810  0.59709  Biso   1.000  H
  H196     1.0000 0.94710  0.02101  0.62891  Biso   1.000  H
  C170     1.0000 0.02780  0.00980  0.62951  Biso   1.000  C
  H197     1.0000 0.07492  0.05680  0.67980  Biso   1.000  H
  H198     1.0000 0.01322  0.07500  0.67940  Biso   1.000  H
  C171     1.0000 0.07399  0.03499  0.80859  Biso   1.000  C
  C172     1.0000 0.11388  0.86700  0.05552  Biso   1.000  C
  C173     1.0000 0.05552  0.88612  0.13300  Biso   1.000  C
  C174     1.0000 0.11392  0.86700  0.05552  Biso   1.000  C
  H199     1.0000 0.59709  0.96569  0.96810  Biso   1.000  H
  H200     1.0000 0.62891  0.94710  0.02101  Biso   1.000  H
  C175     1.0000 0.62951  0.02780  0.00980  Biso   1.000  C
  H201     1.0000 0.67980  0.07492  0.05680  Biso   1.000  H
  H202     1.0000 0.67940  0.01322  0.07500  Biso   1.000  H
  C176     1.0000 0.80859  0.07399  0.03499  Biso   1.000  C
  H203     1.0000 0.05290  0.97899  0.62891  Biso   1.000  H
  H204     1.0000 0.03431  0.03190  0.59709  Biso   1.000  H
  H205     1.0000 0.09460  0.00349  0.80288  Biso   1.000  H
  C177     1.0000 0.08809  0.06901  0.85438  Biso   1.000  C
  H206     1.0000 0.09460  0.00349  0.80292  Biso   1.000  H
  C178     1.0000 0.08809  0.06901  0.85442  Biso   1.000  C
  C179     1.0000 0.14562  0.91191  0.06901  Biso   1.000  C
  O25      1.0000 0.12650  0.83570  0.01382  Biso   1.000  O
  H207     1.0000 0.12232  0.84550  0.02470  Biso   1.000  H
  C180     1.0000 0.08809  0.93099  0.14562  Biso   1.000  C
  O26      1.0000 0.01382  0.87350  0.16430  Biso   1.000  O
  C181     1.0000 0.08809  0.93103  0.14562  Biso   1.000  C
  H208     1.0000 0.02470  0.87772  0.15450  Biso   1.000  H
  H209     1.0000 0.62891  0.05290  0.97899  Biso   1.000  H
  H210     1.0000 0.59709  0.03431  0.03190  Biso   1.000  H
  H211     1.0000 0.80288  0.09460  0.00349  Biso   1.000  H
  C182     1.0000 0.85438  0.08809  0.06901  Biso   1.000  C
  H212     1.0000 0.80292  0.09460  0.00349  Biso   1.000  H
  C183     1.0000 0.85442  0.08809  0.06901  Biso   1.000  C
  C184     1.0000 0.05552  0.11388  0.86700  Biso   1.000  C
  C185     1.0000 0.13300  0.05552  0.88612  Biso   1.000  C
  C186     1.0000 0.05552  0.11392  0.86700  Biso   1.000  C
  C187     1.0000 0.19141  0.92601  0.03499  Biso   1.000  C
  C188     1.0000 0.13300  0.94448  0.11388  Biso   1.000  C
  C189     1.0000 0.13300  0.94448  0.11392  Biso   1.000  C
  C190     1.0000 0.13300  0.94452  0.11388  Biso   1.000  C
  C191     1.0000 0.13300  0.94452  0.11392  Biso   1.000  C
  H213     1.0000 0.10468  0.80991  0.01201  Biso   1.000  H
  H214     1.0000 0.10472  0.80991  0.01201  Biso   1.000  H
  C192     1.0000 0.07399  0.96501  0.19141  Biso   1.000  C
  H215     1.0000 0.01201  0.89532  0.19009  Biso   1.000  H
  H216     1.0000 0.01201  0.89532  0.19013  Biso   1.000  H
  C193     1.0000 0.86700  0.05552  0.11388  Biso   1.000  C
  C194     1.0000 0.88612  0.13300  0.05552  Biso   1.000  C
  C195     1.0000 0.86700  0.05552  0.11392  Biso   1.000  C
  O27      1.0000 0.01382  0.12650  0.83570  Biso   1.000  O
  C196     1.0000 0.06901  0.14562  0.91191  Biso   1.000  C
  H217     1.0000 0.02470  0.12232  0.84550  Biso   1.000  H
  C197     1.0000 0.14562  0.08809  0.93099  Biso   1.000  C
  O28      1.0000 0.16430  0.01382  0.87350  Biso   1.000  O
  C198     1.0000 0.14562  0.08809  0.93103  Biso   1.000  C
  H218     1.0000 0.15450  0.02470  0.87772  Biso   1.000  H
  N31      1.0000 0.22375  0.96381  0.04491  Biso   1.000  N
  H219     1.0000 0.19712  0.90540  0.00349  Biso   1.000  H
  O29      1.0000 0.16430  0.98618  0.12650  Biso   1.000  O
  O30      1.0000 0.16430  0.98622  0.12650  Biso   1.000  O
  H220     1.0000 0.15450  0.97530  0.12232  Biso   1.000  H
  N32      1.0000 0.03619  0.95509  0.22375  Biso   1.000  N
  H221     1.0000 0.09460  0.99651  0.19712  Biso   1.000  H
  O31      1.0000 0.83570  0.01382  0.12650  Biso   1.000  O
  C199     1.0000 0.91191  0.06901  0.14562  Biso   1.000  C
  H222     1.0000 0.84550  0.02470  0.12232  Biso   1.000  H
  C200     1.0000 0.93099  0.14562  0.08809  Biso   1.000  C
  C201     1.0000 0.93103  0.14562  0.08809  Biso   1.000  C
  O32      1.0000 0.87350  0.16430  0.01382  Biso   1.000  O
  H223     1.0000 0.87772  0.15450  0.02470  Biso   1.000  H
  H224     1.0000 0.01201  0.10468  0.80991  Biso   1.000  H
  H225     1.0000 0.01201  0.10472  0.80991  Biso   1.000  H
  C202     1.0000 0.03499  0.19141  0.92601  Biso   1.000  C
  C203     1.0000 0.11388  0.13300  0.94448  Biso   1.000  C
  C204     1.0000 0.11388  0.13300  0.94452  Biso   1.000  C
  C205     1.0000 0.11392  0.13300  0.94448  Biso   1.000  C
  C206     1.0000 0.11392  0.13300  0.94452  Biso   1.000  C
  C207     1.0000 0.19141  0.07399  0.96501  Biso   1.000  C
  H226     1.0000 0.19009  0.01201  0.89532  Biso   1.000  H
  H227     1.0000 0.19013  0.01201  0.89532  Biso   1.000  H
  C208     1.0000 0.26946  0.97248  0.01109  Biso   1.000  C
  C209     1.0000 0.26946  0.97248  0.01113  Biso   1.000  C
  C210     1.0000 0.26946  0.97252  0.01109  Biso   1.000  C
  C211     1.0000 0.26946  0.97252  0.01113  Biso   1.000  C
  H228     1.0000 0.19009  0.98799  0.10468  Biso   1.000  H
  H229     1.0000 0.19009  0.98799  0.10472  Biso   1.000  H
  H230     1.0000 0.19013  0.98799  0.10468  Biso   1.000  H
  H231     1.0000 0.19013  0.98799  0.10472  Biso   1.000  H
  C212     1.0000 0.02752  0.98891  0.26946  Biso   1.000  C
  H232     1.0000 0.80991  0.01201  0.10468  Biso   1.000  H
  H233     1.0000 0.80991  0.01201  0.10472  Biso   1.000  H
  C213     1.0000 0.94448  0.11388  0.13300  Biso   1.000  C
  C214     1.0000 0.94448  0.11392  0.13300  Biso   1.000  C
  C215     1.0000 0.94452  0.11388  0.13300  Biso   1.000  C
  C216     1.0000 0.94452  0.11392  0.13300  Biso   1.000  C
  C217     1.0000 0.92601  0.03499  0.19141  Biso   1.000  C
  C218     1.0000 0.96501  0.19141  0.07399  Biso   1.000  C
  H234     1.0000 0.89532  0.19009  0.01201  Biso   1.000  H
  H235     1.0000 0.89532  0.19013  0.01201  Biso   1.000  H
  N33      1.0000 0.04491  0.22375  0.96381  Biso   1.000  N
  H236     1.0000 0.00349  0.19712  0.90540  Biso   1.000  H
  O33      1.0000 0.12650  0.16430  0.98618  Biso   1.000  O
  O34      1.0000 0.12650  0.16430  0.98622  Biso   1.000  O
  H237     1.0000 0.12232  0.15450  0.97530  Biso   1.000  H
  N34      1.0000 0.22375  0.03619  0.95509  Biso   1.000  N
  H238     1.0000 0.19712  0.09460  0.99651  Biso   1.000  H
  C219     1.0000 0.26946  0.02752  0.98891  Biso   1.000  C
  H239     1.0000 0.26822  0.94629  0.98072  Biso   1.000  H
  C220     1.0000 0.32020  0.96260  0.04350  Biso   1.000  C
  C221     1.0000 0.97248  0.01109  0.26946  Biso   1.000  C
  C222     1.0000 0.97248  0.01113  0.26946  Biso   1.000  C
  C223     1.0000 0.97252  0.01109  0.26946  Biso   1.000  C
  C224     1.0000 0.97252  0.01113  0.26946  Biso   1.000  C
  C225     1.0000 0.03740  0.95650  0.32020  Biso   1.000  C
  H240     1.0000 0.05371  0.01928  0.26822  Biso   1.000  H
  H241     1.0000 0.05371  0.01932  0.26822  Biso   1.000  H
  O35      1.0000 0.98618  0.12650  0.16430  Biso   1.000  O
  O36      1.0000 0.98622  0.12650  0.16430  Biso   1.000  O
  H242     1.0000 0.97530  0.12232  0.15450  Biso   1.000  H
  N35      1.0000 0.96381  0.04491  0.22375  Biso   1.000  N
  H243     1.0000 0.90540  0.00349  0.19712  Biso   1.000  H
  N36      1.0000 0.95509  0.22375  0.03619  Biso   1.000  N
  H244     1.0000 0.99651  0.19712  0.09460  Biso   1.000  H
  C226     1.0000 0.01109  0.26946  0.97248  Biso   1.000  C
  C227     1.0000 0.01109  0.26946  0.97252  Biso   1.000  C
  C228     1.0000 0.01113  0.26946  0.97248  Biso   1.000  C
  C229     1.0000 0.01113  0.26946  0.97252  Biso   1.000  C
  H245     1.0000 0.10468  0.19009  0.98799  Biso   1.000  H
  H246     1.0000 0.10468  0.19013  0.98799  Biso   1.000  H
  H247     1.0000 0.10472  0.19009  0.98799  Biso   1.000  H
  H248     1.0000 0.10472  0.19013  0.98799  Biso   1.000  H
  C230     1.0000 0.32020  0.03740  0.95650  Biso   1.000  C
  H249     1.0000 0.26822  0.05371  0.01928  Biso   1.000  H
  H250     1.0000 0.26822  0.05371  0.01932  Biso   1.000  H
  C231     1.0000 0.37049  0.97220  0.00980  Biso   1.000  C
  H251     1.0000 0.32020  0.92508  0.05680  Biso   1.000  H
  H252     1.0000 0.32060  0.98678  0.07500  Biso   1.000  H
  H253     1.0000 0.32020  0.92512  0.05680  Biso   1.000  H
  H254     1.0000 0.32060  0.98682  0.07500  Biso   1.000  H
  C232     1.0000 0.37053  0.97220  0.00980  Biso   1.000  C
  H255     1.0000 0.94629  0.98072  0.26822  Biso   1.000  H
  C233     1.0000 0.96260  0.04350  0.32020  Biso   1.000  C
  C234     1.0000 0.02780  0.99020  0.37049  Biso   1.000  C
  H256     1.0000 0.07492  0.94320  0.32020  Biso   1.000  H
  H257     1.0000 0.01322  0.92500  0.32060  Biso   1.000  H
  C235     1.0000 0.02780  0.99020  0.37053  Biso   1.000  C
  H258     1.0000 0.98799  0.10468  0.19009  Biso   1.000  H
  H259     1.0000 0.98799  0.10468  0.19013  Biso   1.000  H
  H260     1.0000 0.98799  0.10472  0.19009  Biso   1.000  H
  H261     1.0000 0.98799  0.10472  0.19013  Biso   1.000  H
  C236     1.0000 0.98891  0.26946  0.02752  Biso   1.000  C
  H262     1.0000 0.98072  0.26822  0.94629  Biso   1.000  H
  C237     1.0000 0.04350  0.32020  0.96260  Biso   1.000  C
  C238     1.0000 0.37049  0.02780  0.99020  Biso   1.000  C
  H263     1.0000 0.32020  0.07492  0.94320  Biso   1.000  H
  H264     1.0000 0.32060  0.01322  0.92500  Biso   1.000  H
  C239     1.0000 0.37053  0.02780  0.99020  Biso   1.000  C
  H265     1.0000 0.37109  0.94710  0.97899  Biso   1.000  H
  H266     1.0000 0.40291  0.96569  0.03190  Biso   1.000  H
  C240     1.0000 0.97220  0.00980  0.37049  Biso   1.000  C
  H267     1.0000 0.92508  0.05680  0.32020  Biso   1.000  H
  H268     1.0000 0.98678  0.07500  0.32060  Biso   1.000  H
  C241     1.0000 0.97220  0.00980  0.37053  Biso   1.000  C
  H269     1.0000 0.92512  0.05680  0.32020  Biso   1.000  H
  H270     1.0000 0.98682  0.07500  0.32060  Biso   1.000  H
  H271     1.0000 0.03431  0.96810  0.40291  Biso   1.000  H
  H272     1.0000 0.05290  0.02101  0.37109  Biso   1.000  H
  C242     1.0000 0.95650  0.32020  0.03740  Biso   1.000  C
  H273     1.0000 0.01928  0.26822  0.05371  Biso   1.000  H
  H274     1.0000 0.01932  0.26822  0.05371  Biso   1.000  H
  C243     1.0000 0.00980  0.37049  0.97220  Biso   1.000  C
  H275     1.0000 0.05680  0.32020  0.92508  Biso   1.000  H
  H276     1.0000 0.07500  0.32060  0.98678  Biso   1.000  H
  H277     1.0000 0.05680  0.32020  0.92512  Biso   1.000  H
  H278     1.0000 0.07500  0.32060  0.98682  Biso   1.000  H
  C244     1.0000 0.00980  0.37053  0.97220  Biso   1.000  C
  H279     1.0000 0.40291  0.03431  0.96810  Biso   1.000  H
  H280     1.0000 0.37109  0.05290  0.02101  Biso   1.000  H
  H281     1.0000 0.94710  0.97899  0.37109  Biso   1.000  H
  H282     1.0000 0.96569  0.03190  0.40291  Biso   1.000  H
  C245     1.0000 0.99020  0.37049  0.02780  Biso   1.000  C
  H283     1.0000 0.94320  0.32020  0.07492  Biso   1.000  H
  H284     1.0000 0.92500  0.32060  0.01322  Biso   1.000  H
  C246     1.0000 0.99020  0.37053  0.02780  Biso   1.000  C
  H285     1.0000 0.97899  0.37109  0.94710  Biso   1.000  H
  H286     1.0000 0.03190  0.40291  0.96569  Biso   1.000  H
  H287     1.0000 0.96810  0.40291  0.03431  Biso   1.000  H
  H288     1.0000 0.02101  0.37109  0.05290  Biso   1.000  H
  C247     1.0000 0.93099  0.85438  0.91191  Biso   1.000  C
  C248     1.0000 0.94448  0.88612  0.86700  Biso   1.000  C
  C249     1.0000 0.94452  0.88612  0.86700  Biso   1.000  C
  C250     1.0000 0.96501  0.80859  0.92601  Biso   1.000  C
  C251     1.0000 0.88612  0.86700  0.94448  Biso   1.000  C
  C252     1.0000 0.88612  0.86700  0.94452  Biso   1.000  C
  C253     1.0000 0.91191  0.93099  0.85438  Biso   1.000  C
  C254     1.0000 0.91191  0.93099  0.85442  Biso   1.000  C
  C255     1.0000 0.91191  0.93103  0.85438  Biso   1.000  C
  C256     1.0000 0.91191  0.93103  0.85442  Biso   1.000  C
  O37      1.0000 0.98618  0.87350  0.83570  Biso   1.000  O
  O38      1.0000 0.98622  0.87350  0.83570  Biso   1.000  O
  C257     1.0000 0.93099  0.85442  0.91191  Biso   1.000  C
  C258     1.0000 0.93103  0.85438  0.91191  Biso   1.000  C
  C259     1.0000 0.93103  0.85442  0.91191  Biso   1.000  C
  H289     1.0000 0.97530  0.87772  0.84550  Biso   1.000  H
  N37      1.0000 0.95509  0.77625  0.96381  Biso   1.000  N
  H290     1.0000 0.99651  0.80288  0.90540  Biso   1.000  H
  N38      1.0000 0.95509  0.77629  0.96381  Biso   1.000  N
  H291     1.0000 0.99651  0.80292  0.90540  Biso   1.000  H
  C260     1.0000 0.85438  0.91191  0.93099  Biso   1.000  C
  C261     1.0000 0.85438  0.91191  0.93103  Biso   1.000  C
  C262     1.0000 0.85442  0.91191  0.93099  Biso   1.000  C
  C263     1.0000 0.85442  0.91191  0.93103  Biso   1.000  C
  O39      1.0000 0.87350  0.83570  0.98618  Biso   1.000  O
  O40      1.0000 0.87350  0.83570  0.98622  Biso   1.000  O
  H292     1.0000 0.87772  0.84550  0.97530  Biso   1.000  H
  C264     1.0000 0.92601  0.96501  0.80859  Biso   1.000  C
  C265     1.0000 0.86700  0.94448  0.88612  Biso   1.000  C
  C266     1.0000 0.86700  0.94452  0.88612  Biso   1.000  C
  H293     1.0000 0.98799  0.89532  0.80991  Biso   1.000  H
  C267     1.0000 0.98891  0.73054  0.97248  Biso   1.000  C
  C268     1.0000 0.98891  0.73054  0.97252  Biso   1.000  C
  C269     1.0000 0.80859  0.92601  0.96501  Biso   1.000  C
  H294     1.0000 0.89532  0.80991  0.98799  Biso   1.000  H
  N39      1.0000 0.96381  0.95509  0.77625  Biso   1.000  N
  N40      1.0000 0.96381  0.95509  0.77629  Biso   1.000  N
  H295     1.0000 0.90540  0.99651  0.80288  Biso   1.000  H
  H296     1.0000 0.90540  0.99651  0.80292  Biso   1.000  H
  O41      1.0000 0.83570  0.98618  0.87350  Biso   1.000  O
  O42      1.0000 0.83570  0.98622  0.87350  Biso   1.000  O
  H297     1.0000 0.84550  0.97530  0.87772  Biso   1.000  H
  C270     1.0000 0.95650  0.67980  0.96260  Biso   1.000  C
  H298     1.0000 0.01928  0.73178  0.94629  Biso   1.000  H
  H299     1.0000 0.01928  0.73182  0.94629  Biso   1.000  H
  H300     1.0000 0.01932  0.73178  0.94629  Biso   1.000  H
  H301     1.0000 0.01932  0.73182  0.94629  Biso   1.000  H
  C271     1.0000 0.01109  0.73054  0.02752  Biso   1.000  C
  C272     1.0000 0.01113  0.73054  0.02752  Biso   1.000  C
  N41      1.0000 0.77625  0.96381  0.95509  Biso   1.000  N
  H302     1.0000 0.80288  0.90540  0.99651  Biso   1.000  H
  N42      1.0000 0.77629  0.96381  0.95509  Biso   1.000  N
  H303     1.0000 0.80292  0.90540  0.99651  Biso   1.000  H
  C273     1.0000 0.97248  0.98891  0.73054  Biso   1.000  C
  C274     1.0000 0.97252  0.98891  0.73054  Biso   1.000  C
  H304     1.0000 0.80991  0.98799  0.89532  Biso   1.000  H
  C275     1.0000 0.99020  0.62951  0.97220  Biso   1.000  C
  H305     1.0000 0.94320  0.67980  0.92508  Biso   1.000  H
  H306     1.0000 0.92500  0.67940  0.98678  Biso   1.000  H
  H307     1.0000 0.94320  0.67980  0.92512  Biso   1.000  H
  H308     1.0000 0.92500  0.67940  0.98682  Biso   1.000  H
  H309     1.0000 0.98072  0.73178  0.05371  Biso   1.000  H
  H310     1.0000 0.98072  0.73182  0.05371  Biso   1.000  H
  C276     1.0000 0.04350  0.67980  0.03740  Biso   1.000  C
  N43      1.0000 0.04491  0.77625  0.03619  Biso   1.000  N
  N44      1.0000 0.04491  0.77629  0.03619  Biso   1.000  N
  C277     1.0000 0.73054  0.97248  0.98891  Biso   1.000  C
  C278     1.0000 0.73054  0.97252  0.98891  Biso   1.000  C
  C279     1.0000 0.96260  0.95650  0.67980  Biso   1.000  C
  H311     1.0000 0.94629  0.01928  0.73178  Biso   1.000  H
  H312     1.0000 0.94629  0.01928  0.73182  Biso   1.000  H
  H313     1.0000 0.94629  0.01932  0.73178  Biso   1.000  H
  H314     1.0000 0.94629  0.01932  0.73182  Biso   1.000  H
  C280     1.0000 0.02752  0.01109  0.73054  Biso   1.000  C
  C281     1.0000 0.02752  0.01113  0.73054  Biso   1.000  C
  H315     1.0000 0.96810  0.59709  0.96569  Biso   1.000  H
  H316     1.0000 0.02101  0.62891  0.94710  Biso   1.000  H
  C282     1.0000 0.00980  0.62951  0.02780  Biso   1.000  C
  H317     1.0000 0.05680  0.67980  0.07492  Biso   1.000  H
  H318     1.0000 0.07500  0.67940  0.01322  Biso   1.000  H
  C283     1.0000 0.03499  0.80859  0.07399  Biso   1.000  C
  C284     1.0000 0.67980  0.96260  0.95650  Biso   1.000  C
  H319     1.0000 0.73178  0.94629  0.01928  Biso   1.000  H
  H320     1.0000 0.73178  0.94629  0.01932  Biso   1.000  H
  H321     1.0000 0.73182  0.94629  0.01928  Biso   1.000  H
  H322     1.0000 0.73182  0.94629  0.01932  Biso   1.000  H
  C285     1.0000 0.73054  0.02752  0.01109  Biso   1.000  C
  C286     1.0000 0.73054  0.02752  0.01113  Biso   1.000  C
  C287     1.0000 0.97220  0.99020  0.62951  Biso   1.000  C
  H323     1.0000 0.92508  0.94320  0.67980  Biso   1.000  H
  H324     1.0000 0.98678  0.92500  0.67940  Biso   1.000  H
  H325     1.0000 0.92512  0.94320  0.67980  Biso   1.000  H
  H326     1.0000 0.98682  0.92500  0.67940  Biso   1.000  H
  C288     1.0000 0.03740  0.04350  0.67980  Biso   1.000  C
  H327     1.0000 0.05371  0.98072  0.73178  Biso   1.000  H
  H328     1.0000 0.05371  0.98072  0.73182  Biso   1.000  H
  N45      1.0000 0.03619  0.04491  0.77625  Biso   1.000  N
  N46      1.0000 0.03619  0.04491  0.77629  Biso   1.000  N
  H329     1.0000 0.97899  0.62891  0.05290  Biso   1.000  H
  H330     1.0000 0.03190  0.59709  0.03431  Biso   1.000  H
  H331     1.0000 0.00349  0.80288  0.09460  Biso   1.000  H
  C289     1.0000 0.06901  0.85438  0.08809  Biso   1.000  C
  H332     1.0000 0.00349  0.80292  0.09460  Biso   1.000  H
  C290     1.0000 0.06901  0.85442  0.08809  Biso   1.000  C
  C291     1.0000 0.62951  0.97220  0.99020  Biso   1.000  C
  H333     1.0000 0.67980  0.92508  0.94320  Biso   1.000  H
  H334     1.0000 0.67940  0.98678  0.92500  Biso   1.000  H
  H335     1.0000 0.67980  0.92512  0.94320  Biso   1.000  H
  H336     1.0000 0.67940  0.98682  0.92500  Biso   1.000  H
  H337     1.0000 0.73178  0.05371  0.98072  Biso   1.000  H
  H338     1.0000 0.73182  0.05371  0.98072  Biso   1.000  H
  C292     1.0000 0.67980  0.03740  0.04350  Biso   1.000  C
  N47      1.0000 0.77625  0.03619  0.04491  Biso   1.000  N
  N48      1.0000 0.77629  0.03619  0.04491  Biso   1.000  N
  H339     1.0000 0.96569  0.96810  0.59709  Biso   1.000  H
  H340     1.0000 0.94710  0.02101  0.62891  Biso   1.000  H
  C293     1.0000 0.02780  0.00980  0.62951  Biso   1.000  C
  H341     1.0000 0.07492  0.05680  0.67980  Biso   1.000  H
  H342     1.0000 0.01322  0.07500  0.67940  Biso   1.000  H
  C294     1.0000 0.07399  0.03499  0.80859  Biso   1.000  C
  C295     1.0000 0.11388  0.86700  0.05552  Biso   1.000  C
  C296     1.0000 0.05552  0.88612  0.13300  Biso   1.000  C
  C297     1.0000 0.11392  0.86700  0.05552  Biso   1.000  C
  H343     1.0000 0.59709  0.96569  0.96810  Biso   1.000  H
  H344     1.0000 0.62891  0.94710  0.02101  Biso   1.000  H
  C298     1.0000 0.62951  0.02780  0.00980  Biso   1.000  C
  H345     1.0000 0.67980  0.07492  0.05680  Biso   1.000  H
  H346     1.0000 0.67940  0.01322  0.07500  Biso   1.000  H
  C299     1.0000 0.80859  0.07399  0.03499  Biso   1.000  C
  H347     1.0000 0.05290  0.97899  0.62891  Biso   1.000  H
  H348     1.0000 0.03431  0.03190  0.59709  Biso   1.000  H
  H349     1.0000 0.09460  0.00349  0.80288  Biso   1.000  H
  C300     1.0000 0.08809  0.06901  0.85438  Biso   1.000  C
  H350     1.0000 0.09460  0.00349  0.80292  Biso   1.000  H
  C301     1.0000 0.08809  0.06901  0.85442  Biso   1.000  C
  C302     1.0000 0.14562  0.91191  0.06901  Biso   1.000  C
  O43      1.0000 0.12650  0.83570  0.01382  Biso   1.000  O
  H351     1.0000 0.12232  0.84550  0.02470  Biso   1.000  H
  C303     1.0000 0.08809  0.93099  0.14562  Biso   1.000  C
  O44      1.0000 0.01382  0.87350  0.16430  Biso   1.000  O
  C304     1.0000 0.08809  0.93103  0.14562  Biso   1.000  C
  H352     1.0000 0.02470  0.87772  0.15450  Biso   1.000  H
  H353     1.0000 0.62891  0.05290  0.97899  Biso   1.000  H
  H354     1.0000 0.59709  0.03431  0.03190  Biso   1.000  H
  H355     1.0000 0.80288  0.09460  0.00349  Biso   1.000  H
  C305     1.0000 0.85438  0.08809  0.06901  Biso   1.000  C
  H356     1.0000 0.80292  0.09460  0.00349  Biso   1.000  H
  C306     1.0000 0.85442  0.08809  0.06901  Biso   1.000  C
  C307     1.0000 0.05552  0.11388  0.86700  Biso   1.000  C
  C308     1.0000 0.13300  0.05552  0.88612  Biso   1.000  C
  C309     1.0000 0.05552  0.11392  0.86700  Biso   1.000  C
  C310     1.0000 0.19141  0.92601  0.03499  Biso   1.000  C
  C311     1.0000 0.13300  0.94448  0.11388  Biso   1.000  C
  C312     1.0000 0.13300  0.94448  0.11392  Biso   1.000  C
  C313     1.0000 0.13300  0.94452  0.11388  Biso   1.000  C
  C314     1.0000 0.13300  0.94452  0.11392  Biso   1.000  C
  H357     1.0000 0.10468  0.80991  0.01201  Biso   1.000  H
  H358     1.0000 0.10472  0.80991  0.01201  Biso   1.000  H
  C315     1.0000 0.07399  0.96501  0.19141  Biso   1.000  C
  H359     1.0000 0.01201  0.89532  0.19009  Biso   1.000  H
  H360     1.0000 0.01201  0.89532  0.19013  Biso   1.000  H
  C316     1.0000 0.86700  0.05552  0.11388  Biso   1.000  C
  C317     1.0000 0.88612  0.13300  0.05552  Biso   1.000  C
  C318     1.0000 0.86700  0.05552  0.11392  Biso   1.000  C
  O45      1.0000 0.01382  0.12650  0.83570  Biso   1.000  O
  C319     1.0000 0.06901  0.14562  0.91191  Biso   1.000  C
  H361     1.0000 0.02470  0.12232  0.84550  Biso   1.000  H
  C320     1.0000 0.14562  0.08809  0.93099  Biso   1.000  C
  O46      1.0000 0.16430  0.01382  0.87350  Biso   1.000  O
  C321     1.0000 0.14562  0.08809  0.93103  Biso   1.000  C
  H362     1.0000 0.15450  0.02470  0.87772  Biso   1.000  H
  N49      1.0000 0.22375  0.96381  0.04491  Biso   1.000  N
  H363     1.0000 0.19712  0.90540  0.00349  Biso   1.000  H
  O47      1.0000 0.16430  0.98618  0.12650  Biso   1.000  O
  O48      1.0000 0.16430  0.98622  0.12650  Biso   1.000  O
  H364     1.0000 0.15450  0.97530  0.12232  Biso   1.000  H
  N50      1.0000 0.03619  0.95509  0.22375  Biso   1.000  N
  H365     1.0000 0.09460  0.99651  0.19712  Biso   1.000  H
  O49      1.0000 0.83570  0.01382  0.12650  Biso   1.000  O
  C322     1.0000 0.91191  0.06901  0.14562  Biso   1.000  C
  H366     1.0000 0.84550  0.02470  0.12232  Biso   1.000  H
  C323     1.0000 0.93099  0.14562  0.08809  Biso   1.000  C
  C324     1.0000 0.93103  0.14562  0.08809  Biso   1.000  C
  O50      1.0000 0.87350  0.16430  0.01382  Biso   1.000  O
  H367     1.0000 0.87772  0.15450  0.02470  Biso   1.000  H
  H368     1.0000 0.01201  0.10468  0.80991  Biso   1.000  H
  H369     1.0000 0.01201  0.10472  0.80991  Biso   1.000  H
  C325     1.0000 0.03499  0.19141  0.92601  Biso   1.000  C
  C326     1.0000 0.11388  0.13300  0.94448  Biso   1.000  C
  C327     1.0000 0.11388  0.13300  0.94452  Biso   1.000  C
  C328     1.0000 0.11392  0.13300  0.94448  Biso   1.000  C
  C329     1.0000 0.11392  0.13300  0.94452  Biso   1.000  C
  C330     1.0000 0.19141  0.07399  0.96501  Biso   1.000  C
  H370     1.0000 0.19009  0.01201  0.89532  Biso   1.000  H
  H371     1.0000 0.19013  0.01201  0.89532  Biso   1.000  H
  C331     1.0000 0.26946  0.97248  0.01109  Biso   1.000  C
  C332     1.0000 0.26946  0.97248  0.01113  Biso   1.000  C
  C333     1.0000 0.26946  0.97252  0.01109  Biso   1.000  C
  C334     1.0000 0.26946  0.97252  0.01113  Biso   1.000  C
  H372     1.0000 0.19009  0.98799  0.10468  Biso   1.000  H
  H373     1.0000 0.19009  0.98799  0.10472  Biso   1.000  H
  H374     1.0000 0.19013  0.98799  0.10468  Biso   1.000  H
  H375     1.0000 0.19013  0.98799  0.10472  Biso   1.000  H
  C335     1.0000 0.02752  0.98891  0.26946  Biso   1.000  C
  H376     1.0000 0.80991  0.01201  0.10468  Biso   1.000  H
  H377     1.0000 0.80991  0.01201  0.10472  Biso   1.000  H
  C336     1.0000 0.94448  0.11388  0.13300  Biso   1.000  C
  C337     1.0000 0.94448  0.11392  0.13300  Biso   1.000  C
  C338     1.0000 0.94452  0.11388  0.13300  Biso   1.000  C
  C339     1.0000 0.94452  0.11392  0.13300  Biso   1.000  C
  C340     1.0000 0.92601  0.03499  0.19141  Biso   1.000  C
  C341     1.0000 0.96501  0.19141  0.07399  Biso   1.000  C
  H378     1.0000 0.89532  0.19009  0.01201  Biso   1.000  H
  H379     1.0000 0.89532  0.19013  0.01201  Biso   1.000  H
  N51      1.0000 0.04491  0.22375  0.96381  Biso   1.000  N
  H380     1.0000 0.00349  0.19712  0.90540  Biso   1.000  H
  O51      1.0000 0.12650  0.16430  0.98618  Biso   1.000  O
  O52      1.0000 0.12650  0.16430  0.98622  Biso   1.000  O
  H381     1.0000 0.12232  0.15450  0.97530  Biso   1.000  H
  N52      1.0000 0.22375  0.03619  0.95509  Biso   1.000  N
  H382     1.0000 0.19712  0.09460  0.99651  Biso   1.000  H
  C342     1.0000 0.26946  0.02752  0.98891  Biso   1.000  C
  H383     1.0000 0.26822  0.94629  0.98072  Biso   1.000  H
  C343     1.0000 0.32020  0.96260  0.04350  Biso   1.000  C
  C344     1.0000 0.97248  0.01109  0.26946  Biso   1.000  C
  C345     1.0000 0.97248  0.01113  0.26946  Biso   1.000  C
  C346     1.0000 0.97252  0.01109  0.26946  Biso   1.000  C
  C347     1.0000 0.97252  0.01113  0.26946  Biso   1.000  C
  C348     1.0000 0.03740  0.95650  0.32020  Biso   1.000  C
  H384     1.0000 0.05371  0.01928  0.26822  Biso   1.000  H
  H385     1.0000 0.05371  0.01932  0.26822  Biso   1.000  H
  O53      1.0000 0.98618  0.12650  0.16430  Biso   1.000  O
  O54      1.0000 0.98622  0.12650  0.16430  Biso   1.000  O
  H386     1.0000 0.97530  0.12232  0.15450  Biso   1.000  H
  N53      1.0000 0.96381  0.04491  0.22375  Biso   1.000  N
  H387     1.0000 0.90540  0.00349  0.19712  Biso   1.000  H
  N54      1.0000 0.95509  0.22375  0.03619  Biso   1.000  N
  H388     1.0000 0.99651  0.19712  0.09460  Biso   1.000  H
  C349     1.0000 0.01109  0.26946  0.97248  Biso   1.000  C
  C350     1.0000 0.01109  0.26946  0.97252  Biso   1.000  C
  C351     1.0000 0.01113  0.26946  0.97248  Biso   1.000  C
  C352     1.0000 0.01113  0.26946  0.97252  Biso   1.000  C
  H389     1.0000 0.10468  0.19009  0.98799  Biso   1.000  H
  H390     1.0000 0.10468  0.19013  0.98799  Biso   1.000  H
  H391     1.0000 0.10472  0.19009  0.98799  Biso   1.000  H
  H392     1.0000 0.10472  0.19013  0.98799  Biso   1.000  H
  C353     1.0000 0.32020  0.03740  0.95650  Biso   1.000  C
  H393     1.0000 0.26822  0.05371  0.01928  Biso   1.000  H
  H394     1.0000 0.26822  0.05371  0.01932  Biso   1.000  H
  C354     1.0000 0.37049  0.97220  0.00980  Biso   1.000  C
  H395     1.0000 0.32020  0.92508  0.05680  Biso   1.000  H
  H396     1.0000 0.32060  0.98678  0.07500  Biso   1.000  H
  H397     1.0000 0.32020  0.92512  0.05680  Biso   1.000  H
  H398     1.0000 0.32060  0.98682  0.07500  Biso   1.000  H
  C355     1.0000 0.37053  0.97220  0.00980  Biso   1.000  C
  H399     1.0000 0.94629  0.98072  0.26822  Biso   1.000  H
  C356     1.0000 0.96260  0.04350  0.32020  Biso   1.000  C
  C357     1.0000 0.02780  0.99020  0.37049  Biso   1.000  C
  H400     1.0000 0.07492  0.94320  0.32020  Biso   1.000  H
  H401     1.0000 0.01322  0.92500  0.32060  Biso   1.000  H
  C358     1.0000 0.02780  0.99020  0.37053  Biso   1.000  C
  H402     1.0000 0.98799  0.10468  0.19009  Biso   1.000  H
  H403     1.0000 0.98799  0.10468  0.19013  Biso   1.000  H
  H404     1.0000 0.98799  0.10472  0.19009  Biso   1.000  H
  H405     1.0000 0.98799  0.10472  0.19013  Biso   1.000  H
  C359     1.0000 0.98891  0.26946  0.02752  Biso   1.000  C
  H406     1.0000 0.98072  0.26822  0.94629  Biso   1.000  H
  C360     1.0000 0.04350  0.32020  0.96260  Biso   1.000  C
  C361     1.0000 0.37049  0.02780  0.99020  Biso   1.000  C
  H407     1.0000 0.32020  0.07492  0.94320  Biso   1.000  H
  H408     1.0000 0.32060  0.01322  0.92500  Biso   1.000  H
  C362     1.0000 0.37053  0.02780  0.99020  Biso   1.000  C
  H409     1.0000 0.37109  0.94710  0.97899  Biso   1.000  H
  H410     1.0000 0.40291  0.96569  0.03190  Biso   1.000  H
  C363     1.0000 0.97220  0.00980  0.37049  Biso   1.000  C
  H411     1.0000 0.92508  0.05680  0.32020  Biso   1.000  H
  H412     1.0000 0.98678  0.07500  0.32060  Biso   1.000  H
  C364     1.0000 0.97220  0.00980  0.37053  Biso   1.000  C
  H413     1.0000 0.92512  0.05680  0.32020  Biso   1.000  H
  H414     1.0000 0.98682  0.07500  0.32060  Biso   1.000  H
  H415     1.0000 0.03431  0.96810  0.40291  Biso   1.000  H
  H416     1.0000 0.05290  0.02101  0.37109  Biso   1.000  H
  C365     1.0000 0.95650  0.32020  0.03740  Biso   1.000  C
  H417     1.0000 0.01928  0.26822  0.05371  Biso   1.000  H
  H418     1.0000 0.01932  0.26822  0.05371  Biso   1.000  H
  C366     1.0000 0.00980  0.37049  0.97220  Biso   1.000  C
  H419     1.0000 0.05680  0.32020  0.92508  Biso   1.000  H
  H420     1.0000 0.07500  0.32060  0.98678  Biso   1.000  H
  H421     1.0000 0.05680  0.32020  0.92512  Biso   1.000  H
  H422     1.0000 0.07500  0.32060  0.98682  Biso   1.000  H
  C367     1.0000 0.00980  0.37053  0.97220  Biso   1.000  C
  H423     1.0000 0.40291  0.03431  0.96810  Biso   1.000  H
  H424     1.0000 0.37109  0.05290  0.02101  Biso   1.000  H
  H425     1.0000 0.94710  0.97899  0.37109  Biso   1.000  H
  H426     1.0000 0.96569  0.03190  0.40291  Biso   1.000  H
  C368     1.0000 0.99020  0.37049  0.02780  Biso   1.000  C
  H427     1.0000 0.94320  0.32020  0.07492  Biso   1.000  H
  H428     1.0000 0.92500  0.32060  0.01322  Biso   1.000  H
  C369     1.0000 0.99020  0.37053  0.02780  Biso   1.000  C
  H429     1.0000 0.97899  0.37109  0.94710  Biso   1.000  H
  H430     1.0000 0.03190  0.40291  0.96569  Biso   1.000  H
  H431     1.0000 0.96810  0.40291  0.03431  Biso   1.000  H
  H432     1.0000 0.02101  0.37109  0.05290  Biso   1.000  H
  C370     1.0000 0.93099  0.85438  0.91191  Biso   1.000  C
  C371     1.0000 0.94448  0.88612  0.86700  Biso   1.000  C
  C372     1.0000 0.94452  0.88612  0.86700  Biso   1.000  C
  C373     1.0000 0.96501  0.80859  0.92601  Biso   1.000  C
  C374     1.0000 0.88612  0.86700  0.94448  Biso   1.000  C
  C375     1.0000 0.88612  0.86700  0.94452  Biso   1.000  C
  C376     1.0000 0.91191  0.93099  0.85438  Biso   1.000  C
  C377     1.0000 0.91191  0.93099  0.85442  Biso   1.000  C
  C378     1.0000 0.91191  0.93103  0.85438  Biso   1.000  C
  C379     1.0000 0.91191  0.93103  0.85442  Biso   1.000  C
  O55      1.0000 0.98618  0.87350  0.83570  Biso   1.000  O
  O56      1.0000 0.98622  0.87350  0.83570  Biso   1.000  O
  C380     1.0000 0.93099  0.85442  0.91191  Biso   1.000  C
  C381     1.0000 0.93103  0.85438  0.91191  Biso   1.000  C
  C382     1.0000 0.93103  0.85442  0.91191  Biso   1.000  C
  H433     1.0000 0.97530  0.87772  0.84550  Biso   1.000  H
  N55      1.0000 0.95509  0.77625  0.96381  Biso   1.000  N
  H434     1.0000 0.99651  0.80288  0.90540  Biso   1.000  H
  N56      1.0000 0.95509  0.77629  0.96381  Biso   1.000  N
  H435     1.0000 0.99651  0.80292  0.90540  Biso   1.000  H
  C383     1.0000 0.85438  0.91191  0.93099  Biso   1.000  C
  C384     1.0000 0.85438  0.91191  0.93103  Biso   1.000  C
  C385     1.0000 0.85442  0.91191  0.93099  Biso   1.000  C
  C386     1.0000 0.85442  0.91191  0.93103  Biso   1.000  C
  O57      1.0000 0.87350  0.83570  0.98618  Biso   1.000  O
  O58      1.0000 0.87350  0.83570  0.98622  Biso   1.000  O
  H436     1.0000 0.87772  0.84550  0.97530  Biso   1.000  H
  C387     1.0000 0.92601  0.96501  0.80859  Biso   1.000  C
  C388     1.0000 0.86700  0.94448  0.88612  Biso   1.000  C
  C389     1.0000 0.86700  0.94452  0.88612  Biso   1.000  C
  H437     1.0000 0.98799  0.89532  0.80991  Biso   1.000  H
  C390     1.0000 0.98891  0.73054  0.97248  Biso   1.000  C
  C391     1.0000 0.98891  0.73054  0.97252  Biso   1.000  C
  C392     1.0000 0.80859  0.92601  0.96501  Biso   1.000  C
  H438     1.0000 0.89532  0.80991  0.98799  Biso   1.000  H
  N57      1.0000 0.96381  0.95509  0.77625  Biso   1.000  N
  N58      1.0000 0.96381  0.95509  0.77629  Biso   1.000  N
  H439     1.0000 0.90540  0.99651  0.80288  Biso   1.000  H
  H440     1.0000 0.90540  0.99651  0.80292  Biso   1.000  H
  O59      1.0000 0.83570  0.98618  0.87350  Biso   1.000  O
  O60      1.0000 0.83570  0.98622  0.87350  Biso   1.000  O
  H441     1.0000 0.84550  0.97530  0.87772  Biso   1.000  H
  C393     1.0000 0.95650  0.67980  0.96260  Biso   1.000  C
  H442     1.0000 0.01928  0.73178  0.94629  Biso   1.000  H
  H443     1.0000 0.01928  0.73182  0.94629  Biso   1.000  H
  H444     1.0000 0.01932  0.73178  0.94629  Biso   1.000  H
  H445     1.0000 0.01932  0.73182  0.94629  Biso   1.000  H
  C394     1.0000 0.01109  0.73054  0.02752  Biso   1.000  C
  C395     1.0000 0.01113  0.73054  0.02752  Biso   1.000  C
  N59      1.0000 0.77625  0.96381  0.95509  Biso   1.000  N
  H446     1.0000 0.80288  0.90540  0.99651  Biso   1.000  H
  N60      1.0000 0.77629  0.96381  0.95509  Biso   1.000  N
  H447     1.0000 0.80292  0.90540  0.99651  Biso   1.000  H
  C396     1.0000 0.97248  0.98891  0.73054  Biso   1.000  C
  C397     1.0000 0.97252  0.98891  0.73054  Biso   1.000  C
  H448     1.0000 0.80991  0.98799  0.89532  Biso   1.000  H
  C398     1.0000 0.99020  0.62951  0.97220  Biso   1.000  C
  H449     1.0000 0.94320  0.67980  0.92508  Biso   1.000  H
  H450     1.0000 0.92500  0.67940  0.98678  Biso   1.000  H
  H451     1.0000 0.94320  0.67980  0.92512  Biso   1.000  H
  H452     1.0000 0.92500  0.67940  0.98682  Biso   1.000  H
  H453     1.0000 0.98072  0.73178  0.05371  Biso   1.000  H
  H454     1.0000 0.98072  0.73182  0.05371  Biso   1.000  H
  C399     1.0000 0.04350  0.67980  0.03740  Biso   1.000  C
  N61      1.0000 0.04491  0.77625  0.03619  Biso   1.000  N
  N62      1.0000 0.04491  0.77629  0.03619  Biso   1.000  N
  C400     1.0000 0.73054  0.97248  0.98891  Biso   1.000  C
  C401     1.0000 0.73054  0.97252  0.98891  Biso   1.000  C
  C402     1.0000 0.96260  0.95650  0.67980  Biso   1.000  C
  H455     1.0000 0.94629  0.01928  0.73178  Biso   1.000  H
  H456     1.0000 0.94629  0.01928  0.73182  Biso   1.000  H
  H457     1.0000 0.94629  0.01932  0.73178  Biso   1.000  H
  H458     1.0000 0.94629  0.01932  0.73182  Biso   1.000  H
  C403     1.0000 0.02752  0.01109  0.73054  Biso   1.000  C
  C404     1.0000 0.02752  0.01113  0.73054  Biso   1.000  C
  H459     1.0000 0.96810  0.59709  0.96569  Biso   1.000  H
  H460     1.0000 0.02101  0.62891  0.94710  Biso   1.000  H
  C405     1.0000 0.00980  0.62951  0.02780  Biso   1.000  C
  H461     1.0000 0.05680  0.67980  0.07492  Biso   1.000  H
  H462     1.0000 0.07500  0.67940  0.01322  Biso   1.000  H
  C406     1.0000 0.03499  0.80859  0.07399  Biso   1.000  C
  C407     1.0000 0.67980  0.96260  0.95650  Biso   1.000  C
  H463     1.0000 0.73178  0.94629  0.01928  Biso   1.000  H
  H464     1.0000 0.73178  0.94629  0.01932  Biso   1.000  H
  H465     1.0000 0.73182  0.94629  0.01928  Biso   1.000  H
  H466     1.0000 0.73182  0.94629  0.01932  Biso   1.000  H
  C408     1.0000 0.73054  0.02752  0.01109  Biso   1.000  C
  C409     1.0000 0.73054  0.02752  0.01113  Biso   1.000  C
  C410     1.0000 0.97220  0.99020  0.62951  Biso   1.000  C
  H467     1.0000 0.92508  0.94320  0.67980  Biso   1.000  H
  H468     1.0000 0.98678  0.92500  0.67940  Biso   1.000  H
  H469     1.0000 0.92512  0.94320  0.67980  Biso   1.000  H
  H470     1.0000 0.98682  0.92500  0.67940  Biso   1.000  H
  C411     1.0000 0.03740  0.04350  0.67980  Biso   1.000  C
  H471     1.0000 0.05371  0.98072  0.73178  Biso   1.000  H
  H472     1.0000 0.05371  0.98072  0.73182  Biso   1.000  H
  N63      1.0000 0.03619  0.04491  0.77625  Biso   1.000  N
  N64      1.0000 0.03619  0.04491  0.77629  Biso   1.000  N
  H473     1.0000 0.97899  0.62891  0.05290  Biso   1.000  H
  H474     1.0000 0.03190  0.59709  0.03431  Biso   1.000  H
  H475     1.0000 0.00349  0.80288  0.09460  Biso   1.000  H
  C412     1.0000 0.06901  0.85438  0.08809  Biso   1.000  C
  H476     1.0000 0.00349  0.80292  0.09460  Biso   1.000  H
  C413     1.0000 0.06901  0.85442  0.08809  Biso   1.000  C
  C414     1.0000 0.62951  0.97220  0.99020  Biso   1.000  C
  H477     1.0000 0.67980  0.92508  0.94320  Biso   1.000  H
  H478     1.0000 0.67940  0.98678  0.92500  Biso   1.000  H
  H479     1.0000 0.67980  0.92512  0.94320  Biso   1.000  H
  H480     1.0000 0.67940  0.98682  0.92500  Biso   1.000  H
  H481     1.0000 0.73178  0.05371  0.98072  Biso   1.000  H
  H482     1.0000 0.73182  0.05371  0.98072  Biso   1.000  H
  C415     1.0000 0.67980  0.03740  0.04350  Biso   1.000  C
  N65      1.0000 0.77625  0.03619  0.04491  Biso   1.000  N
  N66      1.0000 0.77629  0.03619  0.04491  Biso   1.000  N
  H483     1.0000 0.96569  0.96810  0.59709  Biso   1.000  H
  H484     1.0000 0.94710  0.02101  0.62891  Biso   1.000  H
  C416     1.0000 0.02780  0.00980  0.62951  Biso   1.000  C
  H485     1.0000 0.07492  0.05680  0.67980  Biso   1.000  H
  H486     1.0000 0.01322  0.07500  0.67940  Biso   1.000  H
  C417     1.0000 0.07399  0.03499  0.80859  Biso   1.000  C
  C418     1.0000 0.11388  0.86700  0.05552  Biso   1.000  C
  C419     1.0000 0.05552  0.88612  0.13300  Biso   1.000  C
  C420     1.0000 0.11392  0.86700  0.05552  Biso   1.000  C
  H487     1.0000 0.59709  0.96569  0.96810  Biso   1.000  H
  H488     1.0000 0.62891  0.94710  0.02101  Biso   1.000  H
  C421     1.0000 0.62951  0.02780  0.00980  Biso   1.000  C
  H489     1.0000 0.67980  0.07492  0.05680  Biso   1.000  H
  H490     1.0000 0.67940  0.01322  0.07500  Biso   1.000  H
  C422     1.0000 0.80859  0.07399  0.03499  Biso   1.000  C
  H491     1.0000 0.05290  0.97899  0.62891  Biso   1.000  H
  H492     1.0000 0.03431  0.03190  0.59709  Biso   1.000  H
  H493     1.0000 0.09460  0.00349  0.80288  Biso   1.000  H
  C423     1.0000 0.08809  0.06901  0.85438  Biso   1.000  C
  H494     1.0000 0.09460  0.00349  0.80292  Biso   1.000  H
  C424     1.0000 0.08809  0.06901  0.85442  Biso   1.000  C
  C425     1.0000 0.14562  0.91191  0.06901  Biso   1.000  C
  O61      1.0000 0.12650  0.83570  0.01382  Biso   1.000  O
  H495     1.0000 0.12232  0.84550  0.02470  Biso   1.000  H
  C426     1.0000 0.08809  0.93099  0.14562  Biso   1.000  C
  O62      1.0000 0.01382  0.87350  0.16430  Biso   1.000  O
  C427     1.0000 0.08809  0.93103  0.14562  Biso   1.000  C
  H496     1.0000 0.02470  0.87772  0.15450  Biso   1.000  H
  H497     1.0000 0.62891  0.05290  0.97899  Biso   1.000  H
  H498     1.0000 0.59709  0.03431  0.03190  Biso   1.000  H
  H499     1.0000 0.80288  0.09460  0.00349  Biso   1.000  H
  C428     1.0000 0.85438  0.08809  0.06901  Biso   1.000  C
  H500     1.0000 0.80292  0.09460  0.00349  Biso   1.000  H
  C429     1.0000 0.85442  0.08809  0.06901  Biso   1.000  C
  C430     1.0000 0.05552  0.11388  0.86700  Biso   1.000  C
  C431     1.0000 0.13300  0.05552  0.88612  Biso   1.000  C
  C432     1.0000 0.05552  0.11392  0.86700  Biso   1.000  C
  C433     1.0000 0.19141  0.92601  0.03499  Biso   1.000  C
  C434     1.0000 0.13300  0.94448  0.11388  Biso   1.000  C
  C435     1.0000 0.13300  0.94448  0.11392  Biso   1.000  C
  C436     1.0000 0.13300  0.94452  0.11388  Biso   1.000  C
  C437     1.0000 0.13300  0.94452  0.11392  Biso   1.000  C
  H501     1.0000 0.10468  0.80991  0.01201  Biso   1.000  H
  H502     1.0000 0.10472  0.80991  0.01201  Biso   1.000  H
  C438     1.0000 0.07399  0.96501  0.19141  Biso   1.000  C
  H503     1.0000 0.01201  0.89532  0.19009  Biso   1.000  H
  H504     1.0000 0.01201  0.89532  0.19013  Biso   1.000  H
  C439     1.0000 0.86700  0.05552  0.11388  Biso   1.000  C
  C440     1.0000 0.88612  0.13300  0.05552  Biso   1.000  C
  C441     1.0000 0.86700  0.05552  0.11392  Biso   1.000  C
  O63      1.0000 0.01382  0.12650  0.83570  Biso   1.000  O
  C442     1.0000 0.06901  0.14562  0.91191  Biso   1.000  C
  H505     1.0000 0.02470  0.12232  0.84550  Biso   1.000  H
  C443     1.0000 0.14562  0.08809  0.93099  Biso   1.000  C
  O64      1.0000 0.16430  0.01382  0.87350  Biso   1.000  O
  C444     1.0000 0.14562  0.08809  0.93103  Biso   1.000  C
  H506     1.0000 0.15450  0.02470  0.87772  Biso   1.000  H
  N67      1.0000 0.22375  0.96381  0.04491  Biso   1.000  N
  H507     1.0000 0.19712  0.90540  0.00349  Biso   1.000  H
  O65      1.0000 0.16430  0.98618  0.12650  Biso   1.000  O
  O66      1.0000 0.16430  0.98622  0.12650  Biso   1.000  O
  H508     1.0000 0.15450  0.97530  0.12232  Biso   1.000  H
  N68      1.0000 0.03619  0.95509  0.22375  Biso   1.000  N
  H509     1.0000 0.09460  0.99651  0.19712  Biso   1.000  H
  O67      1.0000 0.83570  0.01382  0.12650  Biso   1.000  O
  C445     1.0000 0.91191  0.06901  0.14562  Biso   1.000  C
  H510     1.0000 0.84550  0.02470  0.12232  Biso   1.000  H
  C446     1.0000 0.93099  0.14562  0.08809  Biso   1.000  C
  C447     1.0000 0.93103  0.14562  0.08809  Biso   1.000  C
  O68      1.0000 0.87350  0.16430  0.01382  Biso   1.000  O
  H511     1.0000 0.87772  0.15450  0.02470  Biso   1.000  H
  H512     1.0000 0.01201  0.10468  0.80991  Biso   1.000  H
  H513     1.0000 0.01201  0.10472  0.80991  Biso   1.000  H
  C448     1.0000 0.03499  0.19141  0.92601  Biso   1.000  C
  C449     1.0000 0.11388  0.13300  0.94448  Biso   1.000  C
  C450     1.0000 0.11388  0.13300  0.94452  Biso   1.000  C
  C451     1.0000 0.11392  0.13300  0.94448  Biso   1.000  C
  C452     1.0000 0.11392  0.13300  0.94452  Biso   1.000  C
  C453     1.0000 0.19141  0.07399  0.96501  Biso   1.000  C
  H514     1.0000 0.19009  0.01201  0.89532  Biso   1.000  H
  H515     1.0000 0.19013  0.01201  0.89532  Biso   1.000  H
  C454     1.0000 0.26946  0.97248  0.01109  Biso   1.000  C
  C455     1.0000 0.26946  0.97248  0.01113  Biso   1.000  C
  C456     1.0000 0.26946  0.97252  0.01109  Biso   1.000  C
  C457     1.0000 0.26946  0.97252  0.01113  Biso   1.000  C
  H516     1.0000 0.19009  0.98799  0.10468  Biso   1.000  H
  H517     1.0000 0.19009  0.98799  0.10472  Biso   1.000  H
  H518     1.0000 0.19013  0.98799  0.10468  Biso   1.000  H
  H519     1.0000 0.19013  0.98799  0.10472  Biso   1.000  H
  C458     1.0000 0.02752  0.98891  0.26946  Biso   1.000  C
  H520     1.0000 0.80991  0.01201  0.10468  Biso   1.000  H
  H521     1.0000 0.80991  0.01201  0.10472  Biso   1.000  H
  C459     1.0000 0.94448  0.11388  0.13300  Biso   1.000  C
  C460     1.0000 0.94448  0.11392  0.13300  Biso   1.000  C
  C461     1.0000 0.94452  0.11388  0.13300  Biso   1.000  C
  C462     1.0000 0.94452  0.11392  0.13300  Biso   1.000  C
  C463     1.0000 0.92601  0.03499  0.19141  Biso   1.000  C
  C464     1.0000 0.96501  0.19141  0.07399  Biso   1.000  C
  H522     1.0000 0.89532  0.19009  0.01201  Biso   1.000  H
  H523     1.0000 0.89532  0.19013  0.01201  Biso   1.000  H
  N69      1.0000 0.04491  0.22375  0.96381  Biso   1.000  N
  H524     1.0000 0.00349  0.19712  0.90540  Biso   1.000  H
  O69      1.0000 0.12650  0.16430  0.98618  Biso   1.000  O
  O70      1.0000 0.12650  0.16430  0.98622  Biso   1.000  O
  H525     1.0000 0.12232  0.15450  0.97530  Biso   1.000  H
  N70      1.0000 0.22375  0.03619  0.95509  Biso   1.000  N
  H526     1.0000 0.19712  0.09460  0.99651  Biso   1.000  H
  C465     1.0000 0.26946  0.02752  0.98891  Biso   1.000  C
  H527     1.0000 0.26822  0.94629  0.98072  Biso   1.000  H
  C466     1.0000 0.32020  0.96260  0.04350  Biso   1.000  C
  C467     1.0000 0.97248  0.01109  0.26946  Biso   1.000  C
  C468     1.0000 0.97248  0.01113  0.26946  Biso   1.000  C
  C469     1.0000 0.97252  0.01109  0.26946  Biso   1.000  C
  C470     1.0000 0.97252  0.01113  0.26946  Biso   1.000  C
  C471     1.0000 0.03740  0.95650  0.32020  Biso   1.000  C
  H528     1.0000 0.05371  0.01928  0.26822  Biso   1.000  H
  H529     1.0000 0.05371  0.01932  0.26822  Biso   1.000  H
  O71      1.0000 0.98618  0.12650  0.16430  Biso   1.000  O
  O72      1.0000 0.98622  0.12650  0.16430  Biso   1.000  O
  H530     1.0000 0.97530  0.12232  0.15450  Biso   1.000  H
  N71      1.0000 0.96381  0.04491  0.22375  Biso   1.000  N
  H531     1.0000 0.90540  0.00349  0.19712  Biso   1.000  H
  N72      1.0000 0.95509  0.22375  0.03619  Biso   1.000  N
  H532     1.0000 0.99651  0.19712  0.09460  Biso   1.000  H
  C472     1.0000 0.01109  0.26946  0.97248  Biso   1.000  C
  C473     1.0000 0.01109  0.26946  0.97252  Biso   1.000  C
  C474     1.0000 0.01113  0.26946  0.97248  Biso   1.000  C
  C475     1.0000 0.01113  0.26946  0.97252  Biso   1.000  C
  H533     1.0000 0.10468  0.19009  0.98799  Biso   1.000  H
  H534     1.0000 0.10468  0.19013  0.98799  Biso   1.000  H
  H535     1.0000 0.10472  0.19009  0.98799  Biso   1.000  H
  H536     1.0000 0.10472  0.19013  0.98799  Biso   1.000  H
  C476     1.0000 0.32020  0.03740  0.95650  Biso   1.000  C
  H537     1.0000 0.26822  0.05371  0.01928  Biso   1.000  H
  H538     1.0000 0.26822  0.05371  0.01932  Biso   1.000  H
  C477     1.0000 0.37049  0.97220  0.00980  Biso   1.000  C
  H539     1.0000 0.32020  0.92508  0.05680  Biso   1.000  H
  H540     1.0000 0.32060  0.98678  0.07500  Biso   1.000  H
  H541     1.0000 0.32020  0.92512  0.05680  Biso   1.000  H
  H542     1.0000 0.32060  0.98682  0.07500  Biso   1.000  H
  C478     1.0000 0.37053  0.97220  0.00980  Biso   1.000  C
  H543     1.0000 0.94629  0.98072  0.26822  Biso   1.000  H
  C479     1.0000 0.96260  0.04350  0.32020  Biso   1.000  C
  C480     1.0000 0.02780  0.99020  0.37049  Biso   1.000  C
  H544     1.0000 0.07492  0.94320  0.32020  Biso   1.000  H
  H545     1.0000 0.01322  0.92500  0.32060  Biso   1.000  H
  C481     1.0000 0.02780  0.99020  0.37053  Biso   1.000  C
  H546     1.0000 0.98799  0.10468  0.19009  Biso   1.000  H
  H547     1.0000 0.98799  0.10468  0.19013  Biso   1.000  H
  H548     1.0000 0.98799  0.10472  0.19009  Biso   1.000  H
  H549     1.0000 0.98799  0.10472  0.19013  Biso   1.000  H
  C482     1.0000 0.98891  0.26946  0.02752  Biso   1.000  C
  H550     1.0000 0.98072  0.26822  0.94629  Biso   1.000  H
  C483     1.0000 0.04350  0.32020  0.96260  Biso   1.000  C
  C484     1.0000 0.37049  0.02780  0.99020  Biso   1.000  C
  H551     1.0000 0.32020  0.07492  0.94320  Biso   1.000  H
  H552     1.0000 0.32060  0.01322  0.92500  Biso   1.000  H
  C485     1.0000 0.37053  0.02780  0.99020  Biso   1.000  C
  H553     1.0000 0.37109  0.94710  0.97899  Biso   1.000  H
  H554     1.0000 0.40291  0.96569  0.03190  Biso   1.000  H
  C486     1.0000 0.97220  0.00980  0.37049  Biso   1.000  C
  H555     1.0000 0.92508  0.05680  0.32020  Biso   1.000  H
  H556     1.0000 0.98678  0.07500  0.32060  Biso   1.000  H
  C487     1.0000 0.97220  0.00980  0.37053  Biso   1.000  C
  H557     1.0000 0.92512  0.05680  0.32020  Biso   1.000  H
  H558     1.0000 0.98682  0.07500  0.32060  Biso   1.000  H
  H559     1.0000 0.03431  0.96810  0.40291  Biso   1.000  H
  H560     1.0000 0.05290  0.02101  0.37109  Biso   1.000  H
  C488     1.0000 0.95650  0.32020  0.03740  Biso   1.000  C
  H561     1.0000 0.01928  0.26822  0.05371  Biso   1.000  H
  H562     1.0000 0.01932  0.26822  0.05371  Biso   1.000  H
  C489     1.0000 0.00980  0.37049  0.97220  Biso   1.000  C
  H563     1.0000 0.05680  0.32020  0.92508  Biso   1.000  H
  H564     1.0000 0.07500  0.32060  0.98678  Biso   1.000  H
  H565     1.0000 0.05680  0.32020  0.92512  Biso   1.000  H
  H566     1.0000 0.07500  0.32060  0.98682  Biso   1.000  H
  C490     1.0000 0.00980  0.37053  0.97220  Biso   1.000  C
  H567     1.0000 0.40291  0.03431  0.96810  Biso   1.000  H
  H568     1.0000 0.37109  0.05290  0.02101  Biso   1.000  H
  H569     1.0000 0.94710  0.97899  0.37109  Biso   1.000  H
  H570     1.0000 0.96569  0.03190  0.40291  Biso   1.000  H
  C491     1.0000 0.99020  0.37049  0.02780  Biso   1.000  C
  H571     1.0000 0.94320  0.32020  0.07492  Biso   1.000  H
  H572     1.0000 0.92500  0.32060  0.01322  Biso   1.000  H
  C492     1.0000 0.99020  0.37053  0.02780  Biso   1.000  C
  H573     1.0000 0.97899  0.37109  0.94710  Biso   1.000  H
  H574     1.0000 0.03190  0.40291  0.96569  Biso   1.000  H
  H575     1.0000 0.96810  0.40291  0.03431  Biso   1.000  H
  H576     1.0000 0.02101  0.37109  0.05290  Biso   1.000  H
  C493     1.0000 0.93099  0.85438  0.91191  Biso   1.000  C
  C494     1.0000 0.94448  0.88612  0.86700  Biso   1.000  C
  C495     1.0000 0.94452  0.88612  0.86700  Biso   1.000  C
  C496     1.0000 0.96501  0.80859  0.92601  Biso   1.000  C
  C497     1.0000 0.88612  0.86700  0.94448  Biso   1.000  C
  C498     1.0000 0.88612  0.86700  0.94452  Biso   1.000  C
  C499     1.0000 0.91191  0.93099  0.85438  Biso   1.000  C
  C500     1.0000 0.91191  0.93099  0.85442  Biso   1.000  C
  C501     1.0000 0.91191  0.93103  0.85438  Biso   1.000  C
  C502     1.0000 0.91191  0.93103  0.85442  Biso   1.000  C
  O73      1.0000 0.98618  0.87350  0.83570  Biso   1.000  O
  C503     1.0000 0.93099  0.85442  0.91191  Biso   1.000  C
  O74      1.0000 0.98622  0.87350  0.83570  Biso   1.000  O
  C504     1.0000 0.93103  0.85438  0.91191  Biso   1.000  C
  C505     1.0000 0.93103  0.85442  0.91191  Biso   1.000  C
  H577     1.0000 0.97530  0.87772  0.84550  Biso   1.000  H
  N73      1.0000 0.95509  0.77625  0.96381  Biso   1.000  N
  H578     1.0000 0.99651  0.80288  0.90540  Biso   1.000  H
  N74      1.0000 0.95509  0.77629  0.96381  Biso   1.000  N
  H579     1.0000 0.99651  0.80292  0.90540  Biso   1.000  H
  C506     1.0000 0.85438  0.91191  0.93099  Biso   1.000  C
  C507     1.0000 0.85438  0.91191  0.93103  Biso   1.000  C
  C508     1.0000 0.85442  0.91191  0.93099  Biso   1.000  C
  C509     1.0000 0.85442  0.91191  0.93103  Biso   1.000  C
  O75      1.0000 0.87350  0.83570  0.98618  Biso   1.000  O
  O76      1.0000 0.87350  0.83570  0.98622  Biso   1.000  O
  H580     1.0000 0.87772  0.84550  0.97530  Biso   1.000  H
  C510     1.0000 0.92601  0.96501  0.80859  Biso   1.000  C
  C511     1.0000 0.86700  0.94448  0.88612  Biso   1.000  C
  C512     1.0000 0.86700  0.94452  0.88612  Biso   1.000  C
  H581     1.0000 0.98799  0.89532  0.80991  Biso   1.000  H
  C513     1.0000 0.98891  0.73054  0.97248  Biso   1.000  C
  C514     1.0000 0.98891  0.73054  0.97252  Biso   1.000  C
  C515     1.0000 0.80859  0.92601  0.96501  Biso   1.000  C
  H582     1.0000 0.89532  0.80991  0.98799  Biso   1.000  H
  N75      1.0000 0.96381  0.95509  0.77625  Biso   1.000  N
  N76      1.0000 0.96381  0.95509  0.77629  Biso   1.000  N
  H583     1.0000 0.90540  0.99651  0.80288  Biso   1.000  H
  H584     1.0000 0.90540  0.99651  0.80292  Biso   1.000  H
  O77      1.0000 0.83570  0.98618  0.87350  Biso   1.000  O
  O78      1.0000 0.83570  0.98622  0.87350  Biso   1.000  O
  H585     1.0000 0.84550  0.97530  0.87772  Biso   1.000  H
  C516     1.0000 0.95650  0.67980  0.96260  Biso   1.000  C
  H586     1.0000 0.01928  0.73178  0.94629  Biso   1.000  H
  H587     1.0000 0.01928  0.73182  0.94629  Biso   1.000  H
  H588     1.0000 0.01932  0.73178  0.94629  Biso   1.000  H
  H589     1.0000 0.01932  0.73182  0.94629  Biso   1.000  H
  C517     1.0000 0.01109  0.73054  0.02752  Biso   1.000  C
  C518     1.0000 0.01113  0.73054  0.02752  Biso   1.000  C
  N77      1.0000 0.77625  0.96381  0.95509  Biso   1.000  N
  H590     1.0000 0.80288  0.90540  0.99651  Biso   1.000  H
  N78      1.0000 0.77629  0.96381  0.95509  Biso   1.000  N
  H591     1.0000 0.80292  0.90540  0.99651  Biso   1.000  H
  C519     1.0000 0.97248  0.98891  0.73054  Biso   1.000  C
  C520     1.0000 0.97252  0.98891  0.73054  Biso   1.000  C
  H592     1.0000 0.80991  0.98799  0.89532  Biso   1.000  H
  C521     1.0000 0.99020  0.62951  0.97220  Biso   1.000  C
  H593     1.0000 0.94320  0.67980  0.92508  Biso   1.000  H
  H594     1.0000 0.92500  0.67940  0.98678  Biso   1.000  H
  H595     1.0000 0.94320  0.67980  0.92512  Biso   1.000  H
  H596     1.0000 0.92500  0.67940  0.98682  Biso   1.000  H
  H597     1.0000 0.98072  0.73178  0.05371  Biso   1.000  H
  H598     1.0000 0.98072  0.73182  0.05371  Biso   1.000  H
  C522     1.0000 0.04350  0.67980  0.03740  Biso   1.000  C
  N79      1.0000 0.04491  0.77625  0.03619  Biso   1.000  N
  N80      1.0000 0.04491  0.77629  0.03619  Biso   1.000  N
  C523     1.0000 0.73054  0.97248  0.98891  Biso   1.000  C
  C524     1.0000 0.73054  0.97252  0.98891  Biso   1.000  C
  C525     1.0000 0.96260  0.95650  0.67980  Biso   1.000  C
  H599     1.0000 0.94629  0.01928  0.73178  Biso   1.000  H
  H600     1.0000 0.94629  0.01928  0.73182  Biso   1.000  H
  H601     1.0000 0.94629  0.01932  0.73178  Biso   1.000  H
  H602     1.0000 0.94629  0.01932  0.73182  Biso   1.000  H
  C526     1.0000 0.02752  0.01109  0.73054  Biso   1.000  C
  C527     1.0000 0.02752  0.01113  0.73054  Biso   1.000  C
  H603     1.0000 0.96810  0.59709  0.96569  Biso   1.000  H
  H604     1.0000 0.02101  0.62891  0.94710  Biso   1.000  H
  C528     1.0000 0.00980  0.62951  0.02780  Biso   1.000  C
  H605     1.0000 0.05680  0.67980  0.07492  Biso   1.000  H
  H606     1.0000 0.07500  0.67940  0.01322  Biso   1.000  H
  C529     1.0000 0.03499  0.80859  0.07399  Biso   1.000  C
  C530     1.0000 0.67980  0.96260  0.95650  Biso   1.000  C
  H607     1.0000 0.73178  0.94629  0.01928  Biso   1.000  H
  H608     1.0000 0.73178  0.94629  0.01932  Biso   1.000  H
  H609     1.0000 0.73182  0.94629  0.01928  Biso   1.000  H
  H610     1.0000 0.73182  0.94629  0.01932  Biso   1.000  H
  C531     1.0000 0.73054  0.02752  0.01109  Biso   1.000  C
  C532     1.0000 0.73054  0.02752  0.01113  Biso   1.000  C
  C533     1.0000 0.97220  0.99020  0.62951  Biso   1.000  C
  H611     1.0000 0.92508  0.94320  0.67980  Biso   1.000  H
  H612     1.0000 0.98678  0.92500  0.67940  Biso   1.000  H
  H613     1.0000 0.92512  0.94320  0.67980  Biso   1.000  H
  H614     1.0000 0.98682  0.92500  0.67940  Biso   1.000  H
  C534     1.0000 0.03740  0.04350  0.67980  Biso   1.000  C
  H615     1.0000 0.05371  0.98072  0.73178  Biso   1.000  H
  H616     1.0000 0.05371  0.98072  0.73182  Biso   1.000  H
  N81      1.0000 0.03619  0.04491  0.77625  Biso   1.000  N
  N82      1.0000 0.03619  0.04491  0.77629  Biso   1.000  N
  H617     1.0000 0.97899  0.62891  0.05290  Biso   1.000  H
  H618     1.0000 0.03190  0.59709  0.03431  Biso   1.000  H
  H619     1.0000 0.00349  0.80288  0.09460  Biso   1.000  H
  C535     1.0000 0.06901  0.85438  0.08809  Biso   1.000  C
  H620     1.0000 0.00349  0.80292  0.09460  Biso   1.000  H
  C536     1.0000 0.06901  0.85442  0.08809  Biso   1.000  C
  C537     1.0000 0.62951  0.97220  0.99020  Biso   1.000  C
  H621     1.0000 0.67980  0.92508  0.94320  Biso   1.000  H
  H622     1.0000 0.67940  0.98678  0.92500  Biso   1.000  H
  H623     1.0000 0.67980  0.92512  0.94320  Biso   1.000  H
  H624     1.0000 0.67940  0.98682  0.92500  Biso   1.000  H
  H625     1.0000 0.73178  0.05371  0.98072  Biso   1.000  H
  H626     1.0000 0.73182  0.05371  0.98072  Biso   1.000  H
  C538     1.0000 0.67980  0.03740  0.04350  Biso   1.000  C
  N83      1.0000 0.77625  0.03619  0.04491  Biso   1.000  N
  N84      1.0000 0.77629  0.03619  0.04491  Biso   1.000  N
  H627     1.0000 0.96569  0.96810  0.59709  Biso   1.000  H
  H628     1.0000 0.94710  0.02101  0.62891  Biso   1.000  H
  C539     1.0000 0.02780  0.00980  0.62951  Biso   1.000  C
  H629     1.0000 0.07492  0.05680  0.67980  Biso   1.000  H
  H630     1.0000 0.01322  0.07500  0.67940  Biso   1.000  H
  C540     1.0000 0.07399  0.03499  0.80859  Biso   1.000  C
  C541     1.0000 0.11388  0.86700  0.05552  Biso   1.000  C
  C542     1.0000 0.05552  0.88612  0.13300  Biso   1.000  C
  C543     1.0000 0.11392  0.86700  0.05552  Biso   1.000  C
  H631     1.0000 0.59709  0.96569  0.96810  Biso   1.000  H
  H632     1.0000 0.62891  0.94710  0.02101  Biso   1.000  H
  C544     1.0000 0.62951  0.02780  0.00980  Biso   1.000  C
  H633     1.0000 0.67980  0.07492  0.05680  Biso   1.000  H
  H634     1.0000 0.67940  0.01322  0.07500  Biso   1.000  H
  C545     1.0000 0.80859  0.07399  0.03499  Biso   1.000  C
  H635     1.0000 0.05290  0.97899  0.62891  Biso   1.000  H
  H636     1.0000 0.03431  0.03190  0.59709  Biso   1.000  H
  H637     1.0000 0.09460  0.00349  0.80288  Biso   1.000  H
  C546     1.0000 0.08809  0.06901  0.85438  Biso   1.000  C
  H638     1.0000 0.09460  0.00349  0.80292  Biso   1.000  H
  C547     1.0000 0.08809  0.06901  0.85442  Biso   1.000  C
  C548     1.0000 0.14562  0.91191  0.06901  Biso   1.000  C
  O79      1.0000 0.12650  0.83570  0.01382  Biso   1.000  O
  H639     1.0000 0.12232  0.84550  0.02470  Biso   1.000  H
  C549     1.0000 0.08809  0.93099  0.14562  Biso   1.000  C
  O80      1.0000 0.01382  0.87350  0.16430  Biso   1.000  O
  C550     1.0000 0.08809  0.93103  0.14562  Biso   1.000  C
  H640     1.0000 0.02470  0.87772  0.15450  Biso   1.000  H
  H641     1.0000 0.62891  0.05290  0.97899  Biso   1.000  H
  H642     1.0000 0.59709  0.03431  0.03190  Biso   1.000  H
  H643     1.0000 0.80288  0.09460  0.00349  Biso   1.000  H
  C551     1.0000 0.85438  0.08809  0.06901  Biso   1.000  C
  H644     1.0000 0.80292  0.09460  0.00349  Biso   1.000  H
  C552     1.0000 0.85442  0.08809  0.06901  Biso   1.000  C
  C553     1.0000 0.05552  0.11388  0.86700  Biso   1.000  C
  C554     1.0000 0.13300  0.05552  0.88612  Biso   1.000  C
  C555     1.0000 0.05552  0.11392  0.86700  Biso   1.000  C
  C556     1.0000 0.19141  0.92601  0.03499  Biso   1.000  C
  C557     1.0000 0.13300  0.94448  0.11388  Biso   1.000  C
  C558     1.0000 0.13300  0.94448  0.11392  Biso   1.000  C
  C559     1.0000 0.13300  0.94452  0.11388  Biso   1.000  C
  C560     1.0000 0.13300  0.94452  0.11392  Biso   1.000  C
  H645     1.0000 0.10468  0.80991  0.01201  Biso   1.000  H
  H646     1.0000 0.10472  0.80991  0.01201  Biso   1.000  H
  C561     1.0000 0.07399  0.96501  0.19141  Biso   1.000  C
  H647     1.0000 0.01201  0.89532  0.19009  Biso   1.000  H
  H648     1.0000 0.01201  0.89532  0.19013  Biso   1.000  H
  C562     1.0000 0.86700  0.05552  0.11388  Biso   1.000  C
  C563     1.0000 0.88612  0.13300  0.05552  Biso   1.000  C
  C564     1.0000 0.86700  0.05552  0.11392  Biso   1.000  C
  O81      1.0000 0.01382  0.12650  0.83570  Biso   1.000  O
  C565     1.0000 0.06901  0.14562  0.91191  Biso   1.000  C
  H649     1.0000 0.02470  0.12232  0.84550  Biso   1.000  H
  C566     1.0000 0.14562  0.08809  0.93099  Biso   1.000  C
  O82      1.0000 0.16430  0.01382  0.87350  Biso   1.000  O
  C567     1.0000 0.14562  0.08809  0.93103  Biso   1.000  C
  H650     1.0000 0.15450  0.02470  0.87772  Biso   1.000  H
  N85      1.0000 0.22375  0.96381  0.04491  Biso   1.000  N
  H651     1.0000 0.19712  0.90540  0.00349  Biso   1.000  H
  O83      1.0000 0.16430  0.98618  0.12650  Biso   1.000  O
  O84      1.0000 0.16430  0.98622  0.12650  Biso   1.000  O
  H652     1.0000 0.15450  0.97530  0.12232  Biso   1.000  H
  N86      1.0000 0.03619  0.95509  0.22375  Biso   1.000  N
  H653     1.0000 0.09460  0.99651  0.19712  Biso   1.000  H
  O85      1.0000 0.83570  0.01382  0.12650  Biso   1.000  O
  C568     1.0000 0.91191  0.06901  0.14562  Biso   1.000  C
  H654     1.0000 0.84550  0.02470  0.12232  Biso   1.000  H
  C569     1.0000 0.93099  0.14562  0.08809  Biso   1.000  C
  C570     1.0000 0.93103  0.14562  0.08809  Biso   1.000  C
  O86      1.0000 0.87350  0.16430  0.01382  Biso   1.000  O
  H655     1.0000 0.87772  0.15450  0.02470  Biso   1.000  H
  H656     1.0000 0.01201  0.10468  0.80991  Biso   1.000  H
  H657     1.0000 0.01201  0.10472  0.80991  Biso   1.000  H
  C571     1.0000 0.03499  0.19141  0.92601  Biso   1.000  C
  C572     1.0000 0.11388  0.13300  0.94448  Biso   1.000  C
  C573     1.0000 0.11388  0.13300  0.94452  Biso   1.000  C
  C574     1.0000 0.11392  0.13300  0.94448  Biso   1.000  C
  C575     1.0000 0.11392  0.13300  0.94452  Biso   1.000  C
  C576     1.0000 0.19141  0.07399  0.96501  Biso   1.000  C
  H658     1.0000 0.19009  0.01201  0.89532  Biso   1.000  H
  H659     1.0000 0.19013  0.01201  0.89532  Biso   1.000  H
  C577     1.0000 0.26946  0.97248  0.01109  Biso   1.000  C
  C578     1.0000 0.26946  0.97248  0.01113  Biso   1.000  C
  C579     1.0000 0.26946  0.97252  0.01109  Biso   1.000  C
  C580     1.0000 0.26946  0.97252  0.01113  Biso   1.000  C
  H660     1.0000 0.19009  0.98799  0.10468  Biso   1.000  H
  H661     1.0000 0.19009  0.98799  0.10472  Biso   1.000  H
  H662     1.0000 0.19013  0.98799  0.10468  Biso   1.000  H
  H663     1.0000 0.19013  0.98799  0.10472  Biso   1.000  H
  C581     1.0000 0.02752  0.98891  0.26946  Biso   1.000  C
  H664     1.0000 0.80991  0.01201  0.10468  Biso   1.000  H
  H665     1.0000 0.80991  0.01201  0.10472  Biso   1.000  H
  C582     1.0000 0.94448  0.11388  0.13300  Biso   1.000  C
  C583     1.0000 0.94448  0.11392  0.13300  Biso   1.000  C
  C584     1.0000 0.94452  0.11388  0.13300  Biso   1.000  C
  C585     1.0000 0.94452  0.11392  0.13300  Biso   1.000  C
  C586     1.0000 0.92601  0.03499  0.19141  Biso   1.000  C
  C587     1.0000 0.96501  0.19141  0.07399  Biso   1.000  C
  H666     1.0000 0.89532  0.19009  0.01201  Biso   1.000  H
  H667     1.0000 0.89532  0.19013  0.01201  Biso   1.000  H
  N87      1.0000 0.04491  0.22375  0.96381  Biso   1.000  N
  H668     1.0000 0.00349  0.19712  0.90540  Biso   1.000  H
  O87      1.0000 0.12650  0.16430  0.98618  Biso   1.000  O
  O88      1.0000 0.12650  0.16430  0.98622  Biso   1.000  O
  H669     1.0000 0.12232  0.15450  0.97530  Biso   1.000  H
  N88      1.0000 0.22375  0.03619  0.95509  Biso   1.000  N
  H670     1.0000 0.19712  0.09460  0.99651  Biso   1.000  H
  C588     1.0000 0.26946  0.02752  0.98891  Biso   1.000  C
  H671     1.0000 0.26822  0.94629  0.98072  Biso   1.000  H
  C589     1.0000 0.32020  0.96260  0.04350  Biso   1.000  C
  C590     1.0000 0.97248  0.01109  0.26946  Biso   1.000  C
  C591     1.0000 0.97248  0.01113  0.26946  Biso   1.000  C
  C592     1.0000 0.97252  0.01109  0.26946  Biso   1.000  C
  C593     1.0000 0.97252  0.01113  0.26946  Biso   1.000  C
  C594     1.0000 0.03740  0.95650  0.32020  Biso   1.000  C
  H672     1.0000 0.05371  0.01928  0.26822  Biso   1.000  H
  H673     1.0000 0.05371  0.01932  0.26822  Biso   1.000  H
  O89      1.0000 0.98618  0.12650  0.16430  Biso   1.000  O
  O90      1.0000 0.98622  0.12650  0.16430  Biso   1.000  O
  H674     1.0000 0.97530  0.12232  0.15450  Biso   1.000  H
  N89      1.0000 0.96381  0.04491  0.22375  Biso   1.000  N
  H675     1.0000 0.90540  0.00349  0.19712  Biso   1.000  H
  N90      1.0000 0.95509  0.22375  0.03619  Biso   1.000  N
  H676     1.0000 0.99651  0.19712  0.09460  Biso   1.000  H
  C595     1.0000 0.01109  0.26946  0.97248  Biso   1.000  C
  C596     1.0000 0.01109  0.26946  0.97252  Biso   1.000  C
  C597     1.0000 0.01113  0.26946  0.97248  Biso   1.000  C
  C598     1.0000 0.01113  0.26946  0.97252  Biso   1.000  C
  H677     1.0000 0.10468  0.19009  0.98799  Biso   1.000  H
  H678     1.0000 0.10468  0.19013  0.98799  Biso   1.000  H
  H679     1.0000 0.10472  0.19009  0.98799  Biso   1.000  H
  H680     1.0000 0.10472  0.19013  0.98799  Biso   1.000  H
  C599     1.0000 0.32020  0.03740  0.95650  Biso   1.000  C
  H681     1.0000 0.26822  0.05371  0.01928  Biso   1.000  H
  H682     1.0000 0.26822  0.05371  0.01932  Biso   1.000  H
  C600     1.0000 0.37049  0.97220  0.00980  Biso   1.000  C
  H683     1.0000 0.32020  0.92508  0.05680  Biso   1.000  H
  H684     1.0000 0.32060  0.98678  0.07500  Biso   1.000  H
  H685     1.0000 0.32020  0.92512  0.05680  Biso   1.000  H
  H686     1.0000 0.32060  0.98682  0.07500  Biso   1.000  H
  C601     1.0000 0.37053  0.97220  0.00980  Biso   1.000  C
  H687     1.0000 0.94629  0.98072  0.26822  Biso   1.000  H
  C602     1.0000 0.96260  0.04350  0.32020  Biso   1.000  C
  C603     1.0000 0.02780  0.99020  0.37049  Biso   1.000  C
  H688     1.0000 0.07492  0.94320  0.32020  Biso   1.000  H
  H689     1.0000 0.01322  0.92500  0.32060  Biso   1.000  H
  C604     1.0000 0.02780  0.99020  0.37053  Biso   1.000  C
  H690     1.0000 0.98799  0.10468  0.19009  Biso   1.000  H
  H691     1.0000 0.98799  0.10468  0.19013  Biso   1.000  H
  H692     1.0000 0.98799  0.10472  0.19009  Biso   1.000  H
  H693     1.0000 0.98799  0.10472  0.19013  Biso   1.000  H
  C605     1.0000 0.98891  0.26946  0.02752  Biso   1.000  C
  H694     1.0000 0.98072  0.26822  0.94629  Biso   1.000  H
  C606     1.0000 0.04350  0.32020  0.96260  Biso   1.000  C
  C607     1.0000 0.37049  0.02780  0.99020  Biso   1.000  C
  H695     1.0000 0.32020  0.07492  0.94320  Biso   1.000  H
  H696     1.0000 0.32060  0.01322  0.92500  Biso   1.000  H
  C608     1.0000 0.37053  0.02780  0.99020  Biso   1.000  C
  H697     1.0000 0.37109  0.94710  0.97899  Biso   1.000  H
  H698     1.0000 0.40291  0.96569  0.03190  Biso   1.000  H
  C609     1.0000 0.97220  0.00980  0.37049  Biso   1.000  C
  H699     1.0000 0.92508  0.05680  0.32020  Biso   1.000  H
  H700     1.0000 0.98678  0.07500  0.32060  Biso   1.000  H
  C610     1.0000 0.97220  0.00980  0.37053  Biso   1.000  C
  H701     1.0000 0.92512  0.05680  0.32020  Biso   1.000  H
  H702     1.0000 0.98682  0.07500  0.32060  Biso   1.000  H
  H703     1.0000 0.03431  0.96810  0.40291  Biso   1.000  H
  H704     1.0000 0.05290  0.02101  0.37109  Biso   1.000  H
  C611     1.0000 0.95650  0.32020  0.03740  Biso   1.000  C
  H705     1.0000 0.01928  0.26822  0.05371  Biso   1.000  H
  H706     1.0000 0.01932  0.26822  0.05371  Biso   1.000  H
  C612     1.0000 0.00980  0.37049  0.97220  Biso   1.000  C
  H707     1.0000 0.05680  0.32020  0.92508  Biso   1.000  H
  H708     1.0000 0.07500  0.32060  0.98678  Biso   1.000  H
  H709     1.0000 0.05680  0.32020  0.92512  Biso   1.000  H
  H710     1.0000 0.07500  0.32060  0.98682  Biso   1.000  H
  C613     1.0000 0.00980  0.37053  0.97220  Biso   1.000  C
  H711     1.0000 0.40291  0.03431  0.96810  Biso   1.000  H
  H712     1.0000 0.37109  0.05290  0.02101  Biso   1.000  H
  H713     1.0000 0.94710  0.97899  0.37109  Biso   1.000  H
  H714     1.0000 0.96569  0.03190  0.40291  Biso   1.000  H
  C614     1.0000 0.99020  0.37049  0.02780  Biso   1.000  C
  H715     1.0000 0.94320  0.32020  0.07492  Biso   1.000  H
  H716     1.0000 0.92500  0.32060  0.01322  Biso   1.000  H
  C615     1.0000 0.99020  0.37053  0.02780  Biso   1.000  C
  H717     1.0000 0.97899  0.37109  0.94710  Biso   1.000  H
  H718     1.0000 0.03190  0.40291  0.96569  Biso   1.000  H
  H719     1.0000 0.96810  0.40291  0.03431  Biso   1.000  H
  H720     1.0000 0.02101  0.37109  0.05290  Biso   1.000  H
  C616     1.0000 0.93099  0.85438  0.91191  Biso   1.000  C
  C617     1.0000 0.94448  0.88612  0.86700  Biso   1.000  C
  C618     1.0000 0.94452  0.88612  0.86700  Biso   1.000  C
  C619     1.0000 0.96501  0.80859  0.92601  Biso   1.000  C
  C620     1.0000 0.88612  0.86700  0.94448  Biso   1.000  C
  C621     1.0000 0.88612  0.86700  0.94452  Biso   1.000  C
  C622     1.0000 0.91191  0.93099  0.85438  Biso   1.000  C
  C623     1.0000 0.91191  0.93099  0.85442  Biso   1.000  C
  C624     1.0000 0.91191  0.93103  0.85438  Biso   1.000  C
  C625     1.0000 0.91191  0.93103  0.85442  Biso   1.000  C
  O91      1.0000 0.98618  0.87350  0.83570  Biso   1.000  O
  C626     1.0000 0.93099  0.85442  0.91191  Biso   1.000  C
  O92      1.0000 0.98622  0.87350  0.83570  Biso   1.000  O
  C627     1.0000 0.93103  0.85438  0.91191  Biso   1.000  C
  C628     1.0000 0.93103  0.85442  0.91191  Biso   1.000  C
  H721     1.0000 0.97530  0.87772  0.84550  Biso   1.000  H
  N91      1.0000 0.95509  0.77625  0.96381  Biso   1.000  N
  H722     1.0000 0.99651  0.80288  0.90540  Biso   1.000  H
  N92      1.0000 0.95509  0.77629  0.96381  Biso   1.000  N
  H723     1.0000 0.99651  0.80292  0.90540  Biso   1.000  H
  C629     1.0000 0.85438  0.91191  0.93099  Biso   1.000  C
  C630     1.0000 0.85438  0.91191  0.93103  Biso   1.000  C
  C631     1.0000 0.85442  0.91191  0.93099  Biso   1.000  C
  C632     1.0000 0.85442  0.91191  0.93103  Biso   1.000  C
  O93      1.0000 0.87350  0.83570  0.98618  Biso   1.000  O
  O94      1.0000 0.87350  0.83570  0.98622  Biso   1.000  O
  H724     1.0000 0.87772  0.84550  0.97530  Biso   1.000  H
  C633     1.0000 0.92601  0.96501  0.80859  Biso   1.000  C
  C634     1.0000 0.86700  0.94448  0.88612  Biso   1.000  C
  C635     1.0000 0.86700  0.94452  0.88612  Biso   1.000  C
  H725     1.0000 0.98799  0.89532  0.80991  Biso   1.000  H
  C636     1.0000 0.98891  0.73054  0.97248  Biso   1.000  C
  C637     1.0000 0.98891  0.73054  0.97252  Biso   1.000  C
  C638     1.0000 0.80859  0.92601  0.96501  Biso   1.000  C
  H726     1.0000 0.89532  0.80991  0.98799  Biso   1.000  H
  N93      1.0000 0.96381  0.95509  0.77625  Biso   1.000  N
  N94      1.0000 0.96381  0.95509  0.77629  Biso   1.000  N
  H727     1.0000 0.90540  0.99651  0.80288  Biso   1.000  H
  H728     1.0000 0.90540  0.99651  0.80292  Biso   1.000  H
  O95      1.0000 0.83570  0.98618  0.87350  Biso   1.000  O
  O96      1.0000 0.83570  0.98622  0.87350  Biso   1.000  O
  H729     1.0000 0.84550  0.97530  0.87772  Biso   1.000  H
  C639     1.0000 0.95650  0.67980  0.96260  Biso   1.000  C
  H730     1.0000 0.01928  0.73178  0.94629  Biso   1.000  H
  H731     1.0000 0.01928  0.73182  0.94629  Biso   1.000  H
  H732     1.0000 0.01932  0.73178  0.94629  Biso   1.000  H
  H733     1.0000 0.01932  0.73182  0.94629  Biso   1.000  H
  C640     1.0000 0.01109  0.73054  0.02752  Biso   1.000  C
  C641     1.0000 0.01113  0.73054  0.02752  Biso   1.000  C
  N95      1.0000 0.77625  0.96381  0.95509  Biso   1.000  N
  H734     1.0000 0.80288  0.90540  0.99651  Biso   1.000  H
  N96      1.0000 0.77629  0.96381  0.95509  Biso   1.000  N
  H735     1.0000 0.80292  0.90540  0.99651  Biso   1.000  H
  C642     1.0000 0.97248  0.98891  0.73054  Biso   1.000  C
  C643     1.0000 0.97252  0.98891  0.73054  Biso   1.000  C
  H736     1.0000 0.80991  0.98799  0.89532  Biso   1.000  H
  C644     1.0000 0.99020  0.62951  0.97220  Biso   1.000  C
  H737     1.0000 0.94320  0.67980  0.92508  Biso   1.000  H
  H738     1.0000 0.92500  0.67940  0.98678  Biso   1.000  H
  H739     1.0000 0.94320  0.67980  0.92512  Biso   1.000  H
  H740     1.0000 0.92500  0.67940  0.98682  Biso   1.000  H
  H741     1.0000 0.98072  0.73178  0.05371  Biso   1.000  H
  H742     1.0000 0.98072  0.73182  0.05371  Biso   1.000  H
  C645     1.0000 0.04350  0.67980  0.03740  Biso   1.000  C
  N97      1.0000 0.04491  0.77625  0.03619  Biso   1.000  N
  N98      1.0000 0.04491  0.77629  0.03619  Biso   1.000  N
  C646     1.0000 0.73054  0.97248  0.98891  Biso   1.000  C
  C647     1.0000 0.73054  0.97252  0.98891  Biso   1.000  C
  C648     1.0000 0.96260  0.95650  0.67980  Biso   1.000  C
  H743     1.0000 0.94629  0.01928  0.73178  Biso   1.000  H
  H744     1.0000 0.94629  0.01928  0.73182  Biso   1.000  H
  H745     1.0000 0.94629  0.01932  0.73178  Biso   1.000  H
  H746     1.0000 0.94629  0.01932  0.73182  Biso   1.000  H
  C649     1.0000 0.02752  0.01109  0.73054  Biso   1.000  C
  C650     1.0000 0.02752  0.01113  0.73054  Biso   1.000  C
  H747     1.0000 0.96810  0.59709  0.96569  Biso   1.000  H
  H748     1.0000 0.02101  0.62891  0.94710  Biso   1.000  H
  C651     1.0000 0.00980  0.62951  0.02780  Biso   1.000  C
  H749     1.0000 0.05680  0.67980  0.07492  Biso   1.000  H
  H750     1.0000 0.07500  0.67940  0.01322  Biso   1.000  H
  C652     1.0000 0.03499  0.80859  0.07399  Biso   1.000  C
  C653     1.0000 0.67980  0.96260  0.95650  Biso   1.000  C
  H751     1.0000 0.73178  0.94629  0.01928  Biso   1.000  H
  H752     1.0000 0.73178  0.94629  0.01932  Biso   1.000  H
  H753     1.0000 0.73182  0.94629  0.01928  Biso   1.000  H
  H754     1.0000 0.73182  0.94629  0.01932  Biso   1.000  H
  C654     1.0000 0.73054  0.02752  0.01109  Biso   1.000  C
  C655     1.0000 0.73054  0.02752  0.01113  Biso   1.000  C
  C656     1.0000 0.97220  0.99020  0.62951  Biso   1.000  C
  H755     1.0000 0.92508  0.94320  0.67980  Biso   1.000  H
  H756     1.0000 0.98678  0.92500  0.67940  Biso   1.000  H
  H757     1.0000 0.92512  0.94320  0.67980  Biso   1.000  H
  H758     1.0000 0.98682  0.92500  0.67940  Biso   1.000  H
  C657     1.0000 0.03740  0.04350  0.67980  Biso   1.000  C
  H759     1.0000 0.05371  0.98072  0.73178  Biso   1.000  H
  H760     1.0000 0.05371  0.98072  0.73182  Biso   1.000  H
  N99      1.0000 0.03619  0.04491  0.77625  Biso   1.000  N
  N100     1.0000 0.03619  0.04491  0.77629  Biso   1.000  N
  H761     1.0000 0.97899  0.62891  0.05290  Biso   1.000  H
  H762     1.0000 0.03190  0.59709  0.03431  Biso   1.000  H
  H763     1.0000 0.00349  0.80288  0.09460  Biso   1.000  H
  C658     1.0000 0.06901  0.85438  0.08809  Biso   1.000  C
  H764     1.0000 0.00349  0.80292  0.09460  Biso   1.000  H
  C659     1.0000 0.06901  0.85442  0.08809  Biso   1.000  C
  C660     1.0000 0.62951  0.97220  0.99020  Biso   1.000  C
  H765     1.0000 0.67980  0.92508  0.94320  Biso   1.000  H
  H766     1.0000 0.67940  0.98678  0.92500  Biso   1.000  H
  H767     1.0000 0.67980  0.92512  0.94320  Biso   1.000  H
  H768     1.0000 0.67940  0.98682  0.92500  Biso   1.000  H
  H769     1.0000 0.73178  0.05371  0.98072  Biso   1.000  H
  H770     1.0000 0.73182  0.05371  0.98072  Biso   1.000  H
  C661     1.0000 0.67980  0.03740  0.04350  Biso   1.000  C
  N101     1.0000 0.77625  0.03619  0.04491  Biso   1.000  N
  N102     1.0000 0.77629  0.03619  0.04491  Biso   1.000  N
  H771     1.0000 0.96569  0.96810  0.59709  Biso   1.000  H
  H772     1.0000 0.94710  0.02101  0.62891  Biso   1.000  H
  C662     1.0000 0.02780  0.00980  0.62951  Biso   1.000  C
  H773     1.0000 0.07492  0.05680  0.67980  Biso   1.000  H
  H774     1.0000 0.01322  0.07500  0.67940  Biso   1.000  H
  C663     1.0000 0.07399  0.03499  0.80859  Biso   1.000  C
  C664     1.0000 0.11388  0.86700  0.05552  Biso   1.000  C
  C665     1.0000 0.05552  0.88612  0.13300  Biso   1.000  C
  C666     1.0000 0.11392  0.86700  0.05552  Biso   1.000  C
  H775     1.0000 0.59709  0.96569  0.96810  Biso   1.000  H
  H776     1.0000 0.62891  0.94710  0.02101  Biso   1.000  H
  C667     1.0000 0.62951  0.02780  0.00980  Biso   1.000  C
  H777     1.0000 0.67980  0.07492  0.05680  Biso   1.000  H
  H778     1.0000 0.67940  0.01322  0.07500  Biso   1.000  H
  C668     1.0000 0.80859  0.07399  0.03499  Biso   1.000  C
  H779     1.0000 0.05290  0.97899  0.62891  Biso   1.000  H
  H780     1.0000 0.03431  0.03190  0.59709  Biso   1.000  H
  H781     1.0000 0.09460  0.00349  0.80288  Biso   1.000  H
  C669     1.0000 0.08809  0.06901  0.85438  Biso   1.000  C
  H782     1.0000 0.09460  0.00349  0.80292  Biso   1.000  H
  C670     1.0000 0.08809  0.06901  0.85442  Biso   1.000  C
  C671     1.0000 0.14562  0.91191  0.06901  Biso   1.000  C
  O97      1.0000 0.12650  0.83570  0.01382  Biso   1.000  O
  H783     1.0000 0.12232  0.84550  0.02470  Biso   1.000  H
  C672     1.0000 0.08809  0.93099  0.14562  Biso   1.000  C
  O98      1.0000 0.01382  0.87350  0.16430  Biso   1.000  O
  C673     1.0000 0.08809  0.93103  0.14562  Biso   1.000  C
  H784     1.0000 0.02470  0.87772  0.15450  Biso   1.000  H
  H785     1.0000 0.62891  0.05290  0.97899  Biso   1.000  H
  H786     1.0000 0.59709  0.03431  0.03190  Biso   1.000  H
  H787     1.0000 0.80288  0.09460  0.00349  Biso   1.000  H
  C674     1.0000 0.85438  0.08809  0.06901  Biso   1.000  C
  H788     1.0000 0.80292  0.09460  0.00349  Biso   1.000  H
  C675     1.0000 0.85442  0.08809  0.06901  Biso   1.000  C
  C676     1.0000 0.05552  0.11388  0.86700  Biso   1.000  C
  C677     1.0000 0.13300  0.05552  0.88612  Biso   1.000  C
  C678     1.0000 0.05552  0.11392  0.86700  Biso   1.000  C
  C679     1.0000 0.19141  0.92601  0.03499  Biso   1.000  C
  C680     1.0000 0.13300  0.94448  0.11388  Biso   1.000  C
  C681     1.0000 0.13300  0.94448  0.11392  Biso   1.000  C
  C682     1.0000 0.13300  0.94452  0.11388  Biso   1.000  C
  C683     1.0000 0.13300  0.94452  0.11392  Biso   1.000  C
  H789     1.0000 0.10468  0.80991  0.01201  Biso   1.000  H
  H790     1.0000 0.10472  0.80991  0.01201  Biso   1.000  H
  C684     1.0000 0.07399  0.96501  0.19141  Biso   1.000  C
  H791     1.0000 0.01201  0.89532  0.19009  Biso   1.000  H
  H792     1.0000 0.01201  0.89532  0.19013  Biso   1.000  H
  C685     1.0000 0.86700  0.05552  0.11388  Biso   1.000  C
  C686     1.0000 0.88612  0.13300  0.05552  Biso   1.000  C
  C687     1.0000 0.86700  0.05552  0.11392  Biso   1.000  C
  O99      1.0000 0.01382  0.12650  0.83570  Biso   1.000  O
  C688     1.0000 0.06901  0.14562  0.91191  Biso   1.000  C
  H793     1.0000 0.02470  0.12232  0.84550  Biso   1.000  H
  C689     1.0000 0.14562  0.08809  0.93099  Biso   1.000  C
  O100     1.0000 0.16430  0.01382  0.87350  Biso   1.000  O
  C690     1.0000 0.14562  0.08809  0.93103  Biso   1.000  C
  H794     1.0000 0.15450  0.02470  0.87772  Biso   1.000  H
  N103     1.0000 0.22375  0.96381  0.04491  Biso   1.000  N
  H795     1.0000 0.19712  0.90540  0.00349  Biso   1.000  H
  O101     1.0000 0.16430  0.98618  0.12650  Biso   1.000  O
  O102     1.0000 0.16430  0.98622  0.12650  Biso   1.000  O
  H796     1.0000 0.15450  0.97530  0.12232  Biso   1.000  H
  N104     1.0000 0.03619  0.95509  0.22375  Biso   1.000  N
  H797     1.0000 0.09460  0.99651  0.19712  Biso   1.000  H
  O103     1.0000 0.83570  0.01382  0.12650  Biso   1.000  O
  C691     1.0000 0.91191  0.06901  0.14562  Biso   1.000  C
  H798     1.0000 0.84550  0.02470  0.12232  Biso   1.000  H
  C692     1.0000 0.93099  0.14562  0.08809  Biso   1.000  C
  C693     1.0000 0.93103  0.14562  0.08809  Biso   1.000  C
  O104     1.0000 0.87350  0.16430  0.01382  Biso   1.000  O
  H799     1.0000 0.87772  0.15450  0.02470  Biso   1.000  H
  H800     1.0000 0.01201  0.10468  0.80991  Biso   1.000  H
  H801     1.0000 0.01201  0.10472  0.80991  Biso   1.000  H
  C694     1.0000 0.03499  0.19141  0.92601  Biso   1.000  C
  C695     1.0000 0.11388  0.13300  0.94448  Biso   1.000  C
  C696     1.0000 0.11388  0.13300  0.94452  Biso   1.000  C
  C697     1.0000 0.11392  0.13300  0.94448  Biso   1.000  C
  C698     1.0000 0.11392  0.13300  0.94452  Biso   1.000  C
  C699     1.0000 0.19141  0.07399  0.96501  Biso   1.000  C
  H802     1.0000 0.19009  0.01201  0.89532  Biso   1.000  H
  H803     1.0000 0.19013  0.01201  0.89532  Biso   1.000  H
  C700     1.0000 0.26946  0.97248  0.01109  Biso   1.000  C
  C701     1.0000 0.26946  0.97248  0.01113  Biso   1.000  C
  C702     1.0000 0.26946  0.97252  0.01109  Biso   1.000  C
  C703     1.0000 0.26946  0.97252  0.01113  Biso   1.000  C
  H804     1.0000 0.19009  0.98799  0.10468  Biso   1.000  H
  H805     1.0000 0.19009  0.98799  0.10472  Biso   1.000  H
  H806     1.0000 0.19013  0.98799  0.10468  Biso   1.000  H
  H807     1.0000 0.19013  0.98799  0.10472  Biso   1.000  H
  C704     1.0000 0.02752  0.98891  0.26946  Biso   1.000  C
  H808     1.0000 0.80991  0.01201  0.10468  Biso   1.000  H
  H809     1.0000 0.80991  0.01201  0.10472  Biso   1.000  H
  C705     1.0000 0.94448  0.11388  0.13300  Biso   1.000  C
  C706     1.0000 0.94448  0.11392  0.13300  Biso   1.000  C
  C707     1.0000 0.94452  0.11388  0.13300  Biso   1.000  C
  C708     1.0000 0.94452  0.11392  0.13300  Biso   1.000  C
  C709     1.0000 0.92601  0.03499  0.19141  Biso   1.000  C
  C710     1.0000 0.96501  0.19141  0.07399  Biso   1.000  C
  H810     1.0000 0.89532  0.19009  0.01201  Biso   1.000  H
  H811     1.0000 0.89532  0.19013  0.01201  Biso   1.000  H
  N105     1.0000 0.04491  0.22375  0.96381  Biso   1.000  N
  H812     1.0000 0.00349  0.19712  0.90540  Biso   1.000  H
  O105     1.0000 0.12650  0.16430  0.98618  Biso   1.000  O
  O106     1.0000 0.12650  0.16430  0.98622  Biso   1.000  O
  H813     1.0000 0.12232  0.15450  0.97530  Biso   1.000  H
  N106     1.0000 0.22375  0.03619  0.95509  Biso   1.000  N
  H814     1.0000 0.19712  0.09460  0.99651  Biso   1.000  H
  C711     1.0000 0.26946  0.02752  0.98891  Biso   1.000  C
  H815     1.0000 0.26822  0.94629  0.98072  Biso   1.000  H
  C712     1.0000 0.32020  0.96260  0.04350  Biso   1.000  C
  C713     1.0000 0.97248  0.01109  0.26946  Biso   1.000  C
  C714     1.0000 0.97248  0.01113  0.26946  Biso   1.000  C
  C715     1.0000 0.97252  0.01109  0.26946  Biso   1.000  C
  C716     1.0000 0.97252  0.01113  0.26946  Biso   1.000  C
  C717     1.0000 0.03740  0.95650  0.32020  Biso   1.000  C
  H816     1.0000 0.05371  0.01928  0.26822  Biso   1.000  H
  H817     1.0000 0.05371  0.01932  0.26822  Biso   1.000  H
  O107     1.0000 0.98618  0.12650  0.16430  Biso   1.000  O
  O108     1.0000 0.98622  0.12650  0.16430  Biso   1.000  O
  H818     1.0000 0.97530  0.12232  0.15450  Biso   1.000  H
  N107     1.0000 0.96381  0.04491  0.22375  Biso   1.000  N
  H819     1.0000 0.90540  0.00349  0.19712  Biso   1.000  H
  N108     1.0000 0.95509  0.22375  0.03619  Biso   1.000  N
  H820     1.0000 0.99651  0.19712  0.09460  Biso   1.000  H
  C718     1.0000 0.01109  0.26946  0.97248  Biso   1.000  C
  C719     1.0000 0.01109  0.26946  0.97252  Biso   1.000  C
  C720     1.0000 0.01113  0.26946  0.97248  Biso   1.000  C
  C721     1.0000 0.01113  0.26946  0.97252  Biso   1.000  C
  H821     1.0000 0.10468  0.19009  0.98799  Biso   1.000  H
  H822     1.0000 0.10468  0.19013  0.98799  Biso   1.000  H
  H823     1.0000 0.10472  0.19009  0.98799  Biso   1.000  H
  H824     1.0000 0.10472  0.19013  0.98799  Biso   1.000  H
  C722     1.0000 0.32020  0.03740  0.95650  Biso   1.000  C
  H825     1.0000 0.26822  0.05371  0.01928  Biso   1.000  H
  H826     1.0000 0.26822  0.05371  0.01932  Biso   1.000  H
  C723     1.0000 0.37049  0.97220  0.00980  Biso   1.000  C
  H827     1.0000 0.32020  0.92508  0.05680  Biso   1.000  H
  H828     1.0000 0.32060  0.98678  0.07500  Biso   1.000  H
  H829     1.0000 0.32020  0.92512  0.05680  Biso   1.000  H
  H830     1.0000 0.32060  0.98682  0.07500  Biso   1.000  H
  C724     1.0000 0.37053  0.97220  0.00980  Biso   1.000  C
  H831     1.0000 0.94629  0.98072  0.26822  Biso   1.000  H
  C725     1.0000 0.96260  0.04350  0.32020  Biso   1.000  C
  C726     1.0000 0.02780  0.99020  0.37049  Biso   1.000  C
  H832     1.0000 0.07492  0.94320  0.32020  Biso   1.000  H
  H833     1.0000 0.01322  0.92500  0.32060  Biso   1.000  H
  C727     1.0000 0.02780  0.99020  0.37053  Biso   1.000  C
  H834     1.0000 0.98799  0.10468  0.19009  Biso   1.000  H
  H835     1.0000 0.98799  0.10468  0.19013  Biso   1.000  H
  H836     1.0000 0.98799  0.10472  0.19009  Biso   1.000  H
  H837     1.0000 0.98799  0.10472  0.19013  Biso   1.000  H
  C728     1.0000 0.98891  0.26946  0.02752  Biso   1.000  C
  H838     1.0000 0.98072  0.26822  0.94629  Biso   1.000  H
  C729     1.0000 0.04350  0.32020  0.96260  Biso   1.000  C
  C730     1.0000 0.37049  0.02780  0.99020  Biso   1.000  C
  H839     1.0000 0.32020  0.07492  0.94320  Biso   1.000  H
  H840     1.0000 0.32060  0.01322  0.92500  Biso   1.000  H
  C731     1.0000 0.37053  0.02780  0.99020  Biso   1.000  C
  H841     1.0000 0.37109  0.94710  0.97899  Biso   1.000  H
  H842     1.0000 0.40291  0.96569  0.03190  Biso   1.000  H
  C732     1.0000 0.97220  0.00980  0.37049  Biso   1.000  C
  H843     1.0000 0.92508  0.05680  0.32020  Biso   1.000  H
  H844     1.0000 0.98678  0.07500  0.32060  Biso   1.000  H
  C733     1.0000 0.97220  0.00980  0.37053  Biso   1.000  C
  H845     1.0000 0.92512  0.05680  0.32020  Biso   1.000  H
  H846     1.0000 0.98682  0.07500  0.32060  Biso   1.000  H
  H847     1.0000 0.03431  0.96810  0.40291  Biso   1.000  H
  H848     1.0000 0.05290  0.02101  0.37109  Biso   1.000  H
  C734     1.0000 0.95650  0.32020  0.03740  Biso   1.000  C
  H849     1.0000 0.01928  0.26822  0.05371  Biso   1.000  H
  H850     1.0000 0.01932  0.26822  0.05371  Biso   1.000  H
  C735     1.0000 0.00980  0.37049  0.97220  Biso   1.000  C
  H851     1.0000 0.05680  0.32020  0.92508  Biso   1.000  H
  H852     1.0000 0.07500  0.32060  0.98678  Biso   1.000  H
  H853     1.0000 0.05680  0.32020  0.92512  Biso   1.000  H
  H854     1.0000 0.07500  0.32060  0.98682  Biso   1.000  H
  C736     1.0000 0.00980  0.37053  0.97220  Biso   1.000  C
  H855     1.0000 0.40291  0.03431  0.96810  Biso   1.000  H
  H856     1.0000 0.37109  0.05290  0.02101  Biso   1.000  H
  H857     1.0000 0.94710  0.97899  0.37109  Biso   1.000  H
  H858     1.0000 0.96569  0.03190  0.40291  Biso   1.000  H
  C737     1.0000 0.99020  0.37049  0.02780  Biso   1.000  C
  H859     1.0000 0.94320  0.32020  0.07492  Biso   1.000  H
  H860     1.0000 0.92500  0.32060  0.01322  Biso   1.000  H
  C738     1.0000 0.99020  0.37053  0.02780  Biso   1.000  C
  H861     1.0000 0.97899  0.37109  0.94710  Biso   1.000  H
  H862     1.0000 0.03190  0.40291  0.96569  Biso   1.000  H
  H863     1.0000 0.96810  0.40291  0.03431  Biso   1.000  H
  H864     1.0000 0.02101  0.37109  0.05290  Biso   1.000  H
  C739     1.0000 0.93099  0.85438  0.91191  Biso   1.000  C
  C740     1.0000 0.94448  0.88612  0.86700  Biso   1.000  C
  C741     1.0000 0.94452  0.88612  0.86700  Biso   1.000  C
  C742     1.0000 0.96501  0.80859  0.92601  Biso   1.000  C
  C743     1.0000 0.88612  0.86700  0.94448  Biso   1.000  C
  C744     1.0000 0.88612  0.86700  0.94452  Biso   1.000  C
  C745     1.0000 0.91191  0.93099  0.85438  Biso   1.000  C
  C746     1.0000 0.91191  0.93099  0.85442  Biso   1.000  C
  C747     1.0000 0.91191  0.93103  0.85438  Biso   1.000  C
  C748     1.0000 0.91191  0.93103  0.85442  Biso   1.000  C
  O109     1.0000 0.98618  0.87350  0.83570  Biso   1.000  O
  C749     1.0000 0.93099  0.85442  0.91191  Biso   1.000  C
  O110     1.0000 0.98622  0.87350  0.83570  Biso   1.000  O
  C750     1.0000 0.93103  0.85438  0.91191  Biso   1.000  C
  C751     1.0000 0.93103  0.85442  0.91191  Biso   1.000  C
  H865     1.0000 0.97530  0.87772  0.84550  Biso   1.000  H
  N109     1.0000 0.95509  0.77625  0.96381  Biso   1.000  N
  H866     1.0000 0.99651  0.80288  0.90540  Biso   1.000  H
  N110     1.0000 0.95509  0.77629  0.96381  Biso   1.000  N
  H867     1.0000 0.99651  0.80292  0.90540  Biso   1.000  H
  C752     1.0000 0.85438  0.91191  0.93099  Biso   1.000  C
  C753     1.0000 0.85438  0.91191  0.93103  Biso   1.000  C
  C754     1.0000 0.85442  0.91191  0.93099  Biso   1.000  C
  C755     1.0000 0.85442  0.91191  0.93103  Biso   1.000  C
  O111     1.0000 0.87350  0.83570  0.98618  Biso   1.000  O
  O112     1.0000 0.87350  0.83570  0.98622  Biso   1.000  O
  H868     1.0000 0.87772  0.84550  0.97530  Biso   1.000  H
  C756     1.0000 0.92601  0.96501  0.80859  Biso   1.000  C
  C757     1.0000 0.86700  0.94448  0.88612  Biso   1.000  C
  C758     1.0000 0.86700  0.94452  0.88612  Biso   1.000  C
  H869     1.0000 0.98799  0.89532  0.80991  Biso   1.000  H
  C759     1.0000 0.98891  0.73054  0.97248  Biso   1.000  C
  C760     1.0000 0.98891  0.73054  0.97252  Biso   1.000  C
  C761     1.0000 0.80859  0.92601  0.96501  Biso   1.000  C
  H870     1.0000 0.89532  0.80991  0.98799  Biso   1.000  H
  N111     1.0000 0.96381  0.95509  0.77625  Biso   1.000  N
  N112     1.0000 0.96381  0.95509  0.77629  Biso   1.000  N
  H871     1.0000 0.90540  0.99651  0.80288  Biso   1.000  H
  H872     1.0000 0.90540  0.99651  0.80292  Biso   1.000  H
  O113     1.0000 0.83570  0.98618  0.87350  Biso   1.000  O
  O114     1.0000 0.83570  0.98622  0.87350  Biso   1.000  O
  H873     1.0000 0.84550  0.97530  0.87772  Biso   1.000  H
  C762     1.0000 0.95650  0.67980  0.96260  Biso   1.000  C
  H874     1.0000 0.01928  0.73178  0.94629  Biso   1.000  H
  H875     1.0000 0.01928  0.73182  0.94629  Biso   1.000  H
  H876     1.0000 0.01932  0.73178  0.94629  Biso   1.000  H
  H877     1.0000 0.01932  0.73182  0.94629  Biso   1.000  H
  C763     1.0000 0.01109  0.73054  0.02752  Biso   1.000  C
  C764     1.0000 0.01113  0.73054  0.02752  Biso   1.000  C
  N113     1.0000 0.77625  0.96381  0.95509  Biso   1.000  N
  H878     1.0000 0.80288  0.90540  0.99651  Biso   1.000  H
  N114     1.0000 0.77629  0.96381  0.95509  Biso   1.000  N
  H879     1.0000 0.80292  0.90540  0.99651  Biso   1.000  H
  C765     1.0000 0.97248  0.98891  0.73054  Biso   1.000  C
  C766     1.0000 0.97252  0.98891  0.73054  Biso   1.000  C
  H880     1.0000 0.80991  0.98799  0.89532  Biso   1.000  H
  C767     1.0000 0.99020  0.62951  0.97220  Biso   1.000  C
  H881     1.0000 0.94320  0.67980  0.92508  Biso   1.000  H
  H882     1.0000 0.92500  0.67940  0.98678  Biso   1.000  H
  H883     1.0000 0.94320  0.67980  0.92512  Biso   1.000  H
  H884     1.0000 0.92500  0.67940  0.98682  Biso   1.000  H
  H885     1.0000 0.98072  0.73178  0.05371  Biso   1.000  H
  H886     1.0000 0.98072  0.73182  0.05371  Biso   1.000  H
  C768     1.0000 0.04350  0.67980  0.03740  Biso   1.000  C
  N115     1.0000 0.04491  0.77625  0.03619  Biso   1.000  N
  N116     1.0000 0.04491  0.77629  0.03619  Biso   1.000  N
  C769     1.0000 0.73054  0.97248  0.98891  Biso   1.000  C
  C770     1.0000 0.73054  0.97252  0.98891  Biso   1.000  C
  C771     1.0000 0.96260  0.95650  0.67980  Biso   1.000  C
  H887     1.0000 0.94629  0.01928  0.73178  Biso   1.000  H
  H888     1.0000 0.94629  0.01928  0.73182  Biso   1.000  H
  H889     1.0000 0.94629  0.01932  0.73178  Biso   1.000  H
  H890     1.0000 0.94629  0.01932  0.73182  Biso   1.000  H
  C772     1.0000 0.02752  0.01109  0.73054  Biso   1.000  C
  C773     1.0000 0.02752  0.01113  0.73054  Biso   1.000  C
  H891     1.0000 0.96810  0.59709  0.96569  Biso   1.000  H
  H892     1.0000 0.02101  0.62891  0.94710  Biso   1.000  H
  C774     1.0000 0.00980  0.62951  0.02780  Biso   1.000  C
  H893     1.0000 0.05680  0.67980  0.07492  Biso   1.000  H
  H894     1.0000 0.07500  0.67940  0.01322  Biso   1.000  H
  C775     1.0000 0.03499  0.80859  0.07399  Biso   1.000  C
  C776     1.0000 0.67980  0.96260  0.95650  Biso   1.000  C
  H895     1.0000 0.73178  0.94629  0.01928  Biso   1.000  H
  H896     1.0000 0.73178  0.94629  0.01932  Biso   1.000  H
  H897     1.0000 0.73182  0.94629  0.01928  Biso   1.000  H
  H898     1.0000 0.73182  0.94629  0.01932  Biso   1.000  H
  C777     1.0000 0.73054  0.02752  0.01109  Biso   1.000  C
  C778     1.0000 0.73054  0.02752  0.01113  Biso   1.000  C
  C779     1.0000 0.97220  0.99020  0.62951  Biso   1.000  C
  H899     1.0000 0.92508  0.94320  0.67980  Biso   1.000  H
  H900     1.0000 0.98678  0.92500  0.67940  Biso   1.000  H
  H901     1.0000 0.92512  0.94320  0.67980  Biso   1.000  H
  H902     1.0000 0.98682  0.92500  0.67940  Biso   1.000  H
  C780     1.0000 0.03740  0.04350  0.67980  Biso   1.000  C
  H903     1.0000 0.05371  0.98072  0.73178  Biso   1.000  H
  H904     1.0000 0.05371  0.98072  0.73182  Biso   1.000  H
  N117     1.0000 0.03619  0.04491  0.77625  Biso   1.000  N
  N118     1.0000 0.03619  0.04491  0.77629  Biso   1.000  N
  H905     1.0000 0.97899  0.62891  0.05290  Biso   1.000  H
  H906     1.0000 0.03190  0.59709  0.03431  Biso   1.000  H
  H907     1.0000 0.00349  0.80288  0.09460  Biso   1.000  H
  C781     1.0000 0.06901  0.85438  0.08809  Biso   1.000  C
  H908     1.0000 0.00349  0.80292  0.09460  Biso   1.000  H
  C782     1.0000 0.06901  0.85442  0.08809  Biso   1.000  C
  C783     1.0000 0.62951  0.97220  0.99020  Biso   1.000  C
  H909     1.0000 0.67980  0.92508  0.94320  Biso   1.000  H
  H910     1.0000 0.67940  0.98678  0.92500  Biso   1.000  H
  H911     1.0000 0.67980  0.92512  0.94320  Biso   1.000  H
  H912     1.0000 0.67940  0.98682  0.92500  Biso   1.000  H
  H913     1.0000 0.73178  0.05371  0.98072  Biso   1.000  H
  H914     1.0000 0.73182  0.05371  0.98072  Biso   1.000  H
  C784     1.0000 0.67980  0.03740  0.04350  Biso   1.000  C
  N119     1.0000 0.77625  0.03619  0.04491  Biso   1.000  N
  N120     1.0000 0.77629  0.03619  0.04491  Biso   1.000  N
  H915     1.0000 0.96569  0.96810  0.59709  Biso   1.000  H
  H916     1.0000 0.94710  0.02101  0.62891  Biso   1.000  H
  C785     1.0000 0.02780  0.00980  0.62951  Biso   1.000  C
  H917     1.0000 0.07492  0.05680  0.67980  Biso   1.000  H
  H918     1.0000 0.01322  0.07500  0.67940  Biso   1.000  H
  C786     1.0000 0.07399  0.03499  0.80859  Biso   1.000  C
  C787     1.0000 0.11388  0.86700  0.05552  Biso   1.000  C
  C788     1.0000 0.05552  0.88612  0.13300  Biso   1.000  C
  C789     1.0000 0.11392  0.86700  0.05552  Biso   1.000  C
  H919     1.0000 0.59709  0.96569  0.96810  Biso   1.000  H
  H920     1.0000 0.62891  0.94710  0.02101  Biso   1.000  H
  C790     1.0000 0.62951  0.02780  0.00980  Biso   1.000  C
  H921     1.0000 0.67980  0.07492  0.05680  Biso   1.000  H
  H922     1.0000 0.67940  0.01322  0.07500  Biso   1.000  H
  C791     1.0000 0.80859  0.07399  0.03499  Biso   1.000  C
  H923     1.0000 0.05290  0.97899  0.62891  Biso   1.000  H
  H924     1.0000 0.03431  0.03190  0.59709  Biso   1.000  H
  H925     1.0000 0.09460  0.00349  0.80288  Biso   1.000  H
  C792     1.0000 0.08809  0.06901  0.85438  Biso   1.000  C
  H926     1.0000 0.09460  0.00349  0.80292  Biso   1.000  H
  C793     1.0000 0.08809  0.06901  0.85442  Biso   1.000  C
  C794     1.0000 0.14562  0.91191  0.06901  Biso   1.000  C
  O115     1.0000 0.12650  0.83570  0.01382  Biso   1.000  O
  H927     1.0000 0.12232  0.84550  0.02470  Biso   1.000  H
  C795     1.0000 0.08809  0.93099  0.14562  Biso   1.000  C
  O116     1.0000 0.01382  0.87350  0.16430  Biso   1.000  O
  C796     1.0000 0.08809  0.93103  0.14562  Biso   1.000  C
  H928     1.0000 0.02470  0.87772  0.15450  Biso   1.000  H
  H929     1.0000 0.62891  0.05290  0.97899  Biso   1.000  H
  H930     1.0000 0.59709  0.03431  0.03190  Biso   1.000  H
  H931     1.0000 0.80288  0.09460  0.00349  Biso   1.000  H
  C797     1.0000 0.85438  0.08809  0.06901  Biso   1.000  C
  H932     1.0000 0.80292  0.09460  0.00349  Biso   1.000  H
  C798     1.0000 0.85442  0.08809  0.06901  Biso   1.000  C
  C799     1.0000 0.05552  0.11388  0.86700  Biso   1.000  C
  C800     1.0000 0.13300  0.05552  0.88612  Biso   1.000  C
  C801     1.0000 0.05552  0.11392  0.86700  Biso   1.000  C
  C802     1.0000 0.19141  0.92601  0.03499  Biso   1.000  C
  C803     1.0000 0.13300  0.94448  0.11388  Biso   1.000  C
  C804     1.0000 0.13300  0.94448  0.11392  Biso   1.000  C
  C805     1.0000 0.13300  0.94452  0.11388  Biso   1.000  C
  C806     1.0000 0.13300  0.94452  0.11392  Biso   1.000  C
  H933     1.0000 0.10468  0.80991  0.01201  Biso   1.000  H
  H934     1.0000 0.10472  0.80991  0.01201  Biso   1.000  H
  C807     1.0000 0.07399  0.96501  0.19141  Biso   1.000  C
  H935     1.0000 0.01201  0.89532  0.19009  Biso   1.000  H
  H936     1.0000 0.01201  0.89532  0.19013  Biso   1.000  H
  C808     1.0000 0.86700  0.05552  0.11388  Biso   1.000  C
  C809     1.0000 0.88612  0.13300  0.05552  Biso   1.000  C
  C810     1.0000 0.86700  0.05552  0.11392  Biso   1.000  C
  O117     1.0000 0.01382  0.12650  0.83570  Biso   1.000  O
  C811     1.0000 0.06901  0.14562  0.91191  Biso   1.000  C
  H937     1.0000 0.02470  0.12232  0.84550  Biso   1.000  H
  C812     1.0000 0.14562  0.08809  0.93099  Biso   1.000  C
  O118     1.0000 0.16430  0.01382  0.87350  Biso   1.000  O
  C813     1.0000 0.14562  0.08809  0.93103  Biso   1.000  C
  H938     1.0000 0.15450  0.02470  0.87772  Biso   1.000  H
  N121     1.0000 0.22375  0.96381  0.04491  Biso   1.000  N
  H939     1.0000 0.19712  0.90540  0.00349  Biso   1.000  H
  O119     1.0000 0.16430  0.98618  0.12650  Biso   1.000  O
  O120     1.0000 0.16430  0.98622  0.12650  Biso   1.000  O
  H940     1.0000 0.15450  0.97530  0.12232  Biso   1.000  H
  N122     1.0000 0.03619  0.95509  0.22375  Biso   1.000  N
  H941     1.0000 0.09460  0.99651  0.19712  Biso   1.000  H
  O121     1.0000 0.83570  0.01382  0.12650  Biso   1.000  O
  C814     1.0000 0.91191  0.06901  0.14562  Biso   1.000  C
  H942     1.0000 0.84550  0.02470  0.12232  Biso   1.000  H
  C815     1.0000 0.93099  0.14562  0.08809  Biso   1.000  C
  C816     1.0000 0.93103  0.14562  0.08809  Biso   1.000  C
  O122     1.0000 0.87350  0.16430  0.01382  Biso   1.000  O
  H943     1.0000 0.87772  0.15450  0.02470  Biso   1.000  H
  H944     1.0000 0.01201  0.10468  0.80991  Biso   1.000  H
  H945     1.0000 0.01201  0.10472  0.80991  Biso   1.000  H
  C817     1.0000 0.03499  0.19141  0.92601  Biso   1.000  C
  C818     1.0000 0.11388  0.13300  0.94448  Biso   1.000  C
  C819     1.0000 0.11388  0.13300  0.94452  Biso   1.000  C
  C820     1.0000 0.11392  0.13300  0.94448  Biso   1.000  C
  C821     1.0000 0.11392  0.13300  0.94452  Biso   1.000  C
  C822     1.0000 0.19141  0.07399  0.96501  Biso   1.000  C
  H946     1.0000 0.19009  0.01201  0.89532  Biso   1.000  H
  H947     1.0000 0.19013  0.01201  0.89532  Biso   1.000  H
  C823     1.0000 0.26946  0.97248  0.01109  Biso   1.000  C
  C824     1.0000 0.26946  0.97248  0.01113  Biso   1.000  C
  C825     1.0000 0.26946  0.97252  0.01109  Biso   1.000  C
  C826     1.0000 0.26946  0.97252  0.01113  Biso   1.000  C
  H948     1.0000 0.19009  0.98799  0.10468  Biso   1.000  H
  H949     1.0000 0.19009  0.98799  0.10472  Biso   1.000  H
  H950     1.0000 0.19013  0.98799  0.10468  Biso   1.000  H
  H951     1.0000 0.19013  0.98799  0.10472  Biso   1.000  H
  C827     1.0000 0.02752  0.98891  0.26946  Biso   1.000  C
  H952     1.0000 0.80991  0.01201  0.10468  Biso   1.000  H
  H953     1.0000 0.80991  0.01201  0.10472  Biso   1.000  H
  C828     1.0000 0.94448  0.11388  0.13300  Biso   1.000  C
  C829     1.0000 0.94448  0.11392  0.13300  Biso   1.000  C
  C830     1.0000 0.94452  0.11388  0.13300  Biso   1.000  C
  C831     1.0000 0.94452  0.11392  0.13300  Biso   1.000  C
  C832     1.0000 0.92601  0.03499  0.19141  Biso   1.000  C
  C833     1.0000 0.96501  0.19141  0.07399  Biso   1.000  C
  H954     1.0000 0.89532  0.19009  0.01201  Biso   1.000  H
  H955     1.0000 0.89532  0.19013  0.01201  Biso   1.000  H
  N123     1.0000 0.04491  0.22375  0.96381  Biso   1.000  N
  H956     1.0000 0.00349  0.19712  0.90540  Biso   1.000  H
  O123     1.0000 0.12650  0.16430  0.98618  Biso   1.000  O
  O124     1.0000 0.12650  0.16430  0.98622  Biso   1.000  O
  H957     1.0000 0.12232  0.15450  0.97530  Biso   1.000  H
  N124     1.0000 0.22375  0.03619  0.95509  Biso   1.000  N
  H958     1.0000 0.19712  0.09460  0.99651  Biso   1.000  H
  C834     1.0000 0.26946  0.02752  0.98891  Biso   1.000  C
  H959     1.0000 0.26822  0.94629  0.98072  Biso   1.000  H
  C835     1.0000 0.32020  0.96260  0.04350  Biso   1.000  C
  C836     1.0000 0.97248  0.01109  0.26946  Biso   1.000  C
  C837     1.0000 0.97248  0.01113  0.26946  Biso   1.000  C
  C838     1.0000 0.97252  0.01109  0.26946  Biso   1.000  C
  C839     1.0000 0.97252  0.01113  0.26946  Biso   1.000  C
  C840     1.0000 0.03740  0.95650  0.32020  Biso   1.000  C
  H960     1.0000 0.05371  0.01928  0.26822  Biso   1.000  H
  H961     1.0000 0.05371  0.01932  0.26822  Biso   1.000  H
  O125     1.0000 0.98618  0.12650  0.16430  Biso   1.000  O
  O126     1.0000 0.98622  0.12650  0.16430  Biso   1.000  O
  H962     1.0000 0.97530  0.12232  0.15450  Biso   1.000  H
  N125     1.0000 0.96381  0.04491  0.22375  Biso   1.000  N
  H963     1.0000 0.90540  0.00349  0.19712  Biso   1.000  H
  N126     1.0000 0.95509  0.22375  0.03619  Biso   1.000  N
  H964     1.0000 0.99651  0.19712  0.09460  Biso   1.000  H
  C841     1.0000 0.01109  0.26946  0.97248  Biso   1.000  C
  C842     1.0000 0.01109  0.26946  0.97252  Biso   1.000  C
  C843     1.0000 0.01113  0.26946  0.97248  Biso   1.000  C
  C844     1.0000 0.01113  0.26946  0.97252  Biso   1.000  C
  H965     1.0000 0.10468  0.19009  0.98799  Biso   1.000  H
  H966     1.0000 0.10468  0.19013  0.98799  Biso   1.000  H
  H967     1.0000 0.10472  0.19009  0.98799  Biso   1.000  H
  H968     1.0000 0.10472  0.19013  0.98799  Biso   1.000  H
  C845     1.0000 0.32020  0.03740  0.95650  Biso   1.000  C
  H969     1.0000 0.26822  0.05371  0.01928  Biso   1.000  H
  H970     1.0000 0.26822  0.05371  0.01932  Biso   1.000  H
  C846     1.0000 0.37049  0.97220  0.00980  Biso   1.000  C
  H971     1.0000 0.32020  0.92508  0.05680  Biso   1.000  H
  H972     1.0000 0.32060  0.98678  0.07500  Biso   1.000  H
  H973     1.0000 0.32020  0.92512  0.05680  Biso   1.000  H
  H974     1.0000 0.32060  0.98682  0.07500  Biso   1.000  H
  C847     1.0000 0.37053  0.97220  0.00980  Biso   1.000  C
  H975     1.0000 0.94629  0.98072  0.26822  Biso   1.000  H
  C848     1.0000 0.96260  0.04350  0.32020  Biso   1.000  C
  C849     1.0000 0.02780  0.99020  0.37049  Biso   1.000  C
  H976     1.0000 0.07492  0.94320  0.32020  Biso   1.000  H
  H977     1.0000 0.01322  0.92500  0.32060  Biso   1.000  H
  C850     1.0000 0.02780  0.99020  0.37053  Biso   1.000  C
  H978     1.0000 0.98799  0.10468  0.19009  Biso   1.000  H
  H979     1.0000 0.98799  0.10468  0.19013  Biso   1.000  H
  H980     1.0000 0.98799  0.10472  0.19009  Biso   1.000  H
  H981     1.0000 0.98799  0.10472  0.19013  Biso   1.000  H
  C851     1.0000 0.98891  0.26946  0.02752  Biso   1.000  C
  H982     1.0000 0.98072  0.26822  0.94629  Biso   1.000  H
  C852     1.0000 0.04350  0.32020  0.96260  Biso   1.000  C
  C853     1.0000 0.37049  0.02780  0.99020  Biso   1.000  C
  H983     1.0000 0.32020  0.07492  0.94320  Biso   1.000  H
  H984     1.0000 0.32060  0.01322  0.92500  Biso   1.000  H
  C854     1.0000 0.37053  0.02780  0.99020  Biso   1.000  C
  H985     1.0000 0.37109  0.94710  0.97899  Biso   1.000  H
  H986     1.0000 0.40291  0.96569  0.03190  Biso   1.000  H
  C855     1.0000 0.97220  0.00980  0.37049  Biso   1.000  C
  H987     1.0000 0.92508  0.05680  0.32020  Biso   1.000  H
  H988     1.0000 0.98678  0.07500  0.32060  Biso   1.000  H
  C856     1.0000 0.97220  0.00980  0.37053  Biso   1.000  C
  H989     1.0000 0.92512  0.05680  0.32020  Biso   1.000  H
  H990     1.0000 0.98682  0.07500  0.32060  Biso   1.000  H
  H991     1.0000 0.03431  0.96810  0.40291  Biso   1.000  H
  H992     1.0000 0.05290  0.02101  0.37109  Biso   1.000  H
  C857     1.0000 0.95650  0.32020  0.03740  Biso   1.000  C
  H993     1.0000 0.01928  0.26822  0.05371  Biso   1.000  H
  H994     1.0000 0.01932  0.26822  0.05371  Biso   1.000  H
  C858     1.0000 0.00980  0.37049  0.97220  Biso   1.000  C
  H995     1.0000 0.05680  0.32020  0.92508  Biso   1.000  H
  H996     1.0000 0.07500  0.32060  0.98678  Biso   1.000  H
  H997     1.0000 0.05680  0.32020  0.92512  Biso   1.000  H
  H998     1.0000 0.07500  0.32060  0.98682  Biso   1.000  H
  C859     1.0000 0.00980  0.37053  0.97220  Biso   1.000  C
  H999     1.0000 0.40291  0.03431  0.96810  Biso   1.000  H
  H1000    1.0000 0.37109  0.05290  0.02101  Biso   1.000  H
  H1001    1.0000 0.94710  0.97899  0.37109  Biso   1.000  H
  H1002    1.0000 0.96569  0.03190  0.40291  Biso   1.000  H
  C860     1.0000 0.99020  0.37049  0.02780  Biso   1.000  C
  H1003    1.0000 0.94320  0.32020  0.07492  Biso   1.000  H
  H1004    1.0000 0.92500  0.32060  0.01322  Biso   1.000  H
  C861     1.0000 0.99020  0.37053  0.02780  Biso   1.000  C
  H1005    1.0000 0.97899  0.37109  0.94710  Biso   1.000  H
  H1006    1.0000 0.03190  0.40291  0.96569  Biso   1.000  H
  H1007    1.0000 0.96810  0.40291  0.03431  Biso   1.000  H
  H1008    1.0000 0.02101  0.37109  0.05290  Biso   1.000  H
  C862     1.0000 0.93099  0.85438  0.91191  Biso   1.000  C
  C863     1.0000 0.94448  0.88612  0.86700  Biso   1.000  C
  C864     1.0000 0.94452  0.88612  0.86700  Biso   1.000  C
  C865     1.0000 0.96501  0.80859  0.92601  Biso   1.000  C
  C866     1.0000 0.88612  0.86700  0.94448  Biso   1.000  C
  C867     1.0000 0.88612  0.86700  0.94452  Biso   1.000  C
  C868     1.0000 0.91191  0.93099  0.85438  Biso   1.000  C
  C869     1.0000 0.91191  0.93099  0.85442  Biso   1.000  C
  C870     1.0000 0.91191  0.93103  0.85438  Biso   1.000  C
  C871     1.0000 0.91191  0.93103  0.85442  Biso   1.000  C
  O127     1.0000 0.98618  0.87350  0.83570  Biso   1.000  O
  C872     1.0000 0.93099  0.85442  0.91191  Biso   1.000  C
  O128     1.0000 0.98622  0.87350  0.83570  Biso   1.000  O
  C873     1.0000 0.93103  0.85438  0.91191  Biso   1.000  C
  C874     1.0000 0.93103  0.85442  0.91191  Biso   1.000  C
  H1009    1.0000 0.97530  0.87772  0.84550  Biso   1.000  H
  N127     1.0000 0.95509  0.77625  0.96381  Biso   1.000  N
  H1010    1.0000 0.99651  0.80288  0.90540  Biso   1.000  H
  N128     1.0000 0.95509  0.77629  0.96381  Biso   1.000  N
  H1011    1.0000 0.99651  0.80292  0.90540  Biso   1.000  H
  C875     1.0000 0.85438  0.91191  0.93099  Biso   1.000  C
  C876     1.0000 0.85438  0.91191  0.93103  Biso   1.000  C
  C877     1.0000 0.85442  0.91191  0.93099  Biso   1.000  C
  C878     1.0000 0.85442  0.91191  0.93103  Biso   1.000  C
  O129     1.0000 0.87350  0.83570  0.98618  Biso   1.000  O
  O130     1.0000 0.87350  0.83570  0.98622  Biso   1.000  O
  H1012    1.0000 0.87772  0.84550  0.97530  Biso   1.000  H
  C879     1.0000 0.92601  0.96501  0.80859  Biso   1.000  C
  C880     1.0000 0.86700  0.94448  0.88612  Biso   1.000  C
  C881     1.0000 0.86700  0.94452  0.88612  Biso   1.000  C
  H1013    1.0000 0.98799  0.89532  0.80991  Biso   1.000  H
  C882     1.0000 0.98891  0.73054  0.97248  Biso   1.000  C
  C883     1.0000 0.98891  0.73054  0.97252  Biso   1.000  C
  C884     1.0000 0.80859  0.92601  0.96501  Biso   1.000  C
  H1014    1.0000 0.89532  0.80991  0.98799  Biso   1.000  H
  N129     1.0000 0.96381  0.95509  0.77625  Biso   1.000  N
  N130     1.0000 0.96381  0.95509  0.77629  Biso   1.000  N
  H1015    1.0000 0.90540  0.99651  0.80288  Biso   1.000  H
  H1016    1.0000 0.90540  0.99651  0.80292  Biso   1.000  H
  O131     1.0000 0.83570  0.98618  0.87350  Biso   1.000  O
  O132     1.0000 0.83570  0.98622  0.87350  Biso   1.000  O
  H1017    1.0000 0.84550  0.97530  0.87772  Biso   1.000  H
  C885     1.0000 0.95650  0.67980  0.96260  Biso   1.000  C
  H1018    1.0000 0.01928  0.73178  0.94629  Biso   1.000  H
  H1019    1.0000 0.01928  0.73182  0.94629  Biso   1.000  H
  H1020    1.0000 0.01932  0.73178  0.94629  Biso   1.000  H
  H1021    1.0000 0.01932  0.73182  0.94629  Biso   1.000  H
  C886     1.0000 0.01109  0.73054  0.02752  Biso   1.000  C
  C887     1.0000 0.01113  0.73054  0.02752  Biso   1.000  C
  N131     1.0000 0.77625  0.96381  0.95509  Biso   1.000  N
  H1022    1.0000 0.80288  0.90540  0.99651  Biso   1.000  H
  N132     1.0000 0.77629  0.96381  0.95509  Biso   1.000  N
  H1023    1.0000 0.80292  0.90540  0.99651  Biso   1.000  H
  C888     1.0000 0.97248  0.98891  0.73054  Biso   1.000  C
  C889     1.0000 0.97252  0.98891  0.73054  Biso   1.000  C
  H1024    1.0000 0.80991  0.98799  0.89532  Biso   1.000  H
  C890     1.0000 0.99020  0.62951  0.97220  Biso   1.000  C
  H1025    1.0000 0.94320  0.67980  0.92508  Biso   1.000  H
  H1026    1.0000 0.92500  0.67940  0.98678  Biso   1.000  H
  H1027    1.0000 0.94320  0.67980  0.92512  Biso   1.000  H
  H1028    1.0000 0.92500  0.67940  0.98682  Biso   1.000  H
  H1029    1.0000 0.98072  0.73178  0.05371  Biso   1.000  H
  H1030    1.0000 0.98072  0.73182  0.05371  Biso   1.000  H
  C891     1.0000 0.04350  0.67980  0.03740  Biso   1.000  C
  N133     1.0000 0.04491  0.77625  0.03619  Biso   1.000  N
  N134     1.0000 0.04491  0.77629  0.03619  Biso   1.000  N
  C892     1.0000 0.73054  0.97248  0.98891  Biso   1.000  C
  C893     1.0000 0.73054  0.97252  0.98891  Biso   1.000  C
  C894     1.0000 0.96260  0.95650  0.67980  Biso   1.000  C
  H1031    1.0000 0.94629  0.01928  0.73178  Biso   1.000  H
  H1032    1.0000 0.94629  0.01928  0.73182  Biso   1.000  H
  H1033    1.0000 0.94629  0.01932  0.73178  Biso   1.000  H
  H1034    1.0000 0.94629  0.01932  0.73182  Biso   1.000  H
  C895     1.0000 0.02752  0.01109  0.73054  Biso   1.000  C
  C896     1.0000 0.02752  0.01113  0.73054  Biso   1.000  C
  H1035    1.0000 0.96810  0.59709  0.96569  Biso   1.000  H
  H1036    1.0000 0.02101  0.62891  0.94710  Biso   1.000  H
  C897     1.0000 0.00980  0.62951  0.02780  Biso   1.000  C
  H1037    1.0000 0.05680  0.67980  0.07492  Biso   1.000  H
  H1038    1.0000 0.07500  0.67940  0.01322  Biso   1.000  H
  C898     1.0000 0.03499  0.80859  0.07399  Biso   1.000  C
  C899     1.0000 0.67980  0.96260  0.95650  Biso   1.000  C
  H1039    1.0000 0.73178  0.94629  0.01928  Biso   1.000  H
  H1040    1.0000 0.73178  0.94629  0.01932  Biso   1.000  H
  H1041    1.0000 0.73182  0.94629  0.01928  Biso   1.000  H
  H1042    1.0000 0.73182  0.94629  0.01932  Biso   1.000  H
  C900     1.0000 0.73054  0.02752  0.01109  Biso   1.000  C
  C901     1.0000 0.73054  0.02752  0.01113  Biso   1.000  C
  C902     1.0000 0.97220  0.99020  0.62951  Biso   1.000  C
  H1043    1.0000 0.92508  0.94320  0.67980  Biso   1.000  H
  H1044    1.0000 0.98678  0.92500  0.67940  Biso   1.000  H
  H1045    1.0000 0.92512  0.94320  0.67980  Biso   1.000  H
  H1046    1.0000 0.98682  0.92500  0.67940  Biso   1.000  H
  C903     1.0000 0.03740  0.04350  0.67980  Biso   1.000  C
  H1047    1.0000 0.05371  0.98072  0.73178  Biso   1.000  H
  H1048    1.0000 0.05371  0.98072  0.73182  Biso   1.000  H
  N135     1.0000 0.03619  0.04491  0.77625  Biso   1.000  N
  N136     1.0000 0.03619  0.04491  0.77629  Biso   1.000  N
  H1049    1.0000 0.97899  0.62891  0.05290  Biso   1.000  H
  H1050    1.0000 0.03190  0.59709  0.03431  Biso   1.000  H
  H1051    1.0000 0.00349  0.80288  0.09460  Biso   1.000  H
  C904     1.0000 0.06901  0.85438  0.08809  Biso   1.000  C
  H1052    1.0000 0.00349  0.80292  0.09460  Biso   1.000  H
  C905     1.0000 0.06901  0.85442  0.08809  Biso   1.000  C
  C906     1.0000 0.62951  0.97220  0.99020  Biso   1.000  C
  H1053    1.0000 0.67980  0.92508  0.94320  Biso   1.000  H
  H1054    1.0000 0.67940  0.98678  0.92500  Biso   1.000  H
  H1055    1.0000 0.67980  0.92512  0.94320  Biso   1.000  H
  H1056    1.0000 0.67940  0.98682  0.92500  Biso   1.000  H
  H1057    1.0000 0.73178  0.05371  0.98072  Biso   1.000  H
  H1058    1.0000 0.73182  0.05371  0.98072  Biso   1.000  H
  C907     1.0000 0.67980  0.03740  0.04350  Biso   1.000  C
  N137     1.0000 0.77625  0.03619  0.04491  Biso   1.000  N
  N138     1.0000 0.77629  0.03619  0.04491  Biso   1.000  N
  H1059    1.0000 0.96569  0.96810  0.59709  Biso   1.000  H
  H1060    1.0000 0.94710  0.02101  0.62891  Biso   1.000  H
  C908     1.0000 0.02780  0.00980  0.62951  Biso   1.000  C
  H1061    1.0000 0.07492  0.05680  0.67980  Biso   1.000  H
  H1062    1.0000 0.01322  0.07500  0.67940  Biso   1.000  H
  C909     1.0000 0.07399  0.03499  0.80859  Biso   1.000  C
  C910     1.0000 0.11388  0.86700  0.05552  Biso   1.000  C
  C911     1.0000 0.05552  0.88612  0.13300  Biso   1.000  C
  C912     1.0000 0.11392  0.86700  0.05552  Biso   1.000  C
  H1063    1.0000 0.59709  0.96569  0.96810  Biso   1.000  H
  H1064    1.0000 0.62891  0.94710  0.02101  Biso   1.000  H
  C913     1.0000 0.62951  0.02780  0.00980  Biso   1.000  C
  H1065    1.0000 0.67980  0.07492  0.05680  Biso   1.000  H
  H1066    1.0000 0.67940  0.01322  0.07500  Biso   1.000  H
  C914     1.0000 0.80859  0.07399  0.03499  Biso   1.000  C
  H1067    1.0000 0.05290  0.97899  0.62891  Biso   1.000  H
  H1068    1.0000 0.03431  0.03190  0.59709  Biso   1.000  H
  H1069    1.0000 0.09460  0.00349  0.80288  Biso   1.000  H
  C915     1.0000 0.08809  0.06901  0.85438  Biso   1.000  C
  H1070    1.0000 0.09460  0.00349  0.80292  Biso   1.000  H
  C916     1.0000 0.08809  0.06901  0.85442  Biso   1.000  C
  C917     1.0000 0.14562  0.91191  0.06901  Biso   1.000  C
  O133     1.0000 0.12650  0.83570  0.01382  Biso   1.000  O
  H1071    1.0000 0.12232  0.84550  0.02470  Biso   1.000  H
  C918     1.0000 0.08809  0.93099  0.14562  Biso   1.000  C
  O134     1.0000 0.01382  0.87350  0.16430  Biso   1.000  O
  C919     1.0000 0.08809  0.93103  0.14562  Biso   1.000  C
  H1072    1.0000 0.02470  0.87772  0.15450  Biso   1.000  H
  H1073    1.0000 0.62891  0.05290  0.97899  Biso   1.000  H
  H1074    1.0000 0.59709  0.03431  0.03190  Biso   1.000  H
  H1075    1.0000 0.80288  0.09460  0.00349  Biso   1.000  H
  C920     1.0000 0.85438  0.08809  0.06901  Biso   1.000  C
  H1076    1.0000 0.80292  0.09460  0.00349  Biso   1.000  H
  C921     1.0000 0.85442  0.08809  0.06901  Biso   1.000  C
  C922     1.0000 0.05552  0.11388  0.86700  Biso   1.000  C
  C923     1.0000 0.13300  0.05552  0.88612  Biso   1.000  C
  C924     1.0000 0.05552  0.11392  0.86700  Biso   1.000  C
  C925     1.0000 0.19141  0.92601  0.03499  Biso   1.000  C
  C926     1.0000 0.13300  0.94448  0.11388  Biso   1.000  C
  C927     1.0000 0.13300  0.94448  0.11392  Biso   1.000  C
  C928     1.0000 0.13300  0.94452  0.11388  Biso   1.000  C
  C929     1.0000 0.13300  0.94452  0.11392  Biso   1.000  C
  H1077    1.0000 0.10468  0.80991  0.01201  Biso   1.000  H
  H1078    1.0000 0.10472  0.80991  0.01201  Biso   1.000  H
  C930     1.0000 0.07399  0.96501  0.19141  Biso   1.000  C
  H1079    1.0000 0.01201  0.89532  0.19009  Biso   1.000  H
  H1080    1.0000 0.01201  0.89532  0.19013  Biso   1.000  H
  C931     1.0000 0.86700  0.05552  0.11388  Biso   1.000  C
  C932     1.0000 0.88612  0.13300  0.05552  Biso   1.000  C
  C933     1.0000 0.86700  0.05552  0.11392  Biso   1.000  C
  O135     1.0000 0.01382  0.12650  0.83570  Biso   1.000  O
  C934     1.0000 0.06901  0.14562  0.91191  Biso   1.000  C
  H1081    1.0000 0.02470  0.12232  0.84550  Biso   1.000  H
  C935     1.0000 0.14562  0.08809  0.93099  Biso   1.000  C
  O136     1.0000 0.16430  0.01382  0.87350  Biso   1.000  O
  C936     1.0000 0.14562  0.08809  0.93103  Biso   1.000  C
  H1082    1.0000 0.15450  0.02470  0.87772  Biso   1.000  H
  N139     1.0000 0.22375  0.96381  0.04491  Biso   1.000  N
  H1083    1.0000 0.19712  0.90540  0.00349  Biso   1.000  H
  O137     1.0000 0.16430  0.98618  0.12650  Biso   1.000  O
  O138     1.0000 0.16430  0.98622  0.12650  Biso   1.000  O
  H1084    1.0000 0.15450  0.97530  0.12232  Biso   1.000  H
  N140     1.0000 0.03619  0.95509  0.22375  Biso   1.000  N
  H1085    1.0000 0.09460  0.99651  0.19712  Biso   1.000  H
  O139     1.0000 0.83570  0.01382  0.12650  Biso   1.000  O
  C937     1.0000 0.91191  0.06901  0.14562  Biso   1.000  C
  H1086    1.0000 0.84550  0.02470  0.12232  Biso   1.000  H
  C938     1.0000 0.93099  0.14562  0.08809  Biso   1.000  C
  C939     1.0000 0.93103  0.14562  0.08809  Biso   1.000  C
  O140     1.0000 0.87350  0.16430  0.01382  Biso   1.000  O
  H1087    1.0000 0.87772  0.15450  0.02470  Biso   1.000  H
  H1088    1.0000 0.01201  0.10468  0.80991  Biso   1.000  H
  H1089    1.0000 0.01201  0.10472  0.80991  Biso   1.000  H
  C940     1.0000 0.03499  0.19141  0.92601  Biso   1.000  C
  C941     1.0000 0.11388  0.13300  0.94448  Biso   1.000  C
  C942     1.0000 0.11388  0.13300  0.94452  Biso   1.000  C
  C943     1.0000 0.11392  0.13300  0.94448  Biso   1.000  C
  C944     1.0000 0.11392  0.13300  0.94452  Biso   1.000  C
  C945     1.0000 0.19141  0.07399  0.96501  Biso   1.000  C
  H1090    1.0000 0.19009  0.01201  0.89532  Biso   1.000  H
  H1091    1.0000 0.19013  0.01201  0.89532  Biso   1.000  H
  C946     1.0000 0.26946  0.97248  0.01109  Biso   1.000  C
  C947     1.0000 0.26946  0.97248  0.01113  Biso   1.000  C
  C948     1.0000 0.26946  0.97252  0.01109  Biso   1.000  C
  C949     1.0000 0.26946  0.97252  0.01113  Biso   1.000  C
  H1092    1.0000 0.19009  0.98799  0.10468  Biso   1.000  H
  H1093    1.0000 0.19009  0.98799  0.10472  Biso   1.000  H
  H1094    1.0000 0.19013  0.98799  0.10468  Biso   1.000  H
  H1095    1.0000 0.19013  0.98799  0.10472  Biso   1.000  H
  C950     1.0000 0.02752  0.98891  0.26946  Biso   1.000  C
  H1096    1.0000 0.80991  0.01201  0.10468  Biso   1.000  H
  H1097    1.0000 0.80991  0.01201  0.10472  Biso   1.000  H
  C951     1.0000 0.94448  0.11388  0.13300  Biso   1.000  C
  C952     1.0000 0.94448  0.11392  0.13300  Biso   1.000  C
  C953     1.0000 0.94452  0.11388  0.13300  Biso   1.000  C
  C954     1.0000 0.94452  0.11392  0.13300  Biso   1.000  C
  C955     1.0000 0.92601  0.03499  0.19141  Biso   1.000  C
  C956     1.0000 0.96501  0.19141  0.07399  Biso   1.000  C
  H1098    1.0000 0.89532  0.19009  0.01201  Biso   1.000  H
  H1099    1.0000 0.89532  0.19013  0.01201  Biso   1.000  H
  N141     1.0000 0.04491  0.22375  0.96381  Biso   1.000  N
  H1100    1.0000 0.00349  0.19712  0.90540  Biso   1.000  H
  O141     1.0000 0.12650  0.16430  0.98618  Biso   1.000  O
  O142     1.0000 0.12650  0.16430  0.98622  Biso   1.000  O
  H1101    1.0000 0.12232  0.15450  0.97530  Biso   1.000  H
  N142     1.0000 0.22375  0.03619  0.95509  Biso   1.000  N
  H1102    1.0000 0.19712  0.09460  0.99651  Biso   1.000  H
  C957     1.0000 0.26946  0.02752  0.98891  Biso   1.000  C
  H1103    1.0000 0.26822  0.94629  0.98072  Biso   1.000  H
  C958     1.0000 0.32020  0.96260  0.04350  Biso   1.000  C
  C959     1.0000 0.97248  0.01109  0.26946  Biso   1.000  C
  C960     1.0000 0.97248  0.01113  0.26946  Biso   1.000  C
  C961     1.0000 0.97252  0.01109  0.26946  Biso   1.000  C
  C962     1.0000 0.97252  0.01113  0.26946  Biso   1.000  C
  C963     1.0000 0.03740  0.95650  0.32020  Biso   1.000  C
  H1104    1.0000 0.05371  0.01928  0.26822  Biso   1.000  H
  H1105    1.0000 0.05371  0.01932  0.26822  Biso   1.000  H
  O143     1.0000 0.98618  0.12650  0.16430  Biso   1.000  O
  O144     1.0000 0.98622  0.12650  0.16430  Biso   1.000  O
  H1106    1.0000 0.97530  0.12232  0.15450  Biso   1.000  H
  N143     1.0000 0.96381  0.04491  0.22375  Biso   1.000  N
  H1107    1.0000 0.90540  0.00349  0.19712  Biso   1.000  H
  N144     1.0000 0.95509  0.22375  0.03619  Biso   1.000  N
  H1108    1.0000 0.99651  0.19712  0.09460  Biso   1.000  H
  C964     1.0000 0.01109  0.26946  0.97248  Biso   1.000  C
  C965     1.0000 0.01109  0.26946  0.97252  Biso   1.000  C
  C966     1.0000 0.01113  0.26946  0.97248  Biso   1.000  C
  C967     1.0000 0.01113  0.26946  0.97252  Biso   1.000  C
  H1109    1.0000 0.10468  0.19009  0.98799  Biso   1.000  H
  H1110    1.0000 0.10468  0.19013  0.98799  Biso   1.000  H
  H1111    1.0000 0.10472  0.19009  0.98799  Biso   1.000  H
  H1112    1.0000 0.10472  0.19013  0.98799  Biso   1.000  H
  C968     1.0000 0.32020  0.03740  0.95650  Biso   1.000  C
  H1113    1.0000 0.26822  0.05371  0.01928  Biso   1.000  H
  H1114    1.0000 0.26822  0.05371  0.01932  Biso   1.000  H
  C969     1.0000 0.37049  0.97220  0.00980  Biso   1.000  C
  H1115    1.0000 0.32020  0.92508  0.05680  Biso   1.000  H
  H1116    1.0000 0.32060  0.98678  0.07500  Biso   1.000  H
  H1117    1.0000 0.32020  0.92512  0.05680  Biso   1.000  H
  H1118    1.0000 0.32060  0.98682  0.07500  Biso   1.000  H
  C970     1.0000 0.37053  0.97220  0.00980  Biso   1.000  C
  H1119    1.0000 0.94629  0.98072  0.26822  Biso   1.000  H
  C971     1.0000 0.96260  0.04350  0.32020  Biso   1.000  C
  C972     1.0000 0.02780  0.99020  0.37049  Biso   1.000  C
  H1120    1.0000 0.07492  0.94320  0.32020  Biso   1.000  H
  H1121    1.0000 0.01322  0.92500  0.32060  Biso   1.000  H
  C973     1.0000 0.02780  0.99020  0.37053  Biso   1.000  C
  H1122    1.0000 0.98799  0.10468  0.19009  Biso   1.000  H
  H1123    1.0000 0.98799  0.10468  0.19013  Biso   1.000  H
  H1124    1.0000 0.98799  0.10472  0.19009  Biso   1.000  H
  H1125    1.0000 0.98799  0.10472  0.19013  Biso   1.000  H
  C974     1.0000 0.98891  0.26946  0.02752  Biso   1.000  C
  H1126    1.0000 0.98072  0.26822  0.94629  Biso   1.000  H
  C975     1.0000 0.04350  0.32020  0.96260  Biso   1.000  C
  C976     1.0000 0.37049  0.02780  0.99020  Biso   1.000  C
  H1127    1.0000 0.32020  0.07492  0.94320  Biso   1.000  H
  H1128    1.0000 0.32060  0.01322  0.92500  Biso   1.000  H
  C977     1.0000 0.37053  0.02780  0.99020  Biso   1.000  C
  H1129    1.0000 0.37109  0.94710  0.97899  Biso   1.000  H
  H1130    1.0000 0.40291  0.96569  0.03190  Biso   1.000  H
  C978     1.0000 0.97220  0.00980  0.37049  Biso   1.000  C
  H1131    1.0000 0.92508  0.05680  0.32020  Biso   1.000  H
  H1132    1.0000 0.98678  0.07500  0.32060  Biso   1.000  H
  C979     1.0000 0.97220  0.00980  0.37053  Biso   1.000  C
  H1133    1.0000 0.92512  0.05680  0.32020  Biso   1.000  H
  H1134    1.0000 0.98682  0.07500  0.32060  Biso   1.000  H
  H1135    1.0000 0.03431  0.96810  0.40291  Biso   1.000  H
  H1136    1.0000 0.05290  0.02101  0.37109  Biso   1.000  H
  C980     1.0000 0.95650  0.32020  0.03740  Biso   1.000  C
  H1137    1.0000 0.01928  0.26822  0.05371  Biso   1.000  H
  H1138    1.0000 0.01932  0.26822  0.05371  Biso   1.000  H
  C981     1.0000 0.00980  0.37049  0.97220  Biso   1.000  C
  H1139    1.0000 0.05680  0.32020  0.92508  Biso   1.000  H
  H1140    1.0000 0.07500  0.32060  0.98678  Biso   1.000  H
  H1141    1.0000 0.05680  0.32020  0.92512  Biso   1.000  H
  H1142    1.0000 0.07500  0.32060  0.98682  Biso   1.000  H
  C982     1.0000 0.00980  0.37053  0.97220  Biso   1.000  C
  H1143    1.0000 0.40291  0.03431  0.96810  Biso   1.000  H
  H1144    1.0000 0.37109  0.05290  0.02101  Biso   1.000  H
  H1145    1.0000 0.94710  0.97899  0.37109  Biso   1.000  H
  H1146    1.0000 0.96569  0.03190  0.40291  Biso   1.000  H
  C983     1.0000 0.99020  0.37049  0.02780  Biso   1.000  C
  H1147    1.0000 0.94320  0.32020  0.07492  Biso   1.000  H
  H1148    1.0000 0.92500  0.32060  0.01322  Biso   1.000  H
  C984     1.0000 0.99020  0.37053  0.02780  Biso   1.000  C
  H1149    1.0000 0.97899  0.37109  0.94710  Biso   1.000  H
  H1150    1.0000 0.03190  0.40291  0.96569  Biso   1.000  H
  H1151    1.0000 0.96810  0.40291  0.03431  Biso   1.000  H
  H1152    1.0000 0.02101  0.37109  0.05290  Biso   1.000  H
  C985     1.0000 0.77782  0.62051  0.75982  Biso   1.000  C
  C986     1.0000 0.72222  0.62051  0.74022  Biso   1.000  C
  C987     1.0000 0.78742  0.57022  0.79352  Biso   1.000  C
  H1153    1.0000 0.78433  0.65289  0.78192  Biso   1.000  H
  H1154    1.0000 0.80292  0.62111  0.72901  Biso   1.000  H
  C988     1.0000 0.71262  0.57022  0.70652  Biso   1.000  C
  H1155    1.0000 0.71571  0.65289  0.71812  Biso   1.000  H
  H1156    1.0000 0.69712  0.62111  0.77099  Biso   1.000  H
  C989     1.0000 0.77750  0.51944  0.76111  Biso   1.000  C
  H1157    1.0000 0.82490  0.57022  0.80682  Biso   1.000  H
  H1158    1.0000 0.76320  0.57062  0.82502  Biso   1.000  H
  C990     1.0000 0.72250  0.51944  0.73889  Biso   1.000  C
  H1159    1.0000 0.67510  0.57022  0.69322  Biso   1.000  H
  H1160    1.0000 0.73680  0.57062  0.67502  Biso   1.000  H
  H1161    1.0000 0.80369  0.51820  0.73070  Biso   1.000  H
  N145     1.0000 0.78621  0.47373  0.79489  Biso   1.000  N
  N146     1.0000 0.71379  0.47373  0.70511  Biso   1.000  N
  H1162    1.0000 0.69631  0.51820  0.76930  Biso   1.000  H
  C991     1.0000 0.82401  0.44139  0.78501  Biso   1.000  C
  C992     1.0000 0.67599  0.44139  0.71499  Biso   1.000  C
  H1163    1.0000 0.84462  0.44710  0.75351  Biso   1.000  H
  C993     1.0000 0.83811  0.39560  0.81899  Biso   1.000  C
  C994     1.0000 0.66189  0.39560  0.68101  Biso   1.000  C
  H1164    1.0000 0.65542  0.44710  0.74653  Biso   1.000  H
  C995     1.0000 0.80550  0.38298  0.86390  Biso   1.000  C
  C996     1.0000 0.88302  0.36390  0.80550  Biso   1.000  C
  C997     1.0000 0.69450  0.38298  0.63610  Biso   1.000  C
  C998     1.0000 0.61702  0.36390  0.69450  Biso   1.000  C
  O145     1.0000 0.76380  0.41432  0.87652  Biso   1.000  O
  C999     1.0000 0.81899  0.33811  0.89560  Biso   1.000  C
  H1165    1.0000 0.77472  0.40452  0.87230  Biso   1.000  H
  C1000    1.0000 0.89560  0.31899  0.83811  Biso   1.000  C
  O146     1.0000 0.91432  0.37652  0.76380  Biso   1.000  O
  H1166    1.0000 0.90452  0.37230  0.77472  Biso   1.000  H
  C1001    1.0000 0.68101  0.33811  0.60440  Biso   1.000  C
  O147     1.0000 0.73620  0.41432  0.62352  Biso   1.000  O
  H1167    1.0000 0.72532  0.40452  0.62770  Biso   1.000  H
  C1002    1.0000 0.60440  0.31899  0.66189  Biso   1.000  C
  O148     1.0000 0.58572  0.37652  0.73620  Biso   1.000  O
  H1168    1.0000 0.59548  0.37230  0.72532  Biso   1.000  H
  H1169    1.0000 0.76199  0.44011  0.85470  Biso   1.000  H
  C1003    1.0000 0.86390  0.30550  0.88302  Biso   1.000  C
  C1004    1.0000 0.78501  0.32401  0.94139  Biso   1.000  C
  C1005    1.0000 0.94139  0.28501  0.82401  Biso   1.000  C
  H1170    1.0000 0.94011  0.35470  0.76199  Biso   1.000  H
  C1006    1.0000 0.71499  0.32401  0.55861  Biso   1.000  C
  C1007    1.0000 0.63610  0.30550  0.61702  Biso   1.000  C
  H1171    1.0000 0.73801  0.44011  0.64530  Biso   1.000  H
  C1008    1.0000 0.55861  0.28501  0.67599  Biso   1.000  C
  H1172    1.0000 0.55989  0.35470  0.73801  Biso   1.000  H
  O149     1.0000 0.87652  0.26380  0.91432  Biso   1.000  O
  H1173    1.0000 0.87230  0.27468  0.90452  Biso   1.000  H
  N147     1.0000 0.79489  0.28621  0.97373  Biso   1.000  N
  H1174    1.0000 0.75351  0.34462  0.94710  Biso   1.000  H
  N148     1.0000 0.97373  0.29489  0.78621  Biso   1.000  N
  H1175    1.0000 0.94710  0.25351  0.84462  Biso   1.000  H
  N149     1.0000 0.70511  0.28621  0.52627  Biso   1.000  N
  H1176    1.0000 0.74653  0.34462  0.55290  Biso   1.000  H
  O150     1.0000 0.62352  0.26380  0.58572  Biso   1.000  O
  H1177    1.0000 0.62770  0.27468  0.59548  Biso   1.000  H
  N150     1.0000 0.52627  0.29489  0.71379  Biso   1.000  N
  H1178    1.0000 0.55290  0.25351  0.65542  Biso   1.000  H
  H1179    1.0000 0.85470  0.26199  0.94011  Biso   1.000  H
  C1009    1.0000 0.76111  0.27750  0.01944  Biso   1.000  C
  C1010    1.0000 0.01944  0.26111  0.77750  Biso   1.000  C
  C1011    1.0000 0.73889  0.27750  0.48056  Biso   1.000  C
  H1180    1.0000 0.64530  0.26199  0.55989  Biso   1.000  H
  C1012    1.0000 0.48056  0.26111  0.72250  Biso   1.000  C
  C1013    1.0000 0.73889  0.22250  0.01944  Biso   1.000  C
  C1014    1.0000 0.79352  0.28742  0.07022  Biso   1.000  C
  H1181    1.0000 0.73070  0.30369  0.01820  Biso   1.000  H
  C1015    1.0000 0.01944  0.23889  0.72250  Biso   1.000  C
  C1016    1.0000 0.07022  0.29348  0.78742  Biso   1.000  C
  H1182    1.0000 0.01820  0.23070  0.80369  Biso   1.000  H
  C1017    1.0000 0.70652  0.28742  0.42982  Biso   1.000  C
  H1183    1.0000 0.76930  0.30369  0.48180  Biso   1.000  H
  C1018    1.0000 0.76111  0.22250  0.48056  Biso   1.000  C
  C1019    1.0000 0.42982  0.29348  0.71262  Biso   1.000  C
  H1184    1.0000 0.48180  0.23070  0.69631  Biso   1.000  H
  C1020    1.0000 0.48056  0.23889  0.77750  Biso   1.000  C
  N151     1.0000 0.70511  0.21379  0.97373  Biso   1.000  N
  C1021    1.0000 0.70652  0.21262  0.07022  Biso   1.000  C
  H1185    1.0000 0.76930  0.19631  0.01820  Biso   1.000  H
  C1022    1.0000 0.75982  0.27782  0.12051  Biso   1.000  C
  H1186    1.0000 0.80682  0.32490  0.07022  Biso   1.000  H
  H1187    1.0000 0.82502  0.26320  0.07062  Biso   1.000  H
  N152     1.0000 0.97373  0.20511  0.71379  Biso   1.000  N
  C1023    1.0000 0.07022  0.20652  0.71262  Biso   1.000  C
  H1188    1.0000 0.01820  0.26930  0.69631  Biso   1.000  H
  C1024    1.0000 0.12051  0.25982  0.77782  Biso   1.000  C
  H1189    1.0000 0.07022  0.30682  0.82490  Biso   1.000  H
  H1190    1.0000 0.07062  0.32502  0.76320  Biso   1.000  H
  C1025    1.0000 0.74022  0.27782  0.37949  Biso   1.000  C
  H1191    1.0000 0.69322  0.32490  0.42982  Biso   1.000  H
  H1192    1.0000 0.67502  0.26320  0.42942  Biso   1.000  H
  C1026    1.0000 0.79352  0.21262  0.42982  Biso   1.000  C
  H1193    1.0000 0.73070  0.19631  0.48180  Biso   1.000  H
  N153     1.0000 0.79489  0.21379  0.52627  Biso   1.000  N
  C1027    1.0000 0.37949  0.25982  0.72222  Biso   1.000  C
  H1194    1.0000 0.42982  0.30682  0.67510  Biso   1.000  H
  H1195    1.0000 0.42942  0.32502  0.73680  Biso   1.000  H
  C1028    1.0000 0.42982  0.20652  0.78742  Biso   1.000  C
  H1196    1.0000 0.48180  0.26930  0.80369  Biso   1.000  H
  N154     1.0000 0.52627  0.20511  0.78621  Biso   1.000  N
  C1029    1.0000 0.71499  0.17599  0.94139  Biso   1.000  C
  C1030    1.0000 0.74022  0.22218  0.12051  Biso   1.000  C
  H1197    1.0000 0.69322  0.17510  0.07022  Biso   1.000  H
  H1198    1.0000 0.67502  0.23680  0.07062  Biso   1.000  H
  H1199    1.0000 0.78192  0.28429  0.15293  Biso   1.000  H
  H1200    1.0000 0.72901  0.30288  0.12111  Biso   1.000  H
  C1031    1.0000 0.94139  0.21499  0.67599  Biso   1.000  C
  C1032    1.0000 0.12051  0.24022  0.72222  Biso   1.000  C
  H1201    1.0000 0.07022  0.19322  0.67510  Biso   1.000  H
  H1202    1.0000 0.07062  0.17498  0.73680  Biso   1.000  H
  H1203    1.0000 0.15293  0.28192  0.78433  Biso   1.000  H
  H1204    1.0000 0.12111  0.22901  0.80292  Biso   1.000  H
  H1205    1.0000 0.71812  0.28429  0.34711  Biso   1.000  H
  H1206    1.0000 0.77099  0.30288  0.37889  Biso   1.000  H
  C1033    1.0000 0.75982  0.22218  0.37949  Biso   1.000  C
  H1207    1.0000 0.80682  0.17510  0.42982  Biso   1.000  H
  H1208    1.0000 0.82502  0.23680  0.42942  Biso   1.000  H
  C1034    1.0000 0.78501  0.17599  0.55861  Biso   1.000  C
  H1209    1.0000 0.34711  0.28192  0.71571  Biso   1.000  H
  H1210    1.0000 0.37889  0.22901  0.69712  Biso   1.000  H
  C1035    1.0000 0.37949  0.24022  0.77782  Biso   1.000  C
  H1211    1.0000 0.42982  0.19322  0.82490  Biso   1.000  H
  H1212    1.0000 0.42942  0.17498  0.76320  Biso   1.000  H
  C1036    1.0000 0.55861  0.21499  0.82401  Biso   1.000  C
  C1037    1.0000 0.68101  0.16189  0.89560  Biso   1.000  C
  H1213    1.0000 0.74653  0.15542  0.94710  Biso   1.000  H
  H1214    1.0000 0.71812  0.21571  0.15293  Biso   1.000  H
  H1215    1.0000 0.77099  0.19712  0.12111  Biso   1.000  H
  C1038    1.0000 0.89560  0.18101  0.66189  Biso   1.000  C
  H1216    1.0000 0.94710  0.24649  0.65542  Biso   1.000  H
  H1217    1.0000 0.15293  0.21808  0.71571  Biso   1.000  H
  H1218    1.0000 0.12111  0.27099  0.69712  Biso   1.000  H
  H1219    1.0000 0.78192  0.21571  0.34711  Biso   1.000  H
  H1220    1.0000 0.72901  0.19712  0.37889  Biso   1.000  H
  H1221    1.0000 0.75351  0.15542  0.55290  Biso   1.000  H
  C1039    1.0000 0.81899  0.16189  0.60440  Biso   1.000  C
  H1222    1.0000 0.34711  0.21808  0.78433  Biso   1.000  H
  H1223    1.0000 0.37889  0.27099  0.80292  Biso   1.000  H
  H1224    1.0000 0.55290  0.24649  0.84462  Biso   1.000  H
  C1040    1.0000 0.60440  0.18101  0.83811  Biso   1.000  C
  C1041    1.0000 0.63610  0.19450  0.88302  Biso   1.000  C
  C1042    1.0000 0.69450  0.11702  0.86390  Biso   1.000  C
  C1043    1.0000 0.86390  0.19450  0.61702  Biso   1.000  C
  C1044    1.0000 0.88302  0.13610  0.69450  Biso   1.000  C
  C1045    1.0000 0.80550  0.11702  0.63610  Biso   1.000  C
  C1046    1.0000 0.61702  0.13610  0.80550  Biso   1.000  C
  O151     1.0000 0.62352  0.23620  0.91432  Biso   1.000  O
  H1225    1.0000 0.62770  0.22532  0.90452  Biso   1.000  H
  C1047    1.0000 0.66189  0.10440  0.81899  Biso   1.000  C
  O152     1.0000 0.73620  0.08568  0.87652  Biso   1.000  O
  H1226    1.0000 0.72532  0.09548  0.87230  Biso   1.000  H
  O153     1.0000 0.87652  0.23620  0.58572  Biso   1.000  O
  H1227    1.0000 0.87230  0.22532  0.59548  Biso   1.000  H
  C1048    1.0000 0.83811  0.10440  0.68101  Biso   1.000  C
  O154     1.0000 0.91432  0.12348  0.73620  Biso   1.000  O
  H1228    1.0000 0.90452  0.12770  0.72532  Biso   1.000  H
  O155     1.0000 0.76380  0.08568  0.62352  Biso   1.000  O
  H1229    1.0000 0.77472  0.09548  0.62770  Biso   1.000  H
  O156     1.0000 0.58572  0.12348  0.76380  Biso   1.000  O
  H1230    1.0000 0.59548  0.12770  0.77472  Biso   1.000  H
  H1231    1.0000 0.64530  0.23801  0.94011  Biso   1.000  H
  C1049    1.0000 0.67599  0.05861  0.78501  Biso   1.000  C
  H1232    1.0000 0.73801  0.05989  0.85470  Biso   1.000  H
  H1233    1.0000 0.85470  0.23801  0.55989  Biso   1.000  H
  C1050    1.0000 0.82401  0.05861  0.71499  Biso   1.000  C
  H1234    1.0000 0.94011  0.14530  0.73801  Biso   1.000  H
  H1235    1.0000 0.76199  0.05989  0.64530  Biso   1.000  H
  H1236    1.0000 0.55989  0.14530  0.76199  Biso   1.000  H
  N155     1.0000 0.71379  0.02627  0.79489  Biso   1.000  N
  H1237    1.0000 0.65542  0.05290  0.75351  Biso   1.000  H
  N156     1.0000 0.78621  0.02627  0.70511  Biso   1.000  N
  H1238    1.0000 0.84462  0.05290  0.74653  Biso   1.000  H
  C1051    1.0000 0.72250  0.98056  0.76111  Biso   1.000  C
  C1052    1.0000 0.77750  0.98056  0.73889  Biso   1.000  C
  C1053    1.0000 0.71262  0.92978  0.79352  Biso   1.000  C
  H1239    1.0000 0.69631  0.98180  0.73070  Biso   1.000  H
  C1054    1.0000 0.78742  0.92978  0.70652  Biso   1.000  C
  H1240    1.0000 0.80369  0.98180  0.76930  Biso   1.000  H
  C1055    1.0000 0.72222  0.87949  0.75982  Biso   1.000  C
  H1241    1.0000 0.67510  0.92978  0.80682  Biso   1.000  H
  H1242    1.0000 0.73680  0.92938  0.82502  Biso   1.000  H
  C1056    1.0000 0.77782  0.87949  0.74022  Biso   1.000  C
  H1243    1.0000 0.82490  0.92978  0.69322  Biso   1.000  H
  H1244    1.0000 0.76320  0.92938  0.67502  Biso   1.000  H
  H1245    1.0000 0.71571  0.84711  0.78192  Biso   1.000  H
  H1246    1.0000 0.69712  0.87889  0.72901  Biso   1.000  H
  H1247    1.0000 0.78433  0.84711  0.71812  Biso   1.000  H
  H1248    1.0000 0.80292  0.87889  0.77099  Biso   1.000  H
  C1057    1.0000 0.75982  0.77782  0.62051  Biso   1.000  C
  C1058    1.0000 0.74022  0.72222  0.62051  Biso   1.000  C
  C1059    1.0000 0.79352  0.78742  0.57022  Biso   1.000  C
  H1249    1.0000 0.78192  0.78433  0.65289  Biso   1.000  H
  H1250    1.0000 0.72901  0.80292  0.62111  Biso   1.000  H
  C1060    1.0000 0.70652  0.71262  0.57022  Biso   1.000  C
  H1251    1.0000 0.71812  0.71571  0.65289  Biso   1.000  H
  H1252    1.0000 0.77099  0.69712  0.62111  Biso   1.000  H
  C1061    1.0000 0.76111  0.77750  0.51944  Biso   1.000  C
  H1253    1.0000 0.80682  0.82490  0.57022  Biso   1.000  H
  H1254    1.0000 0.82502  0.76320  0.57062  Biso   1.000  H
  C1062    1.0000 0.73889  0.72250  0.51944  Biso   1.000  C
  H1255    1.0000 0.69322  0.67510  0.57022  Biso   1.000  H
  H1256    1.0000 0.67502  0.73680  0.57062  Biso   1.000  H
  H1257    1.0000 0.73070  0.80369  0.51820  Biso   1.000  H
  N157     1.0000 0.79489  0.78621  0.47373  Biso   1.000  N
  N158     1.0000 0.70511  0.71379  0.47373  Biso   1.000  N
  H1258    1.0000 0.76930  0.69631  0.51820  Biso   1.000  H
  C1063    1.0000 0.78501  0.82401  0.44139  Biso   1.000  C
  C1064    1.0000 0.71499  0.67599  0.44139  Biso   1.000  C
  H1259    1.0000 0.75351  0.84462  0.44710  Biso   1.000  H
  C1065    1.0000 0.81899  0.83811  0.39560  Biso   1.000  C
  C1066    1.0000 0.68101  0.66189  0.39560  Biso   1.000  C
  H1260    1.0000 0.74653  0.65542  0.44710  Biso   1.000  H
  C1067    1.0000 0.86390  0.80550  0.38298  Biso   1.000  C
  C1068    1.0000 0.80550  0.88302  0.36390  Biso   1.000  C
  C1069    1.0000 0.69450  0.61702  0.36390  Biso   1.000  C
  C1070    1.0000 0.63610  0.69450  0.38298  Biso   1.000  C
  C1071    1.0000 0.89560  0.81899  0.33811  Biso   1.000  C
  O157     1.0000 0.87652  0.76380  0.41432  Biso   1.000  O
  H1261    1.0000 0.87230  0.77472  0.40452  Biso   1.000  H
  C1072    1.0000 0.83811  0.89560  0.31899  Biso   1.000  C
  O158     1.0000 0.76380  0.91432  0.37652  Biso   1.000  O
  H1262    1.0000 0.77472  0.90452  0.37230  Biso   1.000  H
  C1073    1.0000 0.66189  0.60440  0.31899  Biso   1.000  C
  O159     1.0000 0.73620  0.58572  0.37652  Biso   1.000  O
  H1263    1.0000 0.72532  0.59548  0.37230  Biso   1.000  H
  C1074    1.0000 0.60440  0.68101  0.33811  Biso   1.000  C
  O160     1.0000 0.62352  0.73620  0.41432  Biso   1.000  O
  H1264    1.0000 0.62770  0.72532  0.40452  Biso   1.000  H
  C1075    1.0000 0.94139  0.78501  0.32401  Biso   1.000  C
  C1076    1.0000 0.88302  0.86390  0.30550  Biso   1.000  C
  H1265    1.0000 0.85470  0.76199  0.44011  Biso   1.000  H
  C1077    1.0000 0.82401  0.94139  0.28501  Biso   1.000  C
  H1266    1.0000 0.76199  0.94011  0.35470  Biso   1.000  H
  C1078    1.0000 0.67599  0.55861  0.28501  Biso   1.000  C
  C1079    1.0000 0.61702  0.63610  0.30550  Biso   1.000  C
  H1267    1.0000 0.73801  0.55989  0.35470  Biso   1.000  H
  C1080    1.0000 0.55861  0.71499  0.32401  Biso   1.000  C
  H1268    1.0000 0.64530  0.73801  0.44011  Biso   1.000  H
  N159     1.0000 0.97373  0.79489  0.28621  Biso   1.000  N
  H1269    1.0000 0.94710  0.75351  0.34462  Biso   1.000  H
  O161     1.0000 0.91432  0.87652  0.26380  Biso   1.000  O
  H1270    1.0000 0.90452  0.87230  0.27468  Biso   1.000  H
  N160     1.0000 0.78621  0.97373  0.29489  Biso   1.000  N
  H1271    1.0000 0.84462  0.94710  0.25351  Biso   1.000  H
  N161     1.0000 0.71379  0.52627  0.29489  Biso   1.000  N
  H1272    1.0000 0.65542  0.55290  0.25351  Biso   1.000  H
  O162     1.0000 0.58572  0.62352  0.26380  Biso   1.000  O
  H1273    1.0000 0.59548  0.62770  0.27468  Biso   1.000  H
  N162     1.0000 0.52627  0.70511  0.28621  Biso   1.000  N
  H1274    1.0000 0.55290  0.74653  0.34462  Biso   1.000  H
  C1081    1.0000 0.01944  0.76111  0.27750  Biso   1.000  C
  H1275    1.0000 0.94011  0.85470  0.26199  Biso   1.000  H
  C1082    1.0000 0.77750  0.01944  0.26111  Biso   1.000  C
  C1083    1.0000 0.72250  0.48056  0.26111  Biso   1.000  C
  H1276    1.0000 0.55989  0.64530  0.26199  Biso   1.000  H
  C1084    1.0000 0.48056  0.73889  0.27750  Biso   1.000  C
  C1085    1.0000 0.01944  0.73889  0.22250  Biso   1.000  C
  C1086    1.0000 0.07022  0.79352  0.28742  Biso   1.000  C
  H1277    1.0000 0.01820  0.73070  0.30369  Biso   1.000  H
  C1087    1.0000 0.72250  0.01944  0.23889  Biso   1.000  C
  C1088    1.0000 0.78742  0.07022  0.29348  Biso   1.000  C
  H1278    1.0000 0.80369  0.01820  0.23070  Biso   1.000  H
  C1089    1.0000 0.71262  0.42982  0.29348  Biso   1.000  C
  H1279    1.0000 0.69631  0.48180  0.23070  Biso   1.000  H
  C1090    1.0000 0.77750  0.48056  0.23889  Biso   1.000  C
  C1091    1.0000 0.42982  0.70652  0.28742  Biso   1.000  C
  H1280    1.0000 0.48180  0.76930  0.30369  Biso   1.000  H
  C1092    1.0000 0.48056  0.76111  0.22250  Biso   1.000  C
  N163     1.0000 0.97373  0.70511  0.21379  Biso   1.000  N
  C1093    1.0000 0.07022  0.70652  0.21262  Biso   1.000  C
  H1281    1.0000 0.01820  0.76930  0.19631  Biso   1.000  H
  C1094    1.0000 0.12051  0.75982  0.27782  Biso   1.000  C
  H1282    1.0000 0.07022  0.80682  0.32490  Biso   1.000  H
  H1283    1.0000 0.07062  0.82502  0.26320  Biso   1.000  H
  N164     1.0000 0.71379  0.97373  0.20511  Biso   1.000  N
  C1095    1.0000 0.71262  0.07022  0.20652  Biso   1.000  C
  H1284    1.0000 0.69631  0.01820  0.26930  Biso   1.000  H
  C1096    1.0000 0.77782  0.12051  0.25982  Biso   1.000  C
  H1285    1.0000 0.82490  0.07022  0.30682  Biso   1.000  H
  H1286    1.0000 0.76320  0.07062  0.32502  Biso   1.000  H
  C1097    1.0000 0.72222  0.37949  0.25982  Biso   1.000  C
  H1287    1.0000 0.67510  0.42982  0.30682  Biso   1.000  H
  H1288    1.0000 0.73680  0.42942  0.32502  Biso   1.000  H
  C1098    1.0000 0.78742  0.42982  0.20652  Biso   1.000  C
  H1289    1.0000 0.80369  0.48180  0.26930  Biso   1.000  H
  N165     1.0000 0.78621  0.52627  0.20511  Biso   1.000  N
  C1099    1.0000 0.37949  0.74022  0.27782  Biso   1.000  C
  H1290    1.0000 0.42982  0.69322  0.32490  Biso   1.000  H
  H1291    1.0000 0.42942  0.67502  0.26320  Biso   1.000  H
  C1100    1.0000 0.42982  0.79352  0.21262  Biso   1.000  C
  H1292    1.0000 0.48180  0.73070  0.19631  Biso   1.000  H
  N166     1.0000 0.52627  0.79489  0.21379  Biso   1.000  N
  C1101    1.0000 0.94139  0.71499  0.17599  Biso   1.000  C
  C1102    1.0000 0.12051  0.74022  0.22218  Biso   1.000  C
  H1293    1.0000 0.07022  0.69322  0.17510  Biso   1.000  H
  H1294    1.0000 0.07062  0.67502  0.23680  Biso   1.000  H
  H1295    1.0000 0.15293  0.78192  0.28429  Biso   1.000  H
  H1296    1.0000 0.12111  0.72901  0.30288  Biso   1.000  H
  C1103    1.0000 0.67599  0.94139  0.21499  Biso   1.000  C
  C1104    1.0000 0.72222  0.12051  0.24022  Biso   1.000  C
  H1297    1.0000 0.67510  0.07022  0.19322  Biso   1.000  H
  H1298    1.0000 0.73680  0.07062  0.17498  Biso   1.000  H
  H1299    1.0000 0.78433  0.15293  0.28192  Biso   1.000  H
  H1300    1.0000 0.80292  0.12111  0.22901  Biso   1.000  H
  H1301    1.0000 0.71571  0.34711  0.28192  Biso   1.000  H
  H1302    1.0000 0.69712  0.37889  0.22901  Biso   1.000  H
  C1105    1.0000 0.77782  0.37949  0.24022  Biso   1.000  C
  H1303    1.0000 0.82490  0.42982  0.19322  Biso   1.000  H
  H1304    1.0000 0.76320  0.42942  0.17498  Biso   1.000  H
  C1106    1.0000 0.82401  0.55861  0.21499  Biso   1.000  C
  H1305    1.0000 0.34711  0.71812  0.28429  Biso   1.000  H
  H1306    1.0000 0.37889  0.77099  0.30288  Biso   1.000  H
  C1107    1.0000 0.37949  0.75982  0.22218  Biso   1.000  C
  H1307    1.0000 0.42982  0.80682  0.17510  Biso   1.000  H
  H1308    1.0000 0.42942  0.82502  0.23680  Biso   1.000  H
  C1108    1.0000 0.55861  0.78501  0.17599  Biso   1.000  C
  C1109    1.0000 0.89560  0.68101  0.16189  Biso   1.000  C
  H1309    1.0000 0.94710  0.74653  0.15542  Biso   1.000  H
  H1310    1.0000 0.15293  0.71812  0.21571  Biso   1.000  H
  H1311    1.0000 0.12111  0.77099  0.19712  Biso   1.000  H
  C1110    1.0000 0.66189  0.89560  0.18101  Biso   1.000  C
  H1312    1.0000 0.65542  0.94710  0.24649  Biso   1.000  H
  H1313    1.0000 0.71571  0.15293  0.21808  Biso   1.000  H
  H1314    1.0000 0.69712  0.12111  0.27099  Biso   1.000  H
  H1315    1.0000 0.78433  0.34711  0.21808  Biso   1.000  H
  H1316    1.0000 0.80292  0.37889  0.27099  Biso   1.000  H
  H1317    1.0000 0.84462  0.55290  0.24649  Biso   1.000  H
  C1111    1.0000 0.83811  0.60440  0.18101  Biso   1.000  C
  H1318    1.0000 0.34711  0.78192  0.21571  Biso   1.000  H
  H1319    1.0000 0.37889  0.72901  0.19712  Biso   1.000  H
  H1320    1.0000 0.55290  0.75351  0.15542  Biso   1.000  H
  C1112    1.0000 0.60440  0.81899  0.16189  Biso   1.000  C
  C1113    1.0000 0.88302  0.63610  0.19450  Biso   1.000  C
  C1114    1.0000 0.86390  0.69450  0.11702  Biso   1.000  C
  C1115    1.0000 0.61702  0.86390  0.19450  Biso   1.000  C
  C1116    1.0000 0.69450  0.88302  0.13610  Biso   1.000  C
  C1117    1.0000 0.80550  0.61702  0.13610  Biso   1.000  C
  C1118    1.0000 0.63610  0.80550  0.11702  Biso   1.000  C
  O163     1.0000 0.91432  0.62352  0.23620  Biso   1.000  O
  H1321    1.0000 0.90452  0.62770  0.22532  Biso   1.000  H
  C1119    1.0000 0.81899  0.66189  0.10440  Biso   1.000  C
  O164     1.0000 0.87652  0.73620  0.08568  Biso   1.000  O
  H1322    1.0000 0.87230  0.72532  0.09548  Biso   1.000  H
  O165     1.0000 0.58572  0.87652  0.23620  Biso   1.000  O
  H1323    1.0000 0.59548  0.87230  0.22532  Biso   1.000  H
  C1120    1.0000 0.68101  0.83811  0.10440  Biso   1.000  C
  O166     1.0000 0.73620  0.91432  0.12348  Biso   1.000  O
  H1324    1.0000 0.72532  0.90452  0.12770  Biso   1.000  H
  O167     1.0000 0.76380  0.58572  0.12348  Biso   1.000  O
  H1325    1.0000 0.77472  0.59548  0.12770  Biso   1.000  H
  O168     1.0000 0.62352  0.76380  0.08568  Biso   1.000  O
  H1326    1.0000 0.62770  0.77472  0.09548  Biso   1.000  H
  H1327    1.0000 0.94011  0.64530  0.23801  Biso   1.000  H
  C1121    1.0000 0.78501  0.67599  0.05861  Biso   1.000  C
  H1328    1.0000 0.85470  0.73801  0.05989  Biso   1.000  H
  H1329    1.0000 0.55989  0.85470  0.23801  Biso   1.000  H
  C1122    1.0000 0.71499  0.82401  0.05861  Biso   1.000  C
  H1330    1.0000 0.73801  0.94011  0.14530  Biso   1.000  H
  H1331    1.0000 0.76199  0.55989  0.14530  Biso   1.000  H
  H1332    1.0000 0.64530  0.76199  0.05989  Biso   1.000  H
  N167     1.0000 0.79489  0.71379  0.02627  Biso   1.000  N
  H1333    1.0000 0.75351  0.65542  0.05290  Biso   1.000  H
  N168     1.0000 0.70511  0.78621  0.02627  Biso   1.000  N
  H1334    1.0000 0.74653  0.84462  0.05290  Biso   1.000  H
  C1123    1.0000 0.76111  0.72250  0.98056  Biso   1.000  C
  C1124    1.0000 0.73889  0.77750  0.98056  Biso   1.000  C
  C1125    1.0000 0.79352  0.71262  0.92978  Biso   1.000  C
  H1335    1.0000 0.73070  0.69631  0.98180  Biso   1.000  H
  C1126    1.0000 0.70652  0.78742  0.92978  Biso   1.000  C
  H1336    1.0000 0.76930  0.80369  0.98180  Biso   1.000  H
  C1127    1.0000 0.75982  0.72222  0.87949  Biso   1.000  C
  H1337    1.0000 0.80682  0.67510  0.92978  Biso   1.000  H
  H1338    1.0000 0.82502  0.73680  0.92938  Biso   1.000  H
  C1128    1.0000 0.74022  0.77782  0.87949  Biso   1.000  C
  H1339    1.0000 0.69322  0.82490  0.92978  Biso   1.000  H
  H1340    1.0000 0.67502  0.76320  0.92938  Biso   1.000  H
  H1341    1.0000 0.78192  0.71571  0.84711  Biso   1.000  H
  H1342    1.0000 0.72901  0.69712  0.87889  Biso   1.000  H
  H1343    1.0000 0.71812  0.78433  0.84711  Biso   1.000  H
  H1344    1.0000 0.77099  0.80292  0.87889  Biso   1.000  H
  C1129    1.0000 0.62051  0.75982  0.77782  Biso   1.000  C
  C1130    1.0000 0.62051  0.74022  0.72222  Biso   1.000  C
  C1131    1.0000 0.57022  0.79352  0.78742  Biso   1.000  C
  H1345    1.0000 0.65289  0.78192  0.78433  Biso   1.000  H
  H1346    1.0000 0.62111  0.72901  0.80292  Biso   1.000  H
  C1132    1.0000 0.57022  0.70652  0.71262  Biso   1.000  C
  H1347    1.0000 0.65289  0.71812  0.71571  Biso   1.000  H
  H1348    1.0000 0.62111  0.77099  0.69712  Biso   1.000  H
  C1133    1.0000 0.51944  0.76111  0.77750  Biso   1.000  C
  H1349    1.0000 0.57022  0.80682  0.82490  Biso   1.000  H
  H1350    1.0000 0.57062  0.82502  0.76320  Biso   1.000  H
  C1134    1.0000 0.51944  0.73889  0.72250  Biso   1.000  C
  H1351    1.0000 0.57022  0.69322  0.67510  Biso   1.000  H
  H1352    1.0000 0.57062  0.67502  0.73680  Biso   1.000  H
  H1353    1.0000 0.51820  0.73070  0.80369  Biso   1.000  H
  N169     1.0000 0.47373  0.79489  0.78621  Biso   1.000  N
  N170     1.0000 0.47373  0.70511  0.71379  Biso   1.000  N
  H1354    1.0000 0.51820  0.76930  0.69631  Biso   1.000  H
  C1135    1.0000 0.44139  0.78501  0.82401  Biso   1.000  C
  C1136    1.0000 0.44139  0.71499  0.67599  Biso   1.000  C
  H1355    1.0000 0.44710  0.75351  0.84462  Biso   1.000  H
  C1137    1.0000 0.39560  0.81899  0.83811  Biso   1.000  C
  C1138    1.0000 0.39560  0.68101  0.66189  Biso   1.000  C
  H1356    1.0000 0.44710  0.74653  0.65542  Biso   1.000  H
  C1139    1.0000 0.38298  0.86390  0.80550  Biso   1.000  C
  C1140    1.0000 0.36390  0.80550  0.88302  Biso   1.000  C
  C1141    1.0000 0.36390  0.69450  0.61702  Biso   1.000  C
  C1142    1.0000 0.38298  0.63610  0.69450  Biso   1.000  C
  C1143    1.0000 0.33811  0.89560  0.81899  Biso   1.000  C
  O169     1.0000 0.41432  0.87652  0.76380  Biso   1.000  O
  H1357    1.0000 0.40452  0.87230  0.77472  Biso   1.000  H
  C1144    1.0000 0.31899  0.83811  0.89560  Biso   1.000  C
  O170     1.0000 0.37652  0.76380  0.91432  Biso   1.000  O
  H1358    1.0000 0.37230  0.77472  0.90452  Biso   1.000  H
  C1145    1.0000 0.31899  0.66189  0.60440  Biso   1.000  C
  O171     1.0000 0.37652  0.73620  0.58572  Biso   1.000  O
  H1359    1.0000 0.37230  0.72532  0.59548  Biso   1.000  H
  C1146    1.0000 0.33811  0.60440  0.68101  Biso   1.000  C
  O172     1.0000 0.41432  0.62352  0.73620  Biso   1.000  O
  H1360    1.0000 0.40452  0.62770  0.72532  Biso   1.000  H
  C1147    1.0000 0.32401  0.94139  0.78501  Biso   1.000  C
  C1148    1.0000 0.30550  0.88302  0.86390  Biso   1.000  C
  H1361    1.0000 0.44011  0.85470  0.76199  Biso   1.000  H
  C1149    1.0000 0.28501  0.82401  0.94139  Biso   1.000  C
  H1362    1.0000 0.35470  0.76199  0.94011  Biso   1.000  H
  C1150    1.0000 0.28501  0.67599  0.55861  Biso   1.000  C
  C1151    1.0000 0.30550  0.61702  0.63610  Biso   1.000  C
  H1363    1.0000 0.35470  0.73801  0.55989  Biso   1.000  H
  C1152    1.0000 0.32401  0.55861  0.71499  Biso   1.000  C
  H1364    1.0000 0.44011  0.64530  0.73801  Biso   1.000  H
  N171     1.0000 0.28621  0.97373  0.79489  Biso   1.000  N
  H1365    1.0000 0.34462  0.94710  0.75351  Biso   1.000  H
  O173     1.0000 0.26380  0.91432  0.87652  Biso   1.000  O
  H1366    1.0000 0.27468  0.90452  0.87230  Biso   1.000  H
  N172     1.0000 0.29489  0.78621  0.97373  Biso   1.000  N
  H1367    1.0000 0.25351  0.84462  0.94710  Biso   1.000  H
  N173     1.0000 0.29489  0.71379  0.52627  Biso   1.000  N
  H1368    1.0000 0.25351  0.65542  0.55290  Biso   1.000  H
  O174     1.0000 0.26380  0.58572  0.62352  Biso   1.000  O
  H1369    1.0000 0.27468  0.59548  0.62770  Biso   1.000  H
  N174     1.0000 0.28621  0.52627  0.70511  Biso   1.000  N
  H1370    1.0000 0.34462  0.55290  0.74653  Biso   1.000  H
  C1153    1.0000 0.27750  0.01944  0.76111  Biso   1.000  C
  H1371    1.0000 0.26199  0.94011  0.85470  Biso   1.000  H
  C1154    1.0000 0.26111  0.77750  0.01944  Biso   1.000  C
  C1155    1.0000 0.26111  0.72250  0.48056  Biso   1.000  C
  H1372    1.0000 0.26199  0.55989  0.64530  Biso   1.000  H
  C1156    1.0000 0.27750  0.48056  0.73889  Biso   1.000  C
  C1157    1.0000 0.22250  0.01944  0.73889  Biso   1.000  C
  C1158    1.0000 0.28742  0.07022  0.79352  Biso   1.000  C
  H1373    1.0000 0.30369  0.01820  0.73070  Biso   1.000  H
  C1159    1.0000 0.23889  0.72250  0.01944  Biso   1.000  C
  C1160    1.0000 0.29348  0.78742  0.07022  Biso   1.000  C
  H1374    1.0000 0.23070  0.80369  0.01820  Biso   1.000  H
  C1161    1.0000 0.29348  0.71262  0.42982  Biso   1.000  C
  H1375    1.0000 0.23070  0.69631  0.48180  Biso   1.000  H
  C1162    1.0000 0.23889  0.77750  0.48056  Biso   1.000  C
  C1163    1.0000 0.28742  0.42982  0.70652  Biso   1.000  C
  H1376    1.0000 0.30369  0.48180  0.76930  Biso   1.000  H
  C1164    1.0000 0.22250  0.48056  0.76111  Biso   1.000  C
  N175     1.0000 0.21379  0.97373  0.70511  Biso   1.000  N
  C1165    1.0000 0.21262  0.07022  0.70652  Biso   1.000  C
  H1377    1.0000 0.19631  0.01820  0.76930  Biso   1.000  H
  C1166    1.0000 0.27782  0.12051  0.75982  Biso   1.000  C
  H1378    1.0000 0.32490  0.07022  0.80682  Biso   1.000  H
  H1379    1.0000 0.26320  0.07062  0.82502  Biso   1.000  H
  N176     1.0000 0.20511  0.71379  0.97373  Biso   1.000  N
  C1167    1.0000 0.20652  0.71262  0.07022  Biso   1.000  C
  H1380    1.0000 0.26930  0.69631  0.01820  Biso   1.000  H
  C1168    1.0000 0.25982  0.77782  0.12051  Biso   1.000  C
  H1381    1.0000 0.30682  0.82490  0.07022  Biso   1.000  H
  H1382    1.0000 0.32502  0.76320  0.07062  Biso   1.000  H
  C1169    1.0000 0.25982  0.72222  0.37949  Biso   1.000  C
  H1383    1.0000 0.30682  0.67510  0.42982  Biso   1.000  H
  H1384    1.0000 0.32502  0.73680  0.42942  Biso   1.000  H
  C1170    1.0000 0.20652  0.78742  0.42982  Biso   1.000  C
  H1385    1.0000 0.26930  0.80369  0.48180  Biso   1.000  H
  N177     1.0000 0.20511  0.78621  0.52627  Biso   1.000  N
  C1171    1.0000 0.27782  0.37949  0.74022  Biso   1.000  C
  H1386    1.0000 0.32490  0.42982  0.69322  Biso   1.000  H
  H1387    1.0000 0.26320  0.42942  0.67502  Biso   1.000  H
  C1172    1.0000 0.21262  0.42982  0.79352  Biso   1.000  C
  H1388    1.0000 0.19631  0.48180  0.73070  Biso   1.000  H
  N178     1.0000 0.21379  0.52627  0.79489  Biso   1.000  N
  C1173    1.0000 0.17599  0.94139  0.71499  Biso   1.000  C
  C1174    1.0000 0.22218  0.12051  0.74022  Biso   1.000  C
  H1389    1.0000 0.17510  0.07022  0.69322  Biso   1.000  H
  H1390    1.0000 0.23680  0.07062  0.67502  Biso   1.000  H
  H1391    1.0000 0.28429  0.15293  0.78192  Biso   1.000  H
  H1392    1.0000 0.30288  0.12111  0.72901  Biso   1.000  H
  C1175    1.0000 0.21499  0.67599  0.94139  Biso   1.000  C
  C1176    1.0000 0.24022  0.72222  0.12051  Biso   1.000  C
  H1393    1.0000 0.19322  0.67510  0.07022  Biso   1.000  H
  H1394    1.0000 0.17498  0.73680  0.07062  Biso   1.000  H
  H1395    1.0000 0.28192  0.78433  0.15293  Biso   1.000  H
  H1396    1.0000 0.22901  0.80292  0.12111  Biso   1.000  H
  H1397    1.0000 0.28192  0.71571  0.34711  Biso   1.000  H
  H1398    1.0000 0.22901  0.69712  0.37889  Biso   1.000  H
  C1177    1.0000 0.24022  0.77782  0.37949  Biso   1.000  C
  H1399    1.0000 0.19322  0.82490  0.42982  Biso   1.000  H
  H1400    1.0000 0.17498  0.76320  0.42942  Biso   1.000  H
  C1178    1.0000 0.21499  0.82401  0.55861  Biso   1.000  C
  H1401    1.0000 0.28429  0.34711  0.71812  Biso   1.000  H
  H1402    1.0000 0.30288  0.37889  0.77099  Biso   1.000  H
  C1179    1.0000 0.22218  0.37949  0.75982  Biso   1.000  C
  H1403    1.0000 0.17510  0.42982  0.80682  Biso   1.000  H
  H1404    1.0000 0.23680  0.42942  0.82502  Biso   1.000  H
  C1180    1.0000 0.17599  0.55861  0.78501  Biso   1.000  C
  C1181    1.0000 0.16189  0.89560  0.68101  Biso   1.000  C
  H1405    1.0000 0.15542  0.94710  0.74653  Biso   1.000  H
  H1406    1.0000 0.21571  0.15293  0.71812  Biso   1.000  H
  H1407    1.0000 0.19712  0.12111  0.77099  Biso   1.000  H
  C1182    1.0000 0.18101  0.66189  0.89560  Biso   1.000  C
  H1408    1.0000 0.24649  0.65542  0.94710  Biso   1.000  H
  H1409    1.0000 0.21808  0.71571  0.15293  Biso   1.000  H
  H1410    1.0000 0.27099  0.69712  0.12111  Biso   1.000  H
  H1411    1.0000 0.21808  0.78433  0.34711  Biso   1.000  H
  H1412    1.0000 0.27099  0.80292  0.37889  Biso   1.000  H
  H1413    1.0000 0.24649  0.84462  0.55290  Biso   1.000  H
  C1183    1.0000 0.18101  0.83811  0.60440  Biso   1.000  C
  H1414    1.0000 0.21571  0.34711  0.78192  Biso   1.000  H
  H1415    1.0000 0.19712  0.37889  0.72901  Biso   1.000  H
  H1416    1.0000 0.15542  0.55290  0.75351  Biso   1.000  H
  C1184    1.0000 0.16189  0.60440  0.81899  Biso   1.000  C
  C1185    1.0000 0.19450  0.88302  0.63610  Biso   1.000  C
  C1186    1.0000 0.11702  0.86390  0.69450  Biso   1.000  C
  C1187    1.0000 0.19450  0.61702  0.86390  Biso   1.000  C
  C1188    1.0000 0.13610  0.69450  0.88302  Biso   1.000  C
  C1189    1.0000 0.13610  0.80550  0.61702  Biso   1.000  C
  C1190    1.0000 0.11702  0.63610  0.80550  Biso   1.000  C
  O175     1.0000 0.23620  0.91432  0.62352  Biso   1.000  O
  H1417    1.0000 0.22532  0.90452  0.62770  Biso   1.000  H
  C1191    1.0000 0.10440  0.81899  0.66189  Biso   1.000  C
  O176     1.0000 0.08568  0.87652  0.73620  Biso   1.000  O
  H1418    1.0000 0.09548  0.87230  0.72532  Biso   1.000  H
  O177     1.0000 0.23620  0.58572  0.87652  Biso   1.000  O
  H1419    1.0000 0.22532  0.59548  0.87230  Biso   1.000  H
  C1192    1.0000 0.10440  0.68101  0.83811  Biso   1.000  C
  O178     1.0000 0.12348  0.73620  0.91432  Biso   1.000  O
  H1420    1.0000 0.12770  0.72532  0.90452  Biso   1.000  H
  O179     1.0000 0.12348  0.76380  0.58572  Biso   1.000  O
  H1421    1.0000 0.12770  0.77472  0.59548  Biso   1.000  H
  O180     1.0000 0.08568  0.62352  0.76380  Biso   1.000  O
  H1422    1.0000 0.09548  0.62770  0.77472  Biso   1.000  H
  H1423    1.0000 0.23801  0.94011  0.64530  Biso   1.000  H
  C1193    1.0000 0.05861  0.78501  0.67599  Biso   1.000  C
  H1424    1.0000 0.05989  0.85470  0.73801  Biso   1.000  H
  H1425    1.0000 0.23801  0.55989  0.85470  Biso   1.000  H
  C1194    1.0000 0.05861  0.71499  0.82401  Biso   1.000  C
  H1426    1.0000 0.14530  0.73801  0.94011  Biso   1.000  H
  H1427    1.0000 0.14530  0.76199  0.55989  Biso   1.000  H
  H1428    1.0000 0.05989  0.64530  0.76199  Biso   1.000  H
  N179     1.0000 0.02627  0.79489  0.71379  Biso   1.000  N
  H1429    1.0000 0.05290  0.75351  0.65542  Biso   1.000  H
  N180     1.0000 0.02627  0.70511  0.78621  Biso   1.000  N
  H1430    1.0000 0.05290  0.74653  0.84462  Biso   1.000  H
  C1195    1.0000 0.98056  0.76111  0.72250  Biso   1.000  C
  C1196    1.0000 0.98056  0.73889  0.77750  Biso   1.000  C
  C1197    1.0000 0.92978  0.79352  0.71262  Biso   1.000  C
  H1431    1.0000 0.98180  0.73070  0.69631  Biso   1.000  H
  C1198    1.0000 0.92978  0.70652  0.78742  Biso   1.000  C
  H1432    1.0000 0.98180  0.76930  0.80369  Biso   1.000  H
  C1199    1.0000 0.87949  0.75982  0.72222  Biso   1.000  C
  H1433    1.0000 0.92978  0.80682  0.67510  Biso   1.000  H
  H1434    1.0000 0.92938  0.82502  0.73680  Biso   1.000  H
  C1200    1.0000 0.87949  0.74022  0.77782  Biso   1.000  C
  H1435    1.0000 0.92978  0.69322  0.82490  Biso   1.000  H
  H1436    1.0000 0.92938  0.67502  0.76320  Biso   1.000  H
  H1437    1.0000 0.84711  0.78192  0.71571  Biso   1.000  H
  H1438    1.0000 0.87889  0.72901  0.69712  Biso   1.000  H
  H1439    1.0000 0.84711  0.71812  0.78433  Biso   1.000  H
  H1440    1.0000 0.87889  0.77099  0.80292  Biso   1.000  H
  O181     1.0000 0.98618  0.62650  0.66430  Biso   1.000  O
  C1201    1.0000 0.94448  0.61392  0.63300  Biso   1.000  C
  C1202    1.0000 0.94452  0.61392  0.63300  Biso   1.000  C
  H1441    1.0000 0.98799  0.60472  0.69009  Biso   1.000  H
  C1203    1.0000 0.93099  0.64562  0.58809  Biso   1.000  C
  C1204    1.0000 0.93103  0.64562  0.58809  Biso   1.000  C
  C1205    1.0000 0.91191  0.56901  0.64562  Biso   1.000  C
  O182     1.0000 0.98622  0.62650  0.66430  Biso   1.000  O
  H1442    1.0000 0.97530  0.62232  0.65450  Biso   1.000  H
  C1206    1.0000 0.88612  0.63300  0.55552  Biso   1.000  C
  C1207    1.0000 0.96501  0.69141  0.57399  Biso   1.000  C
  C1208    1.0000 0.86700  0.55552  0.61392  Biso   1.000  C
  C1209    1.0000 0.92601  0.53499  0.69141  Biso   1.000  C
  C1210    1.0000 0.85438  0.58809  0.56901  Biso   1.000  C
  C1211    1.0000 0.85442  0.58809  0.56901  Biso   1.000  C
  O183     1.0000 0.87350  0.66430  0.51382  Biso   1.000  O
  H1443    1.0000 0.87772  0.65450  0.52470  Biso   1.000  H
  N181     1.0000 0.95509  0.72375  0.53619  Biso   1.000  N
  H1444    1.0000 0.99651  0.69712  0.59460  Biso   1.000  H
  O184     1.0000 0.83570  0.51382  0.62650  Biso   1.000  O
  H1445    1.0000 0.84550  0.52470  0.62232  Biso   1.000  H
  N182     1.0000 0.96381  0.54491  0.72375  Biso   1.000  N
  H1446    1.0000 0.90540  0.50349  0.69712  Biso   1.000  H
  C1212    1.0000 0.80859  0.57399  0.53499  Biso   1.000  C
  H1447    1.0000 0.89532  0.69009  0.51201  Biso   1.000  H
  C1213    1.0000 0.98891  0.76946  0.52752  Biso   1.000  C
  H1448    1.0000 0.80991  0.51201  0.60472  Biso   1.000  H
  C1214    1.0000 0.97248  0.51109  0.76946  Biso   1.000  C
  C1215    1.0000 0.97252  0.51109  0.76946  Biso   1.000  C
  N183     1.0000 0.77625  0.53619  0.54491  Biso   1.000  N
  N184     1.0000 0.77629  0.53619  0.54491  Biso   1.000  N
  H1449    1.0000 0.80288  0.59460  0.50349  Biso   1.000  H
  H1450    1.0000 0.80292  0.59460  0.50349  Biso   1.000  H
  C1216    1.0000 0.95650  0.82020  0.53740  Biso   1.000  C
  H1451    1.0000 0.01928  0.76822  0.55371  Biso   1.000  H
  C1217    1.0000 0.01109  0.76946  0.47252  Biso   1.000  C
  H1452    1.0000 0.01932  0.76822  0.55371  Biso   1.000  H
  C1218    1.0000 0.01113  0.76946  0.47252  Biso   1.000  C
  C1219    1.0000 0.96260  0.54350  0.82020  Biso   1.000  C
  H1453    1.0000 0.94629  0.48072  0.76822  Biso   1.000  H
  C1220    1.0000 0.02752  0.48891  0.76946  Biso   1.000  C
  C1221    1.0000 0.73054  0.52752  0.51109  Biso   1.000  C
  C1222    1.0000 0.99020  0.87049  0.52780  Biso   1.000  C
  H1454    1.0000 0.94320  0.82020  0.57492  Biso   1.000  H
  H1455    1.0000 0.92500  0.82060  0.51322  Biso   1.000  H
  H1456    1.0000 0.98072  0.76822  0.44629  Biso   1.000  H
  C1223    1.0000 0.04350  0.82020  0.46260  Biso   1.000  C
  N185     1.0000 0.04491  0.72375  0.46381  Biso   1.000  N
  C1224    1.0000 0.97220  0.50980  0.87049  Biso   1.000  C
  H1457    1.0000 0.92508  0.55680  0.82020  Biso   1.000  H
  H1458    1.0000 0.98678  0.57500  0.82060  Biso   1.000  H
  H1459    1.0000 0.92512  0.55680  0.82020  Biso   1.000  H
  H1460    1.0000 0.98682  0.57500  0.82060  Biso   1.000  H
  C1225    1.0000 0.03740  0.45650  0.82020  Biso   1.000  C
  H1461    1.0000 0.05371  0.51932  0.76822  Biso   1.000  H
  N186     1.0000 0.03619  0.45509  0.72375  Biso   1.000  N
  C1226    1.0000 0.67980  0.53740  0.54350  Biso   1.000  C
  C1227    1.0000 0.73054  0.47252  0.48891  Biso   1.000  C
  H1462    1.0000 0.73178  0.55371  0.48072  Biso   1.000  H
  H1463    1.0000 0.73182  0.55371  0.48072  Biso   1.000  H
  H1464    1.0000 0.96810  0.90291  0.53431  Biso   1.000  H
  H1465    1.0000 0.02101  0.87109  0.55290  Biso   1.000  H
  C1228    1.0000 0.00980  0.87049  0.47220  Biso   1.000  C
  H1466    1.0000 0.05680  0.82020  0.42512  Biso   1.000  H
  H1467    1.0000 0.07500  0.82060  0.48678  Biso   1.000  H
  C1229    1.0000 0.03499  0.69141  0.42601  Biso   1.000  C
  H1468    1.0000 0.96569  0.53190  0.90291  Biso   1.000  H
  H1469    1.0000 0.94710  0.47899  0.87109  Biso   1.000  H
  C1230    1.0000 0.02780  0.49020  0.87049  Biso   1.000  C
  H1470    1.0000 0.07492  0.44320  0.82020  Biso   1.000  H
  H1471    1.0000 0.01322  0.42500  0.82060  Biso   1.000  H
  C1231    1.0000 0.07399  0.46501  0.69141  Biso   1.000  C
  C1232    1.0000 0.62951  0.52780  0.50980  Biso   1.000  C
  H1472    1.0000 0.67980  0.57492  0.55680  Biso   1.000  H
  H1473    1.0000 0.67940  0.51322  0.57500  Biso   1.000  H
  C1233    1.0000 0.67980  0.46260  0.45650  Biso   1.000  C
  H1474    1.0000 0.73178  0.44629  0.51932  Biso   1.000  H
  N187     1.0000 0.77625  0.46381  0.45509  Biso   1.000  N
  H1475    1.0000 0.73182  0.44629  0.51932  Biso   1.000  H
  N188     1.0000 0.77629  0.46381  0.45509  Biso   1.000  N
  H1476    1.0000 0.97899  0.87109  0.44710  Biso   1.000  H
  H1477    1.0000 0.03190  0.90291  0.46569  Biso   1.000  H
  H1478    1.0000 0.00349  0.69712  0.40540  Biso   1.000  H
  C1234    1.0000 0.06901  0.64562  0.41191  Biso   1.000  C
  H1479    1.0000 0.03431  0.46810  0.90291  Biso   1.000  H
  H1480    1.0000 0.05290  0.52101  0.87109  Biso   1.000  H
  H1481    1.0000 0.09460  0.49651  0.69712  Biso   1.000  H
  C1235    1.0000 0.08809  0.43099  0.64562  Biso   1.000  C
  C1236    1.0000 0.62951  0.47220  0.49020  Biso   1.000  C
  H1482    1.0000 0.59709  0.53431  0.53190  Biso   1.000  H
  H1483    1.0000 0.62891  0.55290  0.47899  Biso   1.000  H
  H1484    1.0000 0.67980  0.42512  0.44320  Biso   1.000  H
  H1485    1.0000 0.67940  0.48678  0.42500  Biso   1.000  H
  C1237    1.0000 0.80859  0.42601  0.46501  Biso   1.000  C
  C1238    1.0000 0.05552  0.61392  0.36700  Biso   1.000  C
  C1239    1.0000 0.11388  0.63300  0.44448  Biso   1.000  C
  C1240    1.0000 0.11392  0.63300  0.44448  Biso   1.000  C
  C1241    1.0000 0.05552  0.38612  0.63300  Biso   1.000  C
  C1242    1.0000 0.13300  0.44448  0.61392  Biso   1.000  C
  H1486    1.0000 0.59709  0.46569  0.46810  Biso   1.000  H
  H1487    1.0000 0.62891  0.44710  0.52101  Biso   1.000  H
  H1488    1.0000 0.80288  0.40540  0.49651  Biso   1.000  H
  C1243    1.0000 0.85438  0.41191  0.43099  Biso   1.000  C
  H1489    1.0000 0.80292  0.40540  0.49651  Biso   1.000  H
  C1244    1.0000 0.85442  0.41191  0.43099  Biso   1.000  C
  C1245    1.0000 0.08809  0.56901  0.35442  Biso   1.000  C
  O185     1.0000 0.01382  0.62650  0.33570  Biso   1.000  O
  H1490    1.0000 0.02470  0.62232  0.34550  Biso   1.000  H
  C1246    1.0000 0.14562  0.58809  0.43099  Biso   1.000  C
  O186     1.0000 0.12650  0.66430  0.48622  Biso   1.000  O
  H1491    1.0000 0.12232  0.65450  0.47530  Biso   1.000  H
  C1247    1.0000 0.06901  0.35442  0.58809  Biso   1.000  C
  O187     1.0000 0.01382  0.37350  0.66430  Biso   1.000  O
  H1492    1.0000 0.02470  0.37772  0.65450  Biso   1.000  H
  C1248    1.0000 0.14562  0.41191  0.56901  Biso   1.000  C
  O188     1.0000 0.16430  0.48622  0.62650  Biso   1.000  O
  H1493    1.0000 0.15450  0.47530  0.62232  Biso   1.000  H
  C1249    1.0000 0.86700  0.44448  0.38612  Biso   1.000  C
  C1250    1.0000 0.88612  0.36700  0.44448  Biso   1.000  C
  C1251    1.0000 0.07399  0.53499  0.30859  Biso   1.000  C
  C1252    1.0000 0.13300  0.55552  0.38612  Biso   1.000  C
  H1494    1.0000 0.01201  0.60472  0.30991  Biso   1.000  H
  C1253    1.0000 0.19141  0.57399  0.46501  Biso   1.000  C
  H1495    1.0000 0.10468  0.69009  0.48799  Biso   1.000  H
  H1496    1.0000 0.10472  0.69009  0.48799  Biso   1.000  H
  C1254    1.0000 0.03499  0.30859  0.57399  Biso   1.000  C
  C1255    1.0000 0.11388  0.36700  0.55552  Biso   1.000  C
  C1256    1.0000 0.11392  0.36700  0.55552  Biso   1.000  C
  H1497    1.0000 0.01201  0.39532  0.69009  Biso   1.000  H
  C1257    1.0000 0.19141  0.42601  0.53499  Biso   1.000  C
  H1498    1.0000 0.19009  0.48799  0.60472  Biso   1.000  H
  H1499    1.0000 0.19013  0.48799  0.60472  Biso   1.000  H
  O189     1.0000 0.83570  0.48622  0.37350  Biso   1.000  O
  C1258    1.0000 0.91191  0.43099  0.35442  Biso   1.000  C
  H1500    1.0000 0.84550  0.47530  0.37772  Biso   1.000  H
  C1259    1.0000 0.93099  0.35442  0.41191  Biso   1.000  C
  O190     1.0000 0.87350  0.33570  0.48622  Biso   1.000  O
  C1260    1.0000 0.93103  0.35442  0.41191  Biso   1.000  C
  H1501    1.0000 0.87772  0.34550  0.47530  Biso   1.000  H
  N189     1.0000 0.03619  0.54491  0.27629  Biso   1.000  N
  H1502    1.0000 0.09460  0.50349  0.30288  Biso   1.000  H
  O191     1.0000 0.16430  0.51382  0.37350  Biso   1.000  O
  H1503    1.0000 0.15450  0.52470  0.37772  Biso   1.000  H
  N190     1.0000 0.22375  0.53619  0.45509  Biso   1.000  N
  H1504    1.0000 0.19712  0.59460  0.49651  Biso   1.000  H
  N191     1.0000 0.04491  0.27629  0.53619  Biso   1.000  N
  H1505    1.0000 0.00349  0.30288  0.59460  Biso   1.000  H
  O192     1.0000 0.12650  0.33570  0.51382  Biso   1.000  O
  H1506    1.0000 0.12232  0.34550  0.52470  Biso   1.000  H
  N192     1.0000 0.22375  0.46381  0.54491  Biso   1.000  N
  H1507    1.0000 0.19712  0.40540  0.50349  Biso   1.000  H
  H1508    1.0000 0.80991  0.48799  0.39532  Biso   1.000  H
  C1261    1.0000 0.92601  0.46501  0.30859  Biso   1.000  C
  C1262    1.0000 0.94448  0.38612  0.36700  Biso   1.000  C
  C1263    1.0000 0.94452  0.38612  0.36700  Biso   1.000  C
  C1264    1.0000 0.96501  0.30859  0.42601  Biso   1.000  C
  H1509    1.0000 0.89532  0.30991  0.48799  Biso   1.000  H
  C1265    1.0000 0.02752  0.51109  0.23054  Biso   1.000  C
  H1510    1.0000 0.19009  0.51201  0.39532  Biso   1.000  H
  H1511    1.0000 0.19013  0.51201  0.39532  Biso   1.000  H
  C1266    1.0000 0.26946  0.52752  0.48891  Biso   1.000  C
  C1267    1.0000 0.01109  0.23054  0.52752  Biso   1.000  C
  C1268    1.0000 0.01113  0.23054  0.52752  Biso   1.000  C
  H1512    1.0000 0.10468  0.30991  0.51201  Biso   1.000  H
  H1513    1.0000 0.10472  0.30991  0.51201  Biso   1.000  H
  C1269    1.0000 0.26946  0.47252  0.51109  Biso   1.000  C
  N193     1.0000 0.96381  0.45509  0.27629  Biso   1.000  N
  H1514    1.0000 0.90540  0.49651  0.30288  Biso   1.000  H
  O193     1.0000 0.98618  0.37350  0.33570  Biso   1.000  O
  O194     1.0000 0.98622  0.37350  0.33570  Biso   1.000  O
  H1515    1.0000 0.97530  0.37772  0.34550  Biso   1.000  H
  N194     1.0000 0.95509  0.27629  0.46381  Biso   1.000  N
  H1516    1.0000 0.99651  0.30288  0.40540  Biso   1.000  H
  C1270    1.0000 0.97248  0.48891  0.23054  Biso   1.000  C
  C1271    1.0000 0.97252  0.48891  0.23054  Biso   1.000  C
  C1272    1.0000 0.03740  0.54350  0.17980  Biso   1.000  C
  H1517    1.0000 0.05371  0.48072  0.23178  Biso   1.000  H
  C1273    1.0000 0.32020  0.53740  0.45650  Biso   1.000  C
  H1518    1.0000 0.26822  0.55371  0.51932  Biso   1.000  H
  C1274    1.0000 0.98891  0.23054  0.47252  Biso   1.000  C
  H1519    1.0000 0.98072  0.23178  0.55371  Biso   1.000  H
  C1275    1.0000 0.04350  0.17980  0.53740  Biso   1.000  C
  C1276    1.0000 0.32020  0.46260  0.54350  Biso   1.000  C
  H1520    1.0000 0.26822  0.44629  0.48072  Biso   1.000  H
  H1521    1.0000 0.98799  0.39532  0.30991  Biso   1.000  H
  C1277    1.0000 0.96260  0.45650  0.17980  Biso   1.000  C
  H1522    1.0000 0.94629  0.51932  0.23178  Biso   1.000  H
  C1278    1.0000 0.02780  0.50980  0.12951  Biso   1.000  C
  H1523    1.0000 0.07492  0.55680  0.17980  Biso   1.000  H
  H1524    1.0000 0.01322  0.57500  0.17940  Biso   1.000  H
  C1279    1.0000 0.37049  0.52780  0.49020  Biso   1.000  C
  H1525    1.0000 0.32020  0.57492  0.44320  Biso   1.000  H
  H1526    1.0000 0.32060  0.51322  0.42500  Biso   1.000  H
  C1280    1.0000 0.37053  0.52780  0.49020  Biso   1.000  C
  C1281    1.0000 0.95650  0.17980  0.46260  Biso   1.000  C
  H1527    1.0000 0.01928  0.23178  0.44629  Biso   1.000  H
  H1528    1.0000 0.01932  0.23178  0.44629  Biso   1.000  H
  C1282    1.0000 0.00980  0.12951  0.52780  Biso   1.000  C
  H1529    1.0000 0.05680  0.17980  0.57492  Biso   1.000  H
  H1530    1.0000 0.07500  0.17940  0.51322  Biso   1.000  H
  C1283    1.0000 0.37049  0.47220  0.50980  Biso   1.000  C
  H1531    1.0000 0.32020  0.42512  0.55680  Biso   1.000  H
  H1532    1.0000 0.32060  0.48678  0.57500  Biso   1.000  H
  C1284    1.0000 0.37053  0.47220  0.50980  Biso   1.000  C
  C1285    1.0000 0.97220  0.49020  0.12951  Biso   1.000  C
  H1533    1.0000 0.92508  0.44320  0.17980  Biso   1.000  H
  H1534    1.0000 0.98678  0.42500  0.17940  Biso   1.000  H
  H1535    1.0000 0.92512  0.44320  0.17980  Biso   1.000  H
  H1536    1.0000 0.98682  0.42500  0.17940  Biso   1.000  H
  H1537    1.0000 0.03431  0.53190  0.09709  Biso   1.000  H
  H1538    1.0000 0.05290  0.47899  0.12891  Biso   1.000  H
  H1539    1.0000 0.40291  0.53431  0.46810  Biso   1.000  H
  H1540    1.0000 0.37109  0.55290  0.52101  Biso   1.000  H
  C1286    1.0000 0.99020  0.12951  0.47220  Biso   1.000  C
  H1541    1.0000 0.94320  0.17980  0.42512  Biso   1.000  H
  H1542    1.0000 0.92500  0.17940  0.48678  Biso   1.000  H
  H1543    1.0000 0.97899  0.12891  0.55290  Biso   1.000  H
  H1544    1.0000 0.03190  0.09709  0.53431  Biso   1.000  H
  H1545    1.0000 0.40291  0.46569  0.53190  Biso   1.000  H
  H1546    1.0000 0.37109  0.44710  0.47899  Biso   1.000  H
  H1547    1.0000 0.96569  0.46810  0.09709  Biso   1.000  H
  H1548    1.0000 0.94710  0.52101  0.12891  Biso   1.000  H
  H1549    1.0000 0.96810  0.09709  0.46569  Biso   1.000  H
  H1550    1.0000 0.02101  0.12891  0.44710  Biso   1.000  H
  O195     1.0000 0.98618  0.62650  0.66430  Biso   1.000  O
  C1287    1.0000 0.94448  0.61392  0.63300  Biso   1.000  C
  C1288    1.0000 0.94452  0.61392  0.63300  Biso   1.000  C
  H1551    1.0000 0.98799  0.60472  0.69009  Biso   1.000  H
  C1289    1.0000 0.93099  0.64562  0.58809  Biso   1.000  C
  C1290    1.0000 0.93103  0.64562  0.58809  Biso   1.000  C
  C1291    1.0000 0.91191  0.56901  0.64562  Biso   1.000  C
  O196     1.0000 0.98622  0.62650  0.66430  Biso   1.000  O
  H1552    1.0000 0.97530  0.62232  0.65450  Biso   1.000  H
  C1292    1.0000 0.88612  0.63300  0.55552  Biso   1.000  C
  C1293    1.0000 0.96501  0.69141  0.57399  Biso   1.000  C
  C1294    1.0000 0.86700  0.55552  0.61392  Biso   1.000  C
  C1295    1.0000 0.92601  0.53499  0.69141  Biso   1.000  C
  C1296    1.0000 0.85438  0.58809  0.56901  Biso   1.000  C
  C1297    1.0000 0.85442  0.58809  0.56901  Biso   1.000  C
  O197     1.0000 0.87350  0.66430  0.51382  Biso   1.000  O
  H1553    1.0000 0.87772  0.65450  0.52470  Biso   1.000  H
  N195     1.0000 0.95509  0.72375  0.53619  Biso   1.000  N
  H1554    1.0000 0.99651  0.69712  0.59460  Biso   1.000  H
  O198     1.0000 0.83570  0.51382  0.62650  Biso   1.000  O
  H1555    1.0000 0.84550  0.52470  0.62232  Biso   1.000  H
  N196     1.0000 0.96381  0.54491  0.72375  Biso   1.000  N
  H1556    1.0000 0.90540  0.50349  0.69712  Biso   1.000  H
  C1298    1.0000 0.80859  0.57399  0.53499  Biso   1.000  C
  H1557    1.0000 0.89532  0.69009  0.51201  Biso   1.000  H
  C1299    1.0000 0.98891  0.76946  0.52752  Biso   1.000  C
  H1558    1.0000 0.80991  0.51201  0.60472  Biso   1.000  H
  C1300    1.0000 0.97248  0.51109  0.76946  Biso   1.000  C
  C1301    1.0000 0.97252  0.51109  0.76946  Biso   1.000  C
  N197     1.0000 0.77625  0.53619  0.54491  Biso   1.000  N
  N198     1.0000 0.77629  0.53619  0.54491  Biso   1.000  N
  H1559    1.0000 0.80288  0.59460  0.50349  Biso   1.000  H
  H1560    1.0000 0.80292  0.59460  0.50349  Biso   1.000  H
  C1302    1.0000 0.95650  0.82020  0.53740  Biso   1.000  C
  H1561    1.0000 0.01928  0.76822  0.55371  Biso   1.000  H
  C1303    1.0000 0.01109  0.76946  0.47252  Biso   1.000  C
  H1562    1.0000 0.01932  0.76822  0.55371  Biso   1.000  H
  C1304    1.0000 0.01113  0.76946  0.47252  Biso   1.000  C
  C1305    1.0000 0.96260  0.54350  0.82020  Biso   1.000  C
  H1563    1.0000 0.94629  0.48072  0.76822  Biso   1.000  H
  C1306    1.0000 0.02752  0.48891  0.76946  Biso   1.000  C
  C1307    1.0000 0.73054  0.52752  0.51109  Biso   1.000  C
  C1308    1.0000 0.99020  0.87049  0.52780  Biso   1.000  C
  H1564    1.0000 0.94320  0.82020  0.57492  Biso   1.000  H
  H1565    1.0000 0.92500  0.82060  0.51322  Biso   1.000  H
  H1566    1.0000 0.98072  0.76822  0.44629  Biso   1.000  H
  C1309    1.0000 0.04350  0.82020  0.46260  Biso   1.000  C
  N199     1.0000 0.04491  0.72375  0.46381  Biso   1.000  N
  C1310    1.0000 0.97220  0.50980  0.87049  Biso   1.000  C
  H1567    1.0000 0.92508  0.55680  0.82020  Biso   1.000  H
  H1568    1.0000 0.98678  0.57500  0.82060  Biso   1.000  H
  H1569    1.0000 0.92512  0.55680  0.82020  Biso   1.000  H
  H1570    1.0000 0.98682  0.57500  0.82060  Biso   1.000  H
  C1311    1.0000 0.03740  0.45650  0.82020  Biso   1.000  C
  H1571    1.0000 0.05371  0.51932  0.76822  Biso   1.000  H
  N200     1.0000 0.03619  0.45509  0.72375  Biso   1.000  N
  C1312    1.0000 0.67980  0.53740  0.54350  Biso   1.000  C
  C1313    1.0000 0.73054  0.47252  0.48891  Biso   1.000  C
  H1572    1.0000 0.73178  0.55371  0.48072  Biso   1.000  H
  H1573    1.0000 0.73182  0.55371  0.48072  Biso   1.000  H
  H1574    1.0000 0.96810  0.90291  0.53431  Biso   1.000  H
  H1575    1.0000 0.02101  0.87109  0.55290  Biso   1.000  H
  C1314    1.0000 0.00980  0.87049  0.47220  Biso   1.000  C
  H1576    1.0000 0.05680  0.82020  0.42512  Biso   1.000  H
  H1577    1.0000 0.07500  0.82060  0.48678  Biso   1.000  H
  C1315    1.0000 0.03499  0.69141  0.42601  Biso   1.000  C
  H1578    1.0000 0.96569  0.53190  0.90291  Biso   1.000  H
  H1579    1.0000 0.94710  0.47899  0.87109  Biso   1.000  H
  C1316    1.0000 0.02780  0.49020  0.87049  Biso   1.000  C
  H1580    1.0000 0.07492  0.44320  0.82020  Biso   1.000  H
  H1581    1.0000 0.01322  0.42500  0.82060  Biso   1.000  H
  C1317    1.0000 0.07399  0.46501  0.69141  Biso   1.000  C
  C1318    1.0000 0.62951  0.52780  0.50980  Biso   1.000  C
  H1582    1.0000 0.67980  0.57492  0.55680  Biso   1.000  H
  H1583    1.0000 0.67940  0.51322  0.57500  Biso   1.000  H
  C1319    1.0000 0.67980  0.46260  0.45650  Biso   1.000  C
  H1584    1.0000 0.73178  0.44629  0.51932  Biso   1.000  H
  N201     1.0000 0.77625  0.46381  0.45509  Biso   1.000  N
  H1585    1.0000 0.73182  0.44629  0.51932  Biso   1.000  H
  N202     1.0000 0.77629  0.46381  0.45509  Biso   1.000  N
  H1586    1.0000 0.97899  0.87109  0.44710  Biso   1.000  H
  H1587    1.0000 0.03190  0.90291  0.46569  Biso   1.000  H
  H1588    1.0000 0.00349  0.69712  0.40540  Biso   1.000  H
  C1320    1.0000 0.06901  0.64562  0.41191  Biso   1.000  C
  H1589    1.0000 0.03431  0.46810  0.90291  Biso   1.000  H
  H1590    1.0000 0.05290  0.52101  0.87109  Biso   1.000  H
  H1591    1.0000 0.09460  0.49651  0.69712  Biso   1.000  H
  C1321    1.0000 0.08809  0.43099  0.64562  Biso   1.000  C
  C1322    1.0000 0.62951  0.47220  0.49020  Biso   1.000  C
  H1592    1.0000 0.59709  0.53431  0.53190  Biso   1.000  H
  H1593    1.0000 0.62891  0.55290  0.47899  Biso   1.000  H
  H1594    1.0000 0.67980  0.42512  0.44320  Biso   1.000  H
  H1595    1.0000 0.67940  0.48678  0.42500  Biso   1.000  H
  C1323    1.0000 0.80859  0.42601  0.46501  Biso   1.000  C
  C1324    1.0000 0.05552  0.61392  0.36700  Biso   1.000  C
  C1325    1.0000 0.11388  0.63300  0.44448  Biso   1.000  C
  C1326    1.0000 0.11392  0.63300  0.44448  Biso   1.000  C
  C1327    1.0000 0.05552  0.38612  0.63300  Biso   1.000  C
  C1328    1.0000 0.13300  0.44448  0.61392  Biso   1.000  C
  H1596    1.0000 0.59709  0.46569  0.46810  Biso   1.000  H
  H1597    1.0000 0.62891  0.44710  0.52101  Biso   1.000  H
  H1598    1.0000 0.80288  0.40540  0.49651  Biso   1.000  H
  C1329    1.0000 0.85438  0.41191  0.43099  Biso   1.000  C
  H1599    1.0000 0.80292  0.40540  0.49651  Biso   1.000  H
  C1330    1.0000 0.85442  0.41191  0.43099  Biso   1.000  C
  C1331    1.0000 0.08809  0.56901  0.35442  Biso   1.000  C
  O199     1.0000 0.01382  0.62650  0.33570  Biso   1.000  O
  H1600    1.0000 0.02470  0.62232  0.34550  Biso   1.000  H
  C1332    1.0000 0.14562  0.58809  0.43099  Biso   1.000  C
  O200     1.0000 0.12650  0.66430  0.48622  Biso   1.000  O
  H1601    1.0000 0.12232  0.65450  0.47530  Biso   1.000  H
  C1333    1.0000 0.06901  0.35442  0.58809  Biso   1.000  C
  O201     1.0000 0.01382  0.37350  0.66430  Biso   1.000  O
  H1602    1.0000 0.02470  0.37772  0.65450  Biso   1.000  H
  C1334    1.0000 0.14562  0.41191  0.56901  Biso   1.000  C
  O202     1.0000 0.16430  0.48622  0.62650  Biso   1.000  O
  H1603    1.0000 0.15450  0.47530  0.62232  Biso   1.000  H
  C1335    1.0000 0.86700  0.44448  0.38612  Biso   1.000  C
  C1336    1.0000 0.88612  0.36700  0.44448  Biso   1.000  C
  C1337    1.0000 0.07399  0.53499  0.30859  Biso   1.000  C
  C1338    1.0000 0.13300  0.55552  0.38612  Biso   1.000  C
  H1604    1.0000 0.01201  0.60472  0.30991  Biso   1.000  H
  C1339    1.0000 0.19141  0.57399  0.46501  Biso   1.000  C
  H1605    1.0000 0.10468  0.69009  0.48799  Biso   1.000  H
  H1606    1.0000 0.10472  0.69009  0.48799  Biso   1.000  H
  C1340    1.0000 0.03499  0.30859  0.57399  Biso   1.000  C
  C1341    1.0000 0.11388  0.36700  0.55552  Biso   1.000  C
  C1342    1.0000 0.11392  0.36700  0.55552  Biso   1.000  C
  H1607    1.0000 0.01201  0.39532  0.69009  Biso   1.000  H
  C1343    1.0000 0.19141  0.42601  0.53499  Biso   1.000  C
  H1608    1.0000 0.19009  0.48799  0.60472  Biso   1.000  H
  H1609    1.0000 0.19013  0.48799  0.60472  Biso   1.000  H
  O203     1.0000 0.83570  0.48622  0.37350  Biso   1.000  O
  C1344    1.0000 0.91191  0.43099  0.35442  Biso   1.000  C
  H1610    1.0000 0.84550  0.47530  0.37772  Biso   1.000  H
  O204     1.0000 0.87350  0.33570  0.48622  Biso   1.000  O
  C1345    1.0000 0.93099  0.35442  0.41191  Biso   1.000  C
  C1346    1.0000 0.93103  0.35442  0.41191  Biso   1.000  C
  H1611    1.0000 0.87772  0.34550  0.47530  Biso   1.000  H
  N203     1.0000 0.03619  0.54491  0.27629  Biso   1.000  N
  H1612    1.0000 0.09460  0.50349  0.30288  Biso   1.000  H
  O205     1.0000 0.16430  0.51382  0.37350  Biso   1.000  O
  H1613    1.0000 0.15450  0.52470  0.37772  Biso   1.000  H
  N204     1.0000 0.22375  0.53619  0.45509  Biso   1.000  N
  H1614    1.0000 0.19712  0.59460  0.49651  Biso   1.000  H
  N205     1.0000 0.04491  0.27629  0.53619  Biso   1.000  N
  H1615    1.0000 0.00349  0.30288  0.59460  Biso   1.000  H
  O206     1.0000 0.12650  0.33570  0.51382  Biso   1.000  O
  H1616    1.0000 0.12232  0.34550  0.52470  Biso   1.000  H
  N206     1.0000 0.22375  0.46381  0.54491  Biso   1.000  N
  H1617    1.0000 0.19712  0.40540  0.50349  Biso   1.000  H
  H1618    1.0000 0.80991  0.48799  0.39532  Biso   1.000  H
  C1347    1.0000 0.92601  0.46501  0.30859  Biso   1.000  C
  C1348    1.0000 0.94448  0.38612  0.36700  Biso   1.000  C
  C1349    1.0000 0.94452  0.38612  0.36700  Biso   1.000  C
  H1619    1.0000 0.89532  0.30991  0.48799  Biso   1.000  H
  C1350    1.0000 0.96501  0.30859  0.42601  Biso   1.000  C
  C1351    1.0000 0.02752  0.51109  0.23054  Biso   1.000  C
  H1620    1.0000 0.19009  0.51201  0.39532  Biso   1.000  H
  H1621    1.0000 0.19013  0.51201  0.39532  Biso   1.000  H
  C1352    1.0000 0.26946  0.52752  0.48891  Biso   1.000  C
  C1353    1.0000 0.01109  0.23054  0.52752  Biso   1.000  C
  C1354    1.0000 0.01113  0.23054  0.52752  Biso   1.000  C
  H1622    1.0000 0.10468  0.30991  0.51201  Biso   1.000  H
  H1623    1.0000 0.10472  0.30991  0.51201  Biso   1.000  H
  C1355    1.0000 0.26946  0.47252  0.51109  Biso   1.000  C
  N207     1.0000 0.96381  0.45509  0.27629  Biso   1.000  N
  H1624    1.0000 0.90540  0.49651  0.30288  Biso   1.000  H
  O207     1.0000 0.98618  0.37350  0.33570  Biso   1.000  O
  O208     1.0000 0.98622  0.37350  0.33570  Biso   1.000  O
  H1625    1.0000 0.97530  0.37772  0.34550  Biso   1.000  H
  N208     1.0000 0.95509  0.27629  0.46381  Biso   1.000  N
  H1626    1.0000 0.99651  0.30288  0.40540  Biso   1.000  H
  C1356    1.0000 0.97248  0.48891  0.23054  Biso   1.000  C
  C1357    1.0000 0.97252  0.48891  0.23054  Biso   1.000  C
  C1358    1.0000 0.03740  0.54350  0.17980  Biso   1.000  C
  H1627    1.0000 0.05371  0.48072  0.23178  Biso   1.000  H
  C1359    1.0000 0.32020  0.53740  0.45650  Biso   1.000  C
  H1628    1.0000 0.26822  0.55371  0.51932  Biso   1.000  H
  C1360    1.0000 0.98891  0.23054  0.47252  Biso   1.000  C
  H1629    1.0000 0.98072  0.23178  0.55371  Biso   1.000  H
  C1361    1.0000 0.04350  0.17980  0.53740  Biso   1.000  C
  C1362    1.0000 0.32020  0.46260  0.54350  Biso   1.000  C
  H1630    1.0000 0.26822  0.44629  0.48072  Biso   1.000  H
  H1631    1.0000 0.98799  0.39532  0.30991  Biso   1.000  H
  C1363    1.0000 0.96260  0.45650  0.17980  Biso   1.000  C
  H1632    1.0000 0.94629  0.51932  0.23178  Biso   1.000  H
  C1364    1.0000 0.02780  0.50980  0.12951  Biso   1.000  C
  H1633    1.0000 0.07492  0.55680  0.17980  Biso   1.000  H
  H1634    1.0000 0.01322  0.57500  0.17940  Biso   1.000  H
  C1365    1.0000 0.37049  0.52780  0.49020  Biso   1.000  C
  H1635    1.0000 0.32020  0.57492  0.44320  Biso   1.000  H
  H1636    1.0000 0.32060  0.51322  0.42500  Biso   1.000  H
  C1366    1.0000 0.37053  0.52780  0.49020  Biso   1.000  C
  C1367    1.0000 0.95650  0.17980  0.46260  Biso   1.000  C
  H1637    1.0000 0.01928  0.23178  0.44629  Biso   1.000  H
  H1638    1.0000 0.01932  0.23178  0.44629  Biso   1.000  H
  C1368    1.0000 0.00980  0.12951  0.52780  Biso   1.000  C
  H1639    1.0000 0.05680  0.17980  0.57492  Biso   1.000  H
  H1640    1.0000 0.07500  0.17940  0.51322  Biso   1.000  H
  C1369    1.0000 0.37049  0.47220  0.50980  Biso   1.000  C
  H1641    1.0000 0.32020  0.42512  0.55680  Biso   1.000  H
  H1642    1.0000 0.32060  0.48678  0.57500  Biso   1.000  H
  C1370    1.0000 0.37053  0.47220  0.50980  Biso   1.000  C
  C1371    1.0000 0.97220  0.49020  0.12951  Biso   1.000  C
  H1643    1.0000 0.92508  0.44320  0.17980  Biso   1.000  H
  H1644    1.0000 0.98678  0.42500  0.17940  Biso   1.000  H
  H1645    1.0000 0.92512  0.44320  0.17980  Biso   1.000  H
  H1646    1.0000 0.98682  0.42500  0.17940  Biso   1.000  H
  H1647    1.0000 0.03431  0.53190  0.09709  Biso   1.000  H
  H1648    1.0000 0.05290  0.47899  0.12891  Biso   1.000  H
  H1649    1.0000 0.40291  0.53431  0.46810  Biso   1.000  H
  H1650    1.0000 0.37109  0.55290  0.52101  Biso   1.000  H
  C1372    1.0000 0.99020  0.12951  0.47220  Biso   1.000  C
  H1651    1.0000 0.94320  0.17980  0.42512  Biso   1.000  H
  H1652    1.0000 0.92500  0.17940  0.48678  Biso   1.000  H
  H1653    1.0000 0.97899  0.12891  0.55290  Biso   1.000  H
  H1654    1.0000 0.03190  0.09709  0.53431  Biso   1.000  H
  H1655    1.0000 0.40291  0.46569  0.53190  Biso   1.000  H
  H1656    1.0000 0.37109  0.44710  0.47899  Biso   1.000  H
  H1657    1.0000 0.96569  0.46810  0.09709  Biso   1.000  H
  H1658    1.0000 0.94710  0.52101  0.12891  Biso   1.000  H
  H1659    1.0000 0.96810  0.09709  0.46569  Biso   1.000  H
  H1660    1.0000 0.02101  0.12891  0.44710  Biso   1.000  H
  O209     1.0000 0.66430  0.98618  0.62650  Biso   1.000  O
  C1373    1.0000 0.63300  0.94448  0.61392  Biso   1.000  C
  C1374    1.0000 0.63300  0.94452  0.61392  Biso   1.000  C
  H1661    1.0000 0.69009  0.98799  0.60472  Biso   1.000  H
  C1375    1.0000 0.58809  0.93099  0.64562  Biso   1.000  C
  C1376    1.0000 0.58809  0.93103  0.64562  Biso   1.000  C
  C1377    1.0000 0.64562  0.91191  0.56901  Biso   1.000  C
  O210     1.0000 0.66430  0.98622  0.62650  Biso   1.000  O
  H1662    1.0000 0.65450  0.97530  0.62232  Biso   1.000  H
  C1378    1.0000 0.55552  0.88612  0.63300  Biso   1.000  C
  C1379    1.0000 0.57399  0.96501  0.69141  Biso   1.000  C
  C1380    1.0000 0.61392  0.86700  0.55552  Biso   1.000  C
  C1381    1.0000 0.69141  0.92601  0.53499  Biso   1.000  C
  C1382    1.0000 0.56901  0.85438  0.58809  Biso   1.000  C
  C1383    1.0000 0.56901  0.85442  0.58809  Biso   1.000  C
  O211     1.0000 0.51382  0.87350  0.66430  Biso   1.000  O
  H1663    1.0000 0.52470  0.87772  0.65450  Biso   1.000  H
  N209     1.0000 0.53619  0.95509  0.72375  Biso   1.000  N
  H1664    1.0000 0.59460  0.99651  0.69712  Biso   1.000  H
  O212     1.0000 0.62650  0.83570  0.51382  Biso   1.000  O
  H1665    1.0000 0.62232  0.84550  0.52470  Biso   1.000  H
  N210     1.0000 0.72375  0.96381  0.54491  Biso   1.000  N
  H1666    1.0000 0.69712  0.90540  0.50349  Biso   1.000  H
  C1384    1.0000 0.53499  0.80859  0.57399  Biso   1.000  C
  H1667    1.0000 0.51201  0.89532  0.69009  Biso   1.000  H
  C1385    1.0000 0.52752  0.98891  0.76946  Biso   1.000  C
  H1668    1.0000 0.60472  0.80991  0.51201  Biso   1.000  H
  C1386    1.0000 0.76946  0.97248  0.51109  Biso   1.000  C
  C1387    1.0000 0.76946  0.97252  0.51109  Biso   1.000  C
  N211     1.0000 0.54491  0.77625  0.53619  Biso   1.000  N
  N212     1.0000 0.54491  0.77629  0.53619  Biso   1.000  N
  H1669    1.0000 0.50349  0.80288  0.59460  Biso   1.000  H
  H1670    1.0000 0.50349  0.80292  0.59460  Biso   1.000  H
  C1388    1.0000 0.53740  0.95650  0.82020  Biso   1.000  C
  H1671    1.0000 0.55371  0.01928  0.76822  Biso   1.000  H
  C1389    1.0000 0.47252  0.01109  0.76946  Biso   1.000  C
  H1672    1.0000 0.55371  0.01932  0.76822  Biso   1.000  H
  C1390    1.0000 0.47252  0.01113  0.76946  Biso   1.000  C
  C1391    1.0000 0.82020  0.96260  0.54350  Biso   1.000  C
  H1673    1.0000 0.76822  0.94629  0.48072  Biso   1.000  H
  C1392    1.0000 0.76946  0.02752  0.48891  Biso   1.000  C
  C1393    1.0000 0.51109  0.73054  0.52752  Biso   1.000  C
  C1394    1.0000 0.52780  0.99020  0.87049  Biso   1.000  C
  H1674    1.0000 0.57492  0.94320  0.82020  Biso   1.000  H
  H1675    1.0000 0.51322  0.92500  0.82060  Biso   1.000  H
  H1676    1.0000 0.44629  0.98072  0.76822  Biso   1.000  H
  C1395    1.0000 0.46260  0.04350  0.82020  Biso   1.000  C
  N213     1.0000 0.46381  0.04491  0.72375  Biso   1.000  N
  C1396    1.0000 0.87049  0.97220  0.50980  Biso   1.000  C
  H1677    1.0000 0.82020  0.92508  0.55680  Biso   1.000  H
  H1678    1.0000 0.82060  0.98678  0.57500  Biso   1.000  H
  H1679    1.0000 0.82020  0.92512  0.55680  Biso   1.000  H
  H1680    1.0000 0.82060  0.98682  0.57500  Biso   1.000  H
  C1397    1.0000 0.82020  0.03740  0.45650  Biso   1.000  C
  H1681    1.0000 0.76822  0.05371  0.51932  Biso   1.000  H
  N214     1.0000 0.72375  0.03619  0.45509  Biso   1.000  N
  C1398    1.0000 0.54350  0.67980  0.53740  Biso   1.000  C
  C1399    1.0000 0.48891  0.73054  0.47252  Biso   1.000  C
  H1682    1.0000 0.48072  0.73178  0.55371  Biso   1.000  H
  H1683    1.0000 0.48072  0.73182  0.55371  Biso   1.000  H
  H1684    1.0000 0.53431  0.96810  0.90291  Biso   1.000  H
  H1685    1.0000 0.55290  0.02101  0.87109  Biso   1.000  H
  C1400    1.0000 0.47220  0.00980  0.87049  Biso   1.000  C
  H1686    1.0000 0.42512  0.05680  0.82020  Biso   1.000  H
  H1687    1.0000 0.48678  0.07500  0.82060  Biso   1.000  H
  C1401    1.0000 0.42601  0.03499  0.69141  Biso   1.000  C
  H1688    1.0000 0.90291  0.96569  0.53190  Biso   1.000  H
  H1689    1.0000 0.87109  0.94710  0.47899  Biso   1.000  H
  C1402    1.0000 0.87049  0.02780  0.49020  Biso   1.000  C
  H1690    1.0000 0.82020  0.07492  0.44320  Biso   1.000  H
  H1691    1.0000 0.82060  0.01322  0.42500  Biso   1.000  H
  C1403    1.0000 0.69141  0.07399  0.46501  Biso   1.000  C
  C1404    1.0000 0.50980  0.62951  0.52780  Biso   1.000  C
  H1692    1.0000 0.55680  0.67980  0.57492  Biso   1.000  H
  H1693    1.0000 0.57500  0.67940  0.51322  Biso   1.000  H
  C1405    1.0000 0.45650  0.67980  0.46260  Biso   1.000  C
  H1694    1.0000 0.51932  0.73178  0.44629  Biso   1.000  H
  N215     1.0000 0.45509  0.77625  0.46381  Biso   1.000  N
  H1695    1.0000 0.51932  0.73182  0.44629  Biso   1.000  H
  N216     1.0000 0.45509  0.77629  0.46381  Biso   1.000  N
  H1696    1.0000 0.44710  0.97899  0.87109  Biso   1.000  H
  H1697    1.0000 0.46569  0.03190  0.90291  Biso   1.000  H
  H1698    1.0000 0.40540  0.00349  0.69712  Biso   1.000  H
  C1406    1.0000 0.41191  0.06901  0.64562  Biso   1.000  C
  H1699    1.0000 0.90291  0.03431  0.46810  Biso   1.000  H
  H1700    1.0000 0.87109  0.05290  0.52101  Biso   1.000  H
  H1701    1.0000 0.69712  0.09460  0.49651  Biso   1.000  H
  C1407    1.0000 0.64562  0.08809  0.43099  Biso   1.000  C
  C1408    1.0000 0.49020  0.62951  0.47220  Biso   1.000  C
  H1702    1.0000 0.53190  0.59709  0.53431  Biso   1.000  H
  H1703    1.0000 0.47899  0.62891  0.55290  Biso   1.000  H
  H1704    1.0000 0.44320  0.67980  0.42512  Biso   1.000  H
  H1705    1.0000 0.42500  0.67940  0.48678  Biso   1.000  H
  C1409    1.0000 0.46501  0.80859  0.42601  Biso   1.000  C
  C1410    1.0000 0.36700  0.05552  0.61392  Biso   1.000  C
  C1411    1.0000 0.44448  0.11388  0.63300  Biso   1.000  C
  C1412    1.0000 0.44448  0.11392  0.63300  Biso   1.000  C
  C1413    1.0000 0.63300  0.05552  0.38612  Biso   1.000  C
  C1414    1.0000 0.61392  0.13300  0.44448  Biso   1.000  C
  H1706    1.0000 0.46810  0.59709  0.46569  Biso   1.000  H
  H1707    1.0000 0.52101  0.62891  0.44710  Biso   1.000  H
  H1708    1.0000 0.49651  0.80288  0.40540  Biso   1.000  H
  C1415    1.0000 0.43099  0.85438  0.41191  Biso   1.000  C
  H1709    1.0000 0.49651  0.80292  0.40540  Biso   1.000  H
  C1416    1.0000 0.43099  0.85442  0.41191  Biso   1.000  C
  C1417    1.0000 0.35442  0.08809  0.56901  Biso   1.000  C
  O213     1.0000 0.33570  0.01382  0.62650  Biso   1.000  O
  H1710    1.0000 0.34550  0.02470  0.62232  Biso   1.000  H
  C1418    1.0000 0.43099  0.14562  0.58809  Biso   1.000  C
  O214     1.0000 0.48622  0.12650  0.66430  Biso   1.000  O
  H1711    1.0000 0.47530  0.12232  0.65450  Biso   1.000  H
  C1419    1.0000 0.58809  0.06901  0.35442  Biso   1.000  C
  O215     1.0000 0.66430  0.01382  0.37350  Biso   1.000  O
  H1712    1.0000 0.65450  0.02470  0.37772  Biso   1.000  H
  C1420    1.0000 0.56901  0.14562  0.41191  Biso   1.000  C
  O216     1.0000 0.62650  0.16430  0.48622  Biso   1.000  O
  H1713    1.0000 0.62232  0.15450  0.47530  Biso   1.000  H
  C1421    1.0000 0.38612  0.86700  0.44448  Biso   1.000  C
  C1422    1.0000 0.44448  0.88612  0.36700  Biso   1.000  C
  C1423    1.0000 0.30859  0.07399  0.53499  Biso   1.000  C
  C1424    1.0000 0.38612  0.13300  0.55552  Biso   1.000  C
  H1714    1.0000 0.30991  0.01201  0.60472  Biso   1.000  H
  C1425    1.0000 0.46501  0.19141  0.57399  Biso   1.000  C
  H1715    1.0000 0.48799  0.10468  0.69009  Biso   1.000  H
  H1716    1.0000 0.48799  0.10472  0.69009  Biso   1.000  H
  C1426    1.0000 0.57399  0.03499  0.30859  Biso   1.000  C
  C1427    1.0000 0.55552  0.11388  0.36700  Biso   1.000  C
  C1428    1.0000 0.55552  0.11392  0.36700  Biso   1.000  C
  H1717    1.0000 0.69009  0.01201  0.39532  Biso   1.000  H
  C1429    1.0000 0.53499  0.19141  0.42601  Biso   1.000  C
  H1718    1.0000 0.60472  0.19009  0.48799  Biso   1.000  H
  H1719    1.0000 0.60472  0.19013  0.48799  Biso   1.000  H
  O217     1.0000 0.37350  0.83570  0.48622  Biso   1.000  O
  C1430    1.0000 0.35442  0.91191  0.43099  Biso   1.000  C
  H1720    1.0000 0.37772  0.84550  0.47530  Biso   1.000  H
  C1431    1.0000 0.41191  0.93099  0.35442  Biso   1.000  C
  O218     1.0000 0.48622  0.87350  0.33570  Biso   1.000  O
  C1432    1.0000 0.41191  0.93103  0.35442  Biso   1.000  C
  H1721    1.0000 0.47530  0.87772  0.34550  Biso   1.000  H
  N217     1.0000 0.27629  0.03619  0.54491  Biso   1.000  N
  H1722    1.0000 0.30288  0.09460  0.50349  Biso   1.000  H
  O219     1.0000 0.37350  0.16430  0.51382  Biso   1.000  O
  H1723    1.0000 0.37772  0.15450  0.52470  Biso   1.000  H
  N218     1.0000 0.45509  0.22375  0.53619  Biso   1.000  N
  H1724    1.0000 0.49651  0.19712  0.59460  Biso   1.000  H
  N219     1.0000 0.53619  0.04491  0.27629  Biso   1.000  N
  H1725    1.0000 0.59460  0.00349  0.30288  Biso   1.000  H
  O220     1.0000 0.51382  0.12650  0.33570  Biso   1.000  O
  H1726    1.0000 0.52470  0.12232  0.34550  Biso   1.000  H
  N220     1.0000 0.54491  0.22375  0.46381  Biso   1.000  N
  H1727    1.0000 0.50349  0.19712  0.40540  Biso   1.000  H
  H1728    1.0000 0.39532  0.80991  0.48799  Biso   1.000  H
  C1433    1.0000 0.30859  0.92601  0.46501  Biso   1.000  C
  C1434    1.0000 0.36700  0.94448  0.38612  Biso   1.000  C
  C1435    1.0000 0.36700  0.94452  0.38612  Biso   1.000  C
  C1436    1.0000 0.42601  0.96501  0.30859  Biso   1.000  C
  H1729    1.0000 0.48799  0.89532  0.30991  Biso   1.000  H
  C1437    1.0000 0.23054  0.02752  0.51109  Biso   1.000  C
  H1730    1.0000 0.39532  0.19009  0.51201  Biso   1.000  H
  H1731    1.0000 0.39532  0.19013  0.51201  Biso   1.000  H
  C1438    1.0000 0.48891  0.26946  0.52752  Biso   1.000  C
  C1439    1.0000 0.52752  0.01109  0.23054  Biso   1.000  C
  C1440    1.0000 0.52752  0.01113  0.23054  Biso   1.000  C
  H1732    1.0000 0.51201  0.10468  0.30991  Biso   1.000  H
  H1733    1.0000 0.51201  0.10472  0.30991  Biso   1.000  H
  C1441    1.0000 0.51109  0.26946  0.47252  Biso   1.000  C
  N221     1.0000 0.27629  0.96381  0.45509  Biso   1.000  N
  H1734    1.0000 0.30288  0.90540  0.49651  Biso   1.000  H
  O221     1.0000 0.33570  0.98618  0.37350  Biso   1.000  O
  O222     1.0000 0.33570  0.98622  0.37350  Biso   1.000  O
  H1735    1.0000 0.34550  0.97530  0.37772  Biso   1.000  H
  N222     1.0000 0.46381  0.95509  0.27629  Biso   1.000  N
  H1736    1.0000 0.40540  0.99651  0.30288  Biso   1.000  H
  C1442    1.0000 0.23054  0.97248  0.48891  Biso   1.000  C
  C1443    1.0000 0.23054  0.97252  0.48891  Biso   1.000  C
  C1444    1.0000 0.17980  0.03740  0.54350  Biso   1.000  C
  H1737    1.0000 0.23178  0.05371  0.48072  Biso   1.000  H
  C1445    1.0000 0.45650  0.32020  0.53740  Biso   1.000  C
  H1738    1.0000 0.51932  0.26822  0.55371  Biso   1.000  H
  C1446    1.0000 0.47252  0.98891  0.23054  Biso   1.000  C
  H1739    1.0000 0.55371  0.98072  0.23178  Biso   1.000  H
  C1447    1.0000 0.53740  0.04350  0.17980  Biso   1.000  C
  C1448    1.0000 0.54350  0.32020  0.46260  Biso   1.000  C
  H1740    1.0000 0.48072  0.26822  0.44629  Biso   1.000  H
  H1741    1.0000 0.30991  0.98799  0.39532  Biso   1.000  H
  C1449    1.0000 0.17980  0.96260  0.45650  Biso   1.000  C
  H1742    1.0000 0.23178  0.94629  0.51932  Biso   1.000  H
  C1450    1.0000 0.12951  0.02780  0.50980  Biso   1.000  C
  H1743    1.0000 0.17980  0.07492  0.55680  Biso   1.000  H
  H1744    1.0000 0.17940  0.01322  0.57500  Biso   1.000  H
  C1451    1.0000 0.49020  0.37049  0.52780  Biso   1.000  C
  H1745    1.0000 0.44320  0.32020  0.57492  Biso   1.000  H
  H1746    1.0000 0.42500  0.32060  0.51322  Biso   1.000  H
  C1452    1.0000 0.49020  0.37053  0.52780  Biso   1.000  C
  C1453    1.0000 0.46260  0.95650  0.17980  Biso   1.000  C
  H1747    1.0000 0.44629  0.01928  0.23178  Biso   1.000  H
  H1748    1.0000 0.44629  0.01932  0.23178  Biso   1.000  H
  C1454    1.0000 0.52780  0.00980  0.12951  Biso   1.000  C
  H1749    1.0000 0.57492  0.05680  0.17980  Biso   1.000  H
  H1750    1.0000 0.51322  0.07500  0.17940  Biso   1.000  H
  C1455    1.0000 0.50980  0.37049  0.47220  Biso   1.000  C
  H1751    1.0000 0.55680  0.32020  0.42512  Biso   1.000  H
  H1752    1.0000 0.57500  0.32060  0.48678  Biso   1.000  H
  C1456    1.0000 0.50980  0.37053  0.47220  Biso   1.000  C
  C1457    1.0000 0.12951  0.97220  0.49020  Biso   1.000  C
  H1753    1.0000 0.17980  0.92508  0.44320  Biso   1.000  H
  H1754    1.0000 0.17940  0.98678  0.42500  Biso   1.000  H
  H1755    1.0000 0.17980  0.92512  0.44320  Biso   1.000  H
  H1756    1.0000 0.17940  0.98682  0.42500  Biso   1.000  H
  H1757    1.0000 0.09709  0.03431  0.53190  Biso   1.000  H
  H1758    1.0000 0.12891  0.05290  0.47899  Biso   1.000  H
  H1759    1.0000 0.46810  0.40291  0.53431  Biso   1.000  H
  H1760    1.0000 0.52101  0.37109  0.55290  Biso   1.000  H
  C1458    1.0000 0.47220  0.99020  0.12951  Biso   1.000  C
  H1761    1.0000 0.42512  0.94320  0.17980  Biso   1.000  H
  H1762    1.0000 0.48678  0.92500  0.17940  Biso   1.000  H
  H1763    1.0000 0.55290  0.97899  0.12891  Biso   1.000  H
  H1764    1.0000 0.53431  0.03190  0.09709  Biso   1.000  H
  H1765    1.0000 0.53190  0.40291  0.46569  Biso   1.000  H
  H1766    1.0000 0.47899  0.37109  0.44710  Biso   1.000  H
  H1767    1.0000 0.09709  0.96569  0.46810  Biso   1.000  H
  H1768    1.0000 0.12891  0.94710  0.52101  Biso   1.000  H
  H1769    1.0000 0.46569  0.96810  0.09709  Biso   1.000  H
  H1770    1.0000 0.44710  0.02101  0.12891  Biso   1.000  H
  O223     1.0000 0.66430  0.98618  0.62650  Biso   1.000  O
  C1459    1.0000 0.63300  0.94448  0.61392  Biso   1.000  C
  C1460    1.0000 0.63300  0.94452  0.61392  Biso   1.000  C
  H1771    1.0000 0.69009  0.98799  0.60472  Biso   1.000  H
  C1461    1.0000 0.58809  0.93099  0.64562  Biso   1.000  C
  C1462    1.0000 0.58809  0.93103  0.64562  Biso   1.000  C
  C1463    1.0000 0.64562  0.91191  0.56901  Biso   1.000  C
  O224     1.0000 0.66430  0.98622  0.62650  Biso   1.000  O
  H1772    1.0000 0.65450  0.97530  0.62232  Biso   1.000  H
  C1464    1.0000 0.55552  0.88612  0.63300  Biso   1.000  C
  C1465    1.0000 0.57399  0.96501  0.69141  Biso   1.000  C
  C1466    1.0000 0.61392  0.86700  0.55552  Biso   1.000  C
  C1467    1.0000 0.69141  0.92601  0.53499  Biso   1.000  C
  C1468    1.0000 0.56901  0.85438  0.58809  Biso   1.000  C
  C1469    1.0000 0.56901  0.85442  0.58809  Biso   1.000  C
  O225     1.0000 0.51382  0.87350  0.66430  Biso   1.000  O
  H1773    1.0000 0.52470  0.87772  0.65450  Biso   1.000  H
  N223     1.0000 0.53619  0.95509  0.72375  Biso   1.000  N
  H1774    1.0000 0.59460  0.99651  0.69712  Biso   1.000  H
  O226     1.0000 0.62650  0.83570  0.51382  Biso   1.000  O
  H1775    1.0000 0.62232  0.84550  0.52470  Biso   1.000  H
  N224     1.0000 0.72375  0.96381  0.54491  Biso   1.000  N
  H1776    1.0000 0.69712  0.90540  0.50349  Biso   1.000  H
  C1470    1.0000 0.53499  0.80859  0.57399  Biso   1.000  C
  H1777    1.0000 0.51201  0.89532  0.69009  Biso   1.000  H
  C1471    1.0000 0.52752  0.98891  0.76946  Biso   1.000  C
  H1778    1.0000 0.60472  0.80991  0.51201  Biso   1.000  H
  C1472    1.0000 0.76946  0.97248  0.51109  Biso   1.000  C
  C1473    1.0000 0.76946  0.97252  0.51109  Biso   1.000  C
  N225     1.0000 0.54491  0.77625  0.53619  Biso   1.000  N
  N226     1.0000 0.54491  0.77629  0.53619  Biso   1.000  N
  H1779    1.0000 0.50349  0.80288  0.59460  Biso   1.000  H
  H1780    1.0000 0.50349  0.80292  0.59460  Biso   1.000  H
  C1474    1.0000 0.53740  0.95650  0.82020  Biso   1.000  C
  H1781    1.0000 0.55371  0.01928  0.76822  Biso   1.000  H
  C1475    1.0000 0.47252  0.01109  0.76946  Biso   1.000  C
  H1782    1.0000 0.55371  0.01932  0.76822  Biso   1.000  H
  C1476    1.0000 0.47252  0.01113  0.76946  Biso   1.000  C
  C1477    1.0000 0.82020  0.96260  0.54350  Biso   1.000  C
  H1783    1.0000 0.76822  0.94629  0.48072  Biso   1.000  H
  C1478    1.0000 0.76946  0.02752  0.48891  Biso   1.000  C
  C1479    1.0000 0.51109  0.73054  0.52752  Biso   1.000  C
  C1480    1.0000 0.52780  0.99020  0.87049  Biso   1.000  C
  H1784    1.0000 0.57492  0.94320  0.82020  Biso   1.000  H
  H1785    1.0000 0.51322  0.92500  0.82060  Biso   1.000  H
  H1786    1.0000 0.44629  0.98072  0.76822  Biso   1.000  H
  C1481    1.0000 0.46260  0.04350  0.82020  Biso   1.000  C
  N227     1.0000 0.46381  0.04491  0.72375  Biso   1.000  N
  C1482    1.0000 0.87049  0.97220  0.50980  Biso   1.000  C
  H1787    1.0000 0.82020  0.92508  0.55680  Biso   1.000  H
  H1788    1.0000 0.82060  0.98678  0.57500  Biso   1.000  H
  H1789    1.0000 0.82020  0.92512  0.55680  Biso   1.000  H
  H1790    1.0000 0.82060  0.98682  0.57500  Biso   1.000  H
  C1483    1.0000 0.82020  0.03740  0.45650  Biso   1.000  C
  H1791    1.0000 0.76822  0.05371  0.51932  Biso   1.000  H
  N228     1.0000 0.72375  0.03619  0.45509  Biso   1.000  N
  C1484    1.0000 0.54350  0.67980  0.53740  Biso   1.000  C
  C1485    1.0000 0.48891  0.73054  0.47252  Biso   1.000  C
  H1792    1.0000 0.48072  0.73178  0.55371  Biso   1.000  H
  H1793    1.0000 0.48072  0.73182  0.55371  Biso   1.000  H
  H1794    1.0000 0.53431  0.96810  0.90291  Biso   1.000  H
  H1795    1.0000 0.55290  0.02101  0.87109  Biso   1.000  H
  C1486    1.0000 0.47220  0.00980  0.87049  Biso   1.000  C
  H1796    1.0000 0.42512  0.05680  0.82020  Biso   1.000  H
  H1797    1.0000 0.48678  0.07500  0.82060  Biso   1.000  H
  C1487    1.0000 0.42601  0.03499  0.69141  Biso   1.000  C
  H1798    1.0000 0.90291  0.96569  0.53190  Biso   1.000  H
  H1799    1.0000 0.87109  0.94710  0.47899  Biso   1.000  H
  C1488    1.0000 0.87049  0.02780  0.49020  Biso   1.000  C
  H1800    1.0000 0.82020  0.07492  0.44320  Biso   1.000  H
  H1801    1.0000 0.82060  0.01322  0.42500  Biso   1.000  H
  C1489    1.0000 0.69141  0.07399  0.46501  Biso   1.000  C
  C1490    1.0000 0.50980  0.62951  0.52780  Biso   1.000  C
  H1802    1.0000 0.55680  0.67980  0.57492  Biso   1.000  H
  H1803    1.0000 0.57500  0.67940  0.51322  Biso   1.000  H
  C1491    1.0000 0.45650  0.67980  0.46260  Biso   1.000  C
  H1804    1.0000 0.51932  0.73178  0.44629  Biso   1.000  H
  N229     1.0000 0.45509  0.77625  0.46381  Biso   1.000  N
  H1805    1.0000 0.51932  0.73182  0.44629  Biso   1.000  H
  N230     1.0000 0.45509  0.77629  0.46381  Biso   1.000  N
  H1806    1.0000 0.44710  0.97899  0.87109  Biso   1.000  H
  H1807    1.0000 0.46569  0.03190  0.90291  Biso   1.000  H
  H1808    1.0000 0.40540  0.00349  0.69712  Biso   1.000  H
  C1492    1.0000 0.41191  0.06901  0.64562  Biso   1.000  C
  H1809    1.0000 0.90291  0.03431  0.46810  Biso   1.000  H
  H1810    1.0000 0.87109  0.05290  0.52101  Biso   1.000  H
  H1811    1.0000 0.69712  0.09460  0.49651  Biso   1.000  H
  C1493    1.0000 0.64562  0.08809  0.43099  Biso   1.000  C
  C1494    1.0000 0.49020  0.62951  0.47220  Biso   1.000  C
  H1812    1.0000 0.53190  0.59709  0.53431  Biso   1.000  H
  H1813    1.0000 0.47899  0.62891  0.55290  Biso   1.000  H
  H1814    1.0000 0.44320  0.67980  0.42512  Biso   1.000  H
  H1815    1.0000 0.42500  0.67940  0.48678  Biso   1.000  H
  C1495    1.0000 0.46501  0.80859  0.42601  Biso   1.000  C
  C1496    1.0000 0.36700  0.05552  0.61392  Biso   1.000  C
  C1497    1.0000 0.44448  0.11388  0.63300  Biso   1.000  C
  C1498    1.0000 0.44448  0.11392  0.63300  Biso   1.000  C
  C1499    1.0000 0.63300  0.05552  0.38612  Biso   1.000  C
  C1500    1.0000 0.61392  0.13300  0.44448  Biso   1.000  C
  H1816    1.0000 0.46810  0.59709  0.46569  Biso   1.000  H
  H1817    1.0000 0.52101  0.62891  0.44710  Biso   1.000  H
  H1818    1.0000 0.49651  0.80288  0.40540  Biso   1.000  H
  C1501    1.0000 0.43099  0.85438  0.41191  Biso   1.000  C
  H1819    1.0000 0.49651  0.80292  0.40540  Biso   1.000  H
  C1502    1.0000 0.43099  0.85442  0.41191  Biso   1.000  C
  C1503    1.0000 0.35442  0.08809  0.56901  Biso   1.000  C
  O227     1.0000 0.33570  0.01382  0.62650  Biso   1.000  O
  H1820    1.0000 0.34550  0.02470  0.62232  Biso   1.000  H
  C1504    1.0000 0.43099  0.14562  0.58809  Biso   1.000  C
  O228     1.0000 0.48622  0.12650  0.66430  Biso   1.000  O
  H1821    1.0000 0.47530  0.12232  0.65450  Biso   1.000  H
  C1505    1.0000 0.58809  0.06901  0.35442  Biso   1.000  C
  O229     1.0000 0.66430  0.01382  0.37350  Biso   1.000  O
  H1822    1.0000 0.65450  0.02470  0.37772  Biso   1.000  H
  C1506    1.0000 0.56901  0.14562  0.41191  Biso   1.000  C
  O230     1.0000 0.62650  0.16430  0.48622  Biso   1.000  O
  H1823    1.0000 0.62232  0.15450  0.47530  Biso   1.000  H
  C1507    1.0000 0.38612  0.86700  0.44448  Biso   1.000  C
  C1508    1.0000 0.44448  0.88612  0.36700  Biso   1.000  C
  C1509    1.0000 0.30859  0.07399  0.53499  Biso   1.000  C
  C1510    1.0000 0.38612  0.13300  0.55552  Biso   1.000  C
  H1824    1.0000 0.30991  0.01201  0.60472  Biso   1.000  H
  C1511    1.0000 0.46501  0.19141  0.57399  Biso   1.000  C
  H1825    1.0000 0.48799  0.10468  0.69009  Biso   1.000  H
  H1826    1.0000 0.48799  0.10472  0.69009  Biso   1.000  H
  C1512    1.0000 0.57399  0.03499  0.30859  Biso   1.000  C
  C1513    1.0000 0.55552  0.11388  0.36700  Biso   1.000  C
  C1514    1.0000 0.55552  0.11392  0.36700  Biso   1.000  C
  H1827    1.0000 0.69009  0.01201  0.39532  Biso   1.000  H
  C1515    1.0000 0.53499  0.19141  0.42601  Biso   1.000  C
  H1828    1.0000 0.60472  0.19009  0.48799  Biso   1.000  H
  H1829    1.0000 0.60472  0.19013  0.48799  Biso   1.000  H
  O231     1.0000 0.37350  0.83570  0.48622  Biso   1.000  O
  C1516    1.0000 0.35442  0.91191  0.43099  Biso   1.000  C
  H1830    1.0000 0.37772  0.84550  0.47530  Biso   1.000  H
  O232     1.0000 0.48622  0.87350  0.33570  Biso   1.000  O
  C1517    1.0000 0.41191  0.93099  0.35442  Biso   1.000  C
  C1518    1.0000 0.41191  0.93103  0.35442  Biso   1.000  C
  H1831    1.0000 0.47530  0.87772  0.34550  Biso   1.000  H
  N231     1.0000 0.27629  0.03619  0.54491  Biso   1.000  N
  H1832    1.0000 0.30288  0.09460  0.50349  Biso   1.000  H
  O233     1.0000 0.37350  0.16430  0.51382  Biso   1.000  O
  H1833    1.0000 0.37772  0.15450  0.52470  Biso   1.000  H
  N232     1.0000 0.45509  0.22375  0.53619  Biso   1.000  N
  H1834    1.0000 0.49651  0.19712  0.59460  Biso   1.000  H
  N233     1.0000 0.53619  0.04491  0.27629  Biso   1.000  N
  H1835    1.0000 0.59460  0.00349  0.30288  Biso   1.000  H
  O234     1.0000 0.51382  0.12650  0.33570  Biso   1.000  O
  H1836    1.0000 0.52470  0.12232  0.34550  Biso   1.000  H
  N234     1.0000 0.54491  0.22375  0.46381  Biso   1.000  N
  H1837    1.0000 0.50349  0.19712  0.40540  Biso   1.000  H
  H1838    1.0000 0.39532  0.80991  0.48799  Biso   1.000  H
  C1519    1.0000 0.30859  0.92601  0.46501  Biso   1.000  C
  C1520    1.0000 0.36700  0.94448  0.38612  Biso   1.000  C
  C1521    1.0000 0.36700  0.94452  0.38612  Biso   1.000  C
  H1839    1.0000 0.48799  0.89532  0.30991  Biso   1.000  H
  C1522    1.0000 0.42601  0.96501  0.30859  Biso   1.000  C
  C1523    1.0000 0.23054  0.02752  0.51109  Biso   1.000  C
  H1840    1.0000 0.39532  0.19009  0.51201  Biso   1.000  H
  H1841    1.0000 0.39532  0.19013  0.51201  Biso   1.000  H
  C1524    1.0000 0.48891  0.26946  0.52752  Biso   1.000  C
  C1525    1.0000 0.52752  0.01109  0.23054  Biso   1.000  C
  C1526    1.0000 0.52752  0.01113  0.23054  Biso   1.000  C
  H1842    1.0000 0.51201  0.10468  0.30991  Biso   1.000  H
  H1843    1.0000 0.51201  0.10472  0.30991  Biso   1.000  H
  C1527    1.0000 0.51109  0.26946  0.47252  Biso   1.000  C
  N235     1.0000 0.27629  0.96381  0.45509  Biso   1.000  N
  H1844    1.0000 0.30288  0.90540  0.49651  Biso   1.000  H
  O235     1.0000 0.33570  0.98618  0.37350  Biso   1.000  O
  O236     1.0000 0.33570  0.98622  0.37350  Biso   1.000  O
  H1845    1.0000 0.34550  0.97530  0.37772  Biso   1.000  H
  N236     1.0000 0.46381  0.95509  0.27629  Biso   1.000  N
  H1846    1.0000 0.40540  0.99651  0.30288  Biso   1.000  H
  C1528    1.0000 0.23054  0.97248  0.48891  Biso   1.000  C
  C1529    1.0000 0.23054  0.97252  0.48891  Biso   1.000  C
  C1530    1.0000 0.17980  0.03740  0.54350  Biso   1.000  C
  H1847    1.0000 0.23178  0.05371  0.48072  Biso   1.000  H
  C1531    1.0000 0.45650  0.32020  0.53740  Biso   1.000  C
  H1848    1.0000 0.51932  0.26822  0.55371  Biso   1.000  H
  C1532    1.0000 0.47252  0.98891  0.23054  Biso   1.000  C
  H1849    1.0000 0.55371  0.98072  0.23178  Biso   1.000  H
  C1533    1.0000 0.53740  0.04350  0.17980  Biso   1.000  C
  C1534    1.0000 0.54350  0.32020  0.46260  Biso   1.000  C
  H1850    1.0000 0.48072  0.26822  0.44629  Biso   1.000  H
  H1851    1.0000 0.30991  0.98799  0.39532  Biso   1.000  H
  C1535    1.0000 0.17980  0.96260  0.45650  Biso   1.000  C
  H1852    1.0000 0.23178  0.94629  0.51932  Biso   1.000  H
  C1536    1.0000 0.12951  0.02780  0.50980  Biso   1.000  C
  H1853    1.0000 0.17980  0.07492  0.55680  Biso   1.000  H
  H1854    1.0000 0.17940  0.01322  0.57500  Biso   1.000  H
  C1537    1.0000 0.49020  0.37049  0.52780  Biso   1.000  C
  H1855    1.0000 0.44320  0.32020  0.57492  Biso   1.000  H
  H1856    1.0000 0.42500  0.32060  0.51322  Biso   1.000  H
  C1538    1.0000 0.49020  0.37053  0.52780  Biso   1.000  C
  C1539    1.0000 0.46260  0.95650  0.17980  Biso   1.000  C
  H1857    1.0000 0.44629  0.01928  0.23178  Biso   1.000  H
  H1858    1.0000 0.44629  0.01932  0.23178  Biso   1.000  H
  C1540    1.0000 0.52780  0.00980  0.12951  Biso   1.000  C
  H1859    1.0000 0.57492  0.05680  0.17980  Biso   1.000  H
  H1860    1.0000 0.51322  0.07500  0.17940  Biso   1.000  H
  C1541    1.0000 0.50980  0.37049  0.47220  Biso   1.000  C
  H1861    1.0000 0.55680  0.32020  0.42512  Biso   1.000  H
  H1862    1.0000 0.57500  0.32060  0.48678  Biso   1.000  H
  C1542    1.0000 0.50980  0.37053  0.47220  Biso   1.000  C
  C1543    1.0000 0.12951  0.97220  0.49020  Biso   1.000  C
  H1863    1.0000 0.17980  0.92508  0.44320  Biso   1.000  H
  H1864    1.0000 0.17940  0.98678  0.42500  Biso   1.000  H
  H1865    1.0000 0.17980  0.92512  0.44320  Biso   1.000  H
  H1866    1.0000 0.17940  0.98682  0.42500  Biso   1.000  H
  H1867    1.0000 0.09709  0.03431  0.53190  Biso   1.000  H
  H1868    1.0000 0.12891  0.05290  0.47899  Biso   1.000  H
  H1869    1.0000 0.46810  0.40291  0.53431  Biso   1.000  H
  H1870    1.0000 0.52101  0.37109  0.55290  Biso   1.000  H
  C1544    1.0000 0.47220  0.99020  0.12951  Biso   1.000  C
  H1871    1.0000 0.42512  0.94320  0.17980  Biso   1.000  H
  H1872    1.0000 0.48678  0.92500  0.17940  Biso   1.000  H
  H1873    1.0000 0.55290  0.97899  0.12891  Biso   1.000  H
  H1874    1.0000 0.53431  0.03190  0.09709  Biso   1.000  H
  H1875    1.0000 0.53190  0.40291  0.46569  Biso   1.000  H
  H1876    1.0000 0.47899  0.37109  0.44710  Biso   1.000  H
  H1877    1.0000 0.09709  0.96569  0.46810  Biso   1.000  H
  H1878    1.0000 0.12891  0.94710  0.52101  Biso   1.000  H
  H1879    1.0000 0.46569  0.96810  0.09709  Biso   1.000  H
  H1880    1.0000 0.44710  0.02101  0.12891  Biso   1.000  H
  O237     1.0000 0.62650  0.66430  0.98618  Biso   1.000  O
  C1545    1.0000 0.61392  0.63300  0.94448  Biso   1.000  C
  C1546    1.0000 0.61392  0.63300  0.94452  Biso   1.000  C
  H1881    1.0000 0.60472  0.69009  0.98799  Biso   1.000  H
  C1547    1.0000 0.56901  0.64562  0.91191  Biso   1.000  C
  C1548    1.0000 0.64562  0.58809  0.93099  Biso   1.000  C
  C1549    1.0000 0.64562  0.58809  0.93103  Biso   1.000  C
  O238     1.0000 0.62650  0.66430  0.98622  Biso   1.000  O
  H1882    1.0000 0.62232  0.65450  0.97530  Biso   1.000  H
  C1550    1.0000 0.55552  0.61392  0.86700  Biso   1.000  C
  C1551    1.0000 0.53499  0.69141  0.92601  Biso   1.000  C
  C1552    1.0000 0.63300  0.55552  0.88612  Biso   1.000  C
  C1553    1.0000 0.69141  0.57399  0.96501  Biso   1.000  C
  C1554    1.0000 0.58809  0.56901  0.85438  Biso   1.000  C
  C1555    1.0000 0.58809  0.56901  0.85442  Biso   1.000  C
  O239     1.0000 0.51382  0.62650  0.83570  Biso   1.000  O
  H1883    1.0000 0.52470  0.62232  0.84550  Biso   1.000  H
  N237     1.0000 0.54491  0.72375  0.96381  Biso   1.000  N
  H1884    1.0000 0.50349  0.69712  0.90540  Biso   1.000  H
  O240     1.0000 0.66430  0.51382  0.87350  Biso   1.000  O
  H1885    1.0000 0.65450  0.52470  0.87772  Biso   1.000  H
  N238     1.0000 0.72375  0.53619  0.95509  Biso   1.000  N
  H1886    1.0000 0.69712  0.59460  0.99651  Biso   1.000  H
  C1556    1.0000 0.57399  0.53499  0.80859  Biso   1.000  C
  H1887    1.0000 0.51201  0.60472  0.80991  Biso   1.000  H
  C1557    1.0000 0.51109  0.76946  0.97248  Biso   1.000  C
  C1558    1.0000 0.51109  0.76946  0.97252  Biso   1.000  C
  H1888    1.0000 0.69009  0.51201  0.89532  Biso   1.000  H
  C1559    1.0000 0.76946  0.52752  0.98891  Biso   1.000  C
  N239     1.0000 0.53619  0.54491  0.77625  Biso   1.000  N
  N240     1.0000 0.53619  0.54491  0.77629  Biso   1.000  N
  H1889    1.0000 0.59460  0.50349  0.80288  Biso   1.000  H
  H1890    1.0000 0.59460  0.50349  0.80292  Biso   1.000  H
  C1560    1.0000 0.54350  0.82020  0.96260  Biso   1.000  C
  H1891    1.0000 0.48072  0.76822  0.94629  Biso   1.000  H
  C1561    1.0000 0.48891  0.76946  0.02752  Biso   1.000  C
  C1562    1.0000 0.82020  0.53740  0.95650  Biso   1.000  C
  H1892    1.0000 0.76822  0.55371  0.01928  Biso   1.000  H
  C1563    1.0000 0.76946  0.47252  0.01109  Biso   1.000  C
  H1893    1.0000 0.76822  0.55371  0.01932  Biso   1.000  H
  C1564    1.0000 0.76946  0.47252  0.01113  Biso   1.000  C
  C1565    1.0000 0.52752  0.51109  0.73054  Biso   1.000  C
  C1566    1.0000 0.50980  0.87049  0.97220  Biso   1.000  C
  H1894    1.0000 0.55680  0.82020  0.92508  Biso   1.000  H
  H1895    1.0000 0.57500  0.82060  0.98678  Biso   1.000  H
  H1896    1.0000 0.55680  0.82020  0.92512  Biso   1.000  H
  H1897    1.0000 0.57500  0.82060  0.98682  Biso   1.000  H
  C1567    1.0000 0.45650  0.82020  0.03740  Biso   1.000  C
  H1898    1.0000 0.51932  0.76822  0.05371  Biso   1.000  H
  N241     1.0000 0.45509  0.72375  0.03619  Biso   1.000  N
  C1568    1.0000 0.87049  0.52780  0.99020  Biso   1.000  C
  H1899    1.0000 0.82020  0.57492  0.94320  Biso   1.000  H
  H1900    1.0000 0.82060  0.51322  0.92500  Biso   1.000  H
  H1901    1.0000 0.76822  0.44629  0.98072  Biso   1.000  H
  C1569    1.0000 0.82020  0.46260  0.04350  Biso   1.000  C
  N242     1.0000 0.72375  0.46381  0.04491  Biso   1.000  N
  C1570    1.0000 0.53740  0.54350  0.67980  Biso   1.000  C
  C1571    1.0000 0.47252  0.48891  0.73054  Biso   1.000  C
  H1902    1.0000 0.55371  0.48072  0.73178  Biso   1.000  H
  H1903    1.0000 0.55371  0.48072  0.73182  Biso   1.000  H
  H1904    1.0000 0.53190  0.90291  0.96569  Biso   1.000  H
  H1905    1.0000 0.47899  0.87109  0.94710  Biso   1.000  H
  C1572    1.0000 0.49020  0.87049  0.02780  Biso   1.000  C
  H1906    1.0000 0.44320  0.82020  0.07492  Biso   1.000  H
  H1907    1.0000 0.42500  0.82060  0.01322  Biso   1.000  H
  C1573    1.0000 0.46501  0.69141  0.07399  Biso   1.000  C
  H1908    1.0000 0.90291  0.53431  0.96810  Biso   1.000  H
  H1909    1.0000 0.87109  0.55290  0.02101  Biso   1.000  H
  C1574    1.0000 0.87049  0.47220  0.00980  Biso   1.000  C
  H1910    1.0000 0.82020  0.42512  0.05680  Biso   1.000  H
  H1911    1.0000 0.82060  0.48678  0.07500  Biso   1.000  H
  C1575    1.0000 0.69141  0.42601  0.03499  Biso   1.000  C
  C1576    1.0000 0.52780  0.50980  0.62951  Biso   1.000  C
  H1912    1.0000 0.57492  0.55680  0.67980  Biso   1.000  H
  H1913    1.0000 0.51322  0.57500  0.67940  Biso   1.000  H
  C1577    1.0000 0.46260  0.45650  0.67980  Biso   1.000  C
  H1914    1.0000 0.44629  0.51932  0.73178  Biso   1.000  H
  N243     1.0000 0.46381  0.45509  0.77625  Biso   1.000  N
  H1915    1.0000 0.44629  0.51932  0.73182  Biso   1.000  H
  N244     1.0000 0.46381  0.45509  0.77629  Biso   1.000  N
  H1916    1.0000 0.46810  0.90291  0.03431  Biso   1.000  H
  H1917    1.0000 0.52101  0.87109  0.05290  Biso   1.000  H
  H1918    1.0000 0.49651  0.69712  0.09460  Biso   1.000  H
  C1578    1.0000 0.43099  0.64562  0.08809  Biso   1.000  C
  H1919    1.0000 0.87109  0.44710  0.97899  Biso   1.000  H
  H1920    1.0000 0.90291  0.46569  0.03190  Biso   1.000  H
  H1921    1.0000 0.69712  0.40540  0.00349  Biso   1.000  H
  C1579    1.0000 0.64562  0.41191  0.06901  Biso   1.000  C
  C1580    1.0000 0.47220  0.49020  0.62951  Biso   1.000  C
  H1922    1.0000 0.53431  0.53190  0.59709  Biso   1.000  H
  H1923    1.0000 0.55290  0.47899  0.62891  Biso   1.000  H
  H1924    1.0000 0.42512  0.44320  0.67980  Biso   1.000  H
  H1925    1.0000 0.48678  0.42500  0.67940  Biso   1.000  H
  C1581    1.0000 0.42601  0.46501  0.80859  Biso   1.000  C
  C1582    1.0000 0.38612  0.63300  0.05552  Biso   1.000  C
  C1583    1.0000 0.44448  0.61392  0.13300  Biso   1.000  C
  C1584    1.0000 0.61392  0.36700  0.05552  Biso   1.000  C
  C1585    1.0000 0.63300  0.44448  0.11388  Biso   1.000  C
  C1586    1.0000 0.63300  0.44448  0.11392  Biso   1.000  C
  H1926    1.0000 0.46569  0.46810  0.59709  Biso   1.000  H
  H1927    1.0000 0.44710  0.52101  0.62891  Biso   1.000  H
  H1928    1.0000 0.40540  0.49651  0.80288  Biso   1.000  H
  C1587    1.0000 0.41191  0.43099  0.85438  Biso   1.000  C
  H1929    1.0000 0.40540  0.49651  0.80292  Biso   1.000  H
  C1588    1.0000 0.41191  0.43099  0.85442  Biso   1.000  C
  C1589    1.0000 0.35442  0.58809  0.06901  Biso   1.000  C
  O241     1.0000 0.37350  0.66430  0.01382  Biso   1.000  O
  H1930    1.0000 0.37772  0.65450  0.02470  Biso   1.000  H
  C1590    1.0000 0.41191  0.56901  0.14562  Biso   1.000  C
  O242     1.0000 0.48622  0.62650  0.16430  Biso   1.000  O
  H1931    1.0000 0.47530  0.62232  0.15450  Biso   1.000  H
  C1591    1.0000 0.56901  0.35442  0.08809  Biso   1.000  C
  O243     1.0000 0.62650  0.33570  0.01382  Biso   1.000  O
  H1932    1.0000 0.62232  0.34550  0.02470  Biso   1.000  H
  C1592    1.0000 0.58809  0.43099  0.14562  Biso   1.000  C
  O244     1.0000 0.66430  0.48622  0.12650  Biso   1.000  O
  H1933    1.0000 0.65450  0.47530  0.12232  Biso   1.000  H
  C1593    1.0000 0.44448  0.38612  0.86700  Biso   1.000  C
  C1594    1.0000 0.36700  0.44448  0.88612  Biso   1.000  C
  C1595    1.0000 0.30859  0.57399  0.03499  Biso   1.000  C
  C1596    1.0000 0.36700  0.55552  0.11388  Biso   1.000  C
  C1597    1.0000 0.36700  0.55552  0.11392  Biso   1.000  C
  H1934    1.0000 0.39532  0.69009  0.01201  Biso   1.000  H
  C1598    1.0000 0.42601  0.53499  0.19141  Biso   1.000  C
  H1935    1.0000 0.48799  0.60472  0.19009  Biso   1.000  H
  H1936    1.0000 0.48799  0.60472  0.19013  Biso   1.000  H
  C1599    1.0000 0.53499  0.30859  0.07399  Biso   1.000  C
  C1600    1.0000 0.55552  0.38612  0.13300  Biso   1.000  C
  H1937    1.0000 0.60472  0.30991  0.01201  Biso   1.000  H
  C1601    1.0000 0.57399  0.46501  0.19141  Biso   1.000  C
  H1938    1.0000 0.69009  0.48799  0.10468  Biso   1.000  H
  H1939    1.0000 0.69009  0.48799  0.10472  Biso   1.000  H
  O245     1.0000 0.48622  0.37350  0.83570  Biso   1.000  O
  C1602    1.0000 0.43099  0.35442  0.91191  Biso   1.000  C
  H1940    1.0000 0.47530  0.37772  0.84550  Biso   1.000  H
  C1603    1.0000 0.35442  0.41191  0.93099  Biso   1.000  C
  O246     1.0000 0.33570  0.48622  0.87350  Biso   1.000  O
  C1604    1.0000 0.35442  0.41191  0.93103  Biso   1.000  C
  H1941    1.0000 0.34550  0.47530  0.87772  Biso   1.000  H
  N245     1.0000 0.27629  0.53619  0.04491  Biso   1.000  N
  H1942    1.0000 0.30288  0.59460  0.00349  Biso   1.000  H
  O247     1.0000 0.33570  0.51382  0.12650  Biso   1.000  O
  H1943    1.0000 0.34550  0.52470  0.12232  Biso   1.000  H
  N246     1.0000 0.46381  0.54491  0.22375  Biso   1.000  N
  H1944    1.0000 0.40540  0.50349  0.19712  Biso   1.000  H
  N247     1.0000 0.54491  0.27629  0.03619  Biso   1.000  N
  H1945    1.0000 0.50349  0.30288  0.09460  Biso   1.000  H
  O248     1.0000 0.51382  0.37350  0.16430  Biso   1.000  O
  H1946    1.0000 0.52470  0.37772  0.15450  Biso   1.000  H
  N248     1.0000 0.53619  0.45509  0.22375  Biso   1.000  N
  H1947    1.0000 0.59460  0.49651  0.19712  Biso   1.000  H
  H1948    1.0000 0.48799  0.39532  0.80991  Biso   1.000  H
  C1605    1.0000 0.46501  0.30859  0.92601  Biso   1.000  C
  C1606    1.0000 0.38612  0.36700  0.94448  Biso   1.000  C
  C1607    1.0000 0.38612  0.36700  0.94452  Biso   1.000  C
  C1608    1.0000 0.30859  0.42601  0.96501  Biso   1.000  C
  H1949    1.0000 0.30991  0.48799  0.89532  Biso   1.000  H
  C1609    1.0000 0.23054  0.52752  0.01109  Biso   1.000  C
  C1610    1.0000 0.23054  0.52752  0.01113  Biso   1.000  C
  H1950    1.0000 0.30991  0.51201  0.10468  Biso   1.000  H
  H1951    1.0000 0.30991  0.51201  0.10472  Biso   1.000  H
  C1611    1.0000 0.47252  0.51109  0.26946  Biso   1.000  C
  C1612    1.0000 0.51109  0.23054  0.02752  Biso   1.000  C
  H1952    1.0000 0.51201  0.39532  0.19009  Biso   1.000  H
  H1953    1.0000 0.51201  0.39532  0.19013  Biso   1.000  H
  C1613    1.0000 0.52752  0.48891  0.26946  Biso   1.000  C
  N249     1.0000 0.45509  0.27629  0.96381  Biso   1.000  N
  H1954    1.0000 0.49651  0.30288  0.90540  Biso   1.000  H
  O249     1.0000 0.37350  0.33570  0.98618  Biso   1.000  O
  O250     1.0000 0.37350  0.33570  0.98622  Biso   1.000  O
  H1955    1.0000 0.37772  0.34550  0.97530  Biso   1.000  H
  N250     1.0000 0.27629  0.46381  0.95509  Biso   1.000  N
  H1956    1.0000 0.30288  0.40540  0.99651  Biso   1.000  H
  C1614    1.0000 0.23054  0.47252  0.98891  Biso   1.000  C
  H1957    1.0000 0.23178  0.55371  0.98072  Biso   1.000  H
  C1615    1.0000 0.17980  0.53740  0.04350  Biso   1.000  C
  C1616    1.0000 0.46260  0.54350  0.32020  Biso   1.000  C
  H1958    1.0000 0.44629  0.48072  0.26822  Biso   1.000  H
  C1617    1.0000 0.48891  0.23054  0.97248  Biso   1.000  C
  C1618    1.0000 0.48891  0.23054  0.97252  Biso   1.000  C
  C1619    1.0000 0.54350  0.17980  0.03740  Biso   1.000  C
  H1959    1.0000 0.48072  0.23178  0.05371  Biso   1.000  H
  C1620    1.0000 0.53740  0.45650  0.32020  Biso   1.000  C
  H1960    1.0000 0.55371  0.51932  0.26822  Biso   1.000  H
  H1961    1.0000 0.39532  0.30991  0.98799  Biso   1.000  H
  C1621    1.0000 0.17980  0.46260  0.95650  Biso   1.000  C
  H1962    1.0000 0.23178  0.44629  0.01928  Biso   1.000  H
  H1963    1.0000 0.23178  0.44629  0.01932  Biso   1.000  H
  C1622    1.0000 0.12951  0.52780  0.00980  Biso   1.000  C
  H1964    1.0000 0.17980  0.57492  0.05680  Biso   1.000  H
  H1965    1.0000 0.17940  0.51322  0.07500  Biso   1.000  H
  C1623    1.0000 0.47220  0.50980  0.37049  Biso   1.000  C
  H1966    1.0000 0.42512  0.55680  0.32020  Biso   1.000  H
  H1967    1.0000 0.48678  0.57500  0.32060  Biso   1.000  H
  C1624    1.0000 0.47220  0.50980  0.37053  Biso   1.000  C
  C1625    1.0000 0.45650  0.17980  0.96260  Biso   1.000  C
  H1968    1.0000 0.51932  0.23178  0.94629  Biso   1.000  H
  C1626    1.0000 0.50980  0.12951  0.02780  Biso   1.000  C
  H1969    1.0000 0.55680  0.17980  0.07492  Biso   1.000  H
  H1970    1.0000 0.57500  0.17940  0.01322  Biso   1.000  H
  C1627    1.0000 0.52780  0.49020  0.37049  Biso   1.000  C
  H1971    1.0000 0.57492  0.44320  0.32020  Biso   1.000  H
  H1972    1.0000 0.51322  0.42500  0.32060  Biso   1.000  H
  C1628    1.0000 0.52780  0.49020  0.37053  Biso   1.000  C
  C1629    1.0000 0.12951  0.47220  0.99020  Biso   1.000  C
  H1973    1.0000 0.17980  0.42512  0.94320  Biso   1.000  H
  H1974    1.0000 0.17940  0.48678  0.92500  Biso   1.000  H
  H1975    1.0000 0.12891  0.55290  0.97899  Biso   1.000  H
  H1976    1.0000 0.09709  0.53431  0.03190  Biso   1.000  H
  H1977    1.0000 0.46569  0.53190  0.40291  Biso   1.000  H
  H1978    1.0000 0.44710  0.47899  0.37109  Biso   1.000  H
  C1630    1.0000 0.49020  0.12951  0.97220  Biso   1.000  C
  H1979    1.0000 0.44320  0.17980  0.92508  Biso   1.000  H
  H1980    1.0000 0.42500  0.17940  0.98678  Biso   1.000  H
  H1981    1.0000 0.44320  0.17980  0.92512  Biso   1.000  H
  H1982    1.0000 0.42500  0.17940  0.98682  Biso   1.000  H
  H1983    1.0000 0.53190  0.09709  0.03431  Biso   1.000  H
  H1984    1.0000 0.47899  0.12891  0.05290  Biso   1.000  H
  H1985    1.0000 0.53431  0.46810  0.40291  Biso   1.000  H
  H1986    1.0000 0.55290  0.52101  0.37109  Biso   1.000  H
  H1987    1.0000 0.09709  0.46569  0.96810  Biso   1.000  H
  H1988    1.0000 0.12891  0.44710  0.02101  Biso   1.000  H
  H1989    1.0000 0.46810  0.09709  0.96569  Biso   1.000  H
  H1990    1.0000 0.52101  0.12891  0.94710  Biso   1.000  H
  O251     1.0000 0.62650  0.66430  0.98618  Biso   1.000  O
  C1631    1.0000 0.61392  0.63300  0.94448  Biso   1.000  C
  C1632    1.0000 0.61392  0.63300  0.94452  Biso   1.000  C
  H1991    1.0000 0.60472  0.69009  0.98799  Biso   1.000  H
  C1633    1.0000 0.56901  0.64562  0.91191  Biso   1.000  C
  C1634    1.0000 0.64562  0.58809  0.93099  Biso   1.000  C
  C1635    1.0000 0.64562  0.58809  0.93103  Biso   1.000  C
  O252     1.0000 0.62650  0.66430  0.98622  Biso   1.000  O
  H1992    1.0000 0.62232  0.65450  0.97530  Biso   1.000  H
  C1636    1.0000 0.55552  0.61392  0.86700  Biso   1.000  C
  C1637    1.0000 0.53499  0.69141  0.92601  Biso   1.000  C
  C1638    1.0000 0.63300  0.55552  0.88612  Biso   1.000  C
  C1639    1.0000 0.69141  0.57399  0.96501  Biso   1.000  C
  C1640    1.0000 0.58809  0.56901  0.85438  Biso   1.000  C
  C1641    1.0000 0.58809  0.56901  0.85442  Biso   1.000  C
  O253     1.0000 0.51382  0.62650  0.83570  Biso   1.000  O
  H1993    1.0000 0.52470  0.62232  0.84550  Biso   1.000  H
  N251     1.0000 0.54491  0.72375  0.96381  Biso   1.000  N
  H1994    1.0000 0.50349  0.69712  0.90540  Biso   1.000  H
  O254     1.0000 0.66430  0.51382  0.87350  Biso   1.000  O
  H1995    1.0000 0.65450  0.52470  0.87772  Biso   1.000  H
  N252     1.0000 0.72375  0.53619  0.95509  Biso   1.000  N
  H1996    1.0000 0.69712  0.59460  0.99651  Biso   1.000  H
  C1642    1.0000 0.57399  0.53499  0.80859  Biso   1.000  C
  H1997    1.0000 0.51201  0.60472  0.80991  Biso   1.000  H
  C1643    1.0000 0.51109  0.76946  0.97248  Biso   1.000  C
  C1644    1.0000 0.51109  0.76946  0.97252  Biso   1.000  C
  H1998    1.0000 0.69009  0.51201  0.89532  Biso   1.000  H
  C1645    1.0000 0.76946  0.52752  0.98891  Biso   1.000  C
  N253     1.0000 0.53619  0.54491  0.77625  Biso   1.000  N
  N254     1.0000 0.53619  0.54491  0.77629  Biso   1.000  N
  H1999    1.0000 0.59460  0.50349  0.80288  Biso   1.000  H
  H2000    1.0000 0.59460  0.50349  0.80292  Biso   1.000  H
  C1646    1.0000 0.54350  0.82020  0.96260  Biso   1.000  C
  H2001    1.0000 0.48072  0.76822  0.94629  Biso   1.000  H
  C1647    1.0000 0.48891  0.76946  0.02752  Biso   1.000  C
  C1648    1.0000 0.82020  0.53740  0.95650  Biso   1.000  C
  H2002    1.0000 0.76822  0.55371  0.01928  Biso   1.000  H
  C1649    1.0000 0.76946  0.47252  0.01109  Biso   1.000  C
  H2003    1.0000 0.76822  0.55371  0.01932  Biso   1.000  H
  C1650    1.0000 0.76946  0.47252  0.01113  Biso   1.000  C
  C1651    1.0000 0.52752  0.51109  0.73054  Biso   1.000  C
  C1652    1.0000 0.50980  0.87049  0.97220  Biso   1.000  C
  H2004    1.0000 0.55680  0.82020  0.92508  Biso   1.000  H
  H2005    1.0000 0.57500  0.82060  0.98678  Biso   1.000  H
  H2006    1.0000 0.55680  0.82020  0.92512  Biso   1.000  H
  H2007    1.0000 0.57500  0.82060  0.98682  Biso   1.000  H
  C1653    1.0000 0.45650  0.82020  0.03740  Biso   1.000  C
  H2008    1.0000 0.51932  0.76822  0.05371  Biso   1.000  H
  N255     1.0000 0.45509  0.72375  0.03619  Biso   1.000  N
  C1654    1.0000 0.87049  0.52780  0.99020  Biso   1.000  C
  H2009    1.0000 0.82020  0.57492  0.94320  Biso   1.000  H
  H2010    1.0000 0.82060  0.51322  0.92500  Biso   1.000  H
  H2011    1.0000 0.76822  0.44629  0.98072  Biso   1.000  H
  C1655    1.0000 0.82020  0.46260  0.04350  Biso   1.000  C
  N256     1.0000 0.72375  0.46381  0.04491  Biso   1.000  N
  C1656    1.0000 0.53740  0.54350  0.67980  Biso   1.000  C
  C1657    1.0000 0.47252  0.48891  0.73054  Biso   1.000  C
  H2012    1.0000 0.55371  0.48072  0.73178  Biso   1.000  H
  H2013    1.0000 0.55371  0.48072  0.73182  Biso   1.000  H
  H2014    1.0000 0.53190  0.90291  0.96569  Biso   1.000  H
  H2015    1.0000 0.47899  0.87109  0.94710  Biso   1.000  H
  C1658    1.0000 0.49020  0.87049  0.02780  Biso   1.000  C
  H2016    1.0000 0.44320  0.82020  0.07492  Biso   1.000  H
  H2017    1.0000 0.42500  0.82060  0.01322  Biso   1.000  H
  C1659    1.0000 0.46501  0.69141  0.07399  Biso   1.000  C
  H2018    1.0000 0.90291  0.53431  0.96810  Biso   1.000  H
  H2019    1.0000 0.87109  0.55290  0.02101  Biso   1.000  H
  C1660    1.0000 0.87049  0.47220  0.00980  Biso   1.000  C
  H2020    1.0000 0.82020  0.42512  0.05680  Biso   1.000  H
  H2021    1.0000 0.82060  0.48678  0.07500  Biso   1.000  H
  C1661    1.0000 0.69141  0.42601  0.03499  Biso   1.000  C
  C1662    1.0000 0.52780  0.50980  0.62951  Biso   1.000  C
  H2022    1.0000 0.57492  0.55680  0.67980  Biso   1.000  H
  H2023    1.0000 0.51322  0.57500  0.67940  Biso   1.000  H
  C1663    1.0000 0.46260  0.45650  0.67980  Biso   1.000  C
  H2024    1.0000 0.44629  0.51932  0.73178  Biso   1.000  H
  N257     1.0000 0.46381  0.45509  0.77625  Biso   1.000  N
  H2025    1.0000 0.44629  0.51932  0.73182  Biso   1.000  H
  N258     1.0000 0.46381  0.45509  0.77629  Biso   1.000  N
  H2026    1.0000 0.46810  0.90291  0.03431  Biso   1.000  H
  H2027    1.0000 0.52101  0.87109  0.05290  Biso   1.000  H
  H2028    1.0000 0.49651  0.69712  0.09460  Biso   1.000  H
  C1664    1.0000 0.43099  0.64562  0.08809  Biso   1.000  C
  H2029    1.0000 0.87109  0.44710  0.97899  Biso   1.000  H
  H2030    1.0000 0.90291  0.46569  0.03190  Biso   1.000  H
  H2031    1.0000 0.69712  0.40540  0.00349  Biso   1.000  H
  C1665    1.0000 0.64562  0.41191  0.06901  Biso   1.000  C
  C1666    1.0000 0.47220  0.49020  0.62951  Biso   1.000  C
  H2032    1.0000 0.53431  0.53190  0.59709  Biso   1.000  H
  H2033    1.0000 0.55290  0.47899  0.62891  Biso   1.000  H
  H2034    1.0000 0.42512  0.44320  0.67980  Biso   1.000  H
  H2035    1.0000 0.48678  0.42500  0.67940  Biso   1.000  H
  C1667    1.0000 0.42601  0.46501  0.80859  Biso   1.000  C
  C1668    1.0000 0.38612  0.63300  0.05552  Biso   1.000  C
  C1669    1.0000 0.44448  0.61392  0.13300  Biso   1.000  C
  C1670    1.0000 0.61392  0.36700  0.05552  Biso   1.000  C
  C1671    1.0000 0.63300  0.44448  0.11388  Biso   1.000  C
  C1672    1.0000 0.63300  0.44448  0.11392  Biso   1.000  C
  H2036    1.0000 0.46569  0.46810  0.59709  Biso   1.000  H
  H2037    1.0000 0.44710  0.52101  0.62891  Biso   1.000  H
  H2038    1.0000 0.40540  0.49651  0.80288  Biso   1.000  H
  C1673    1.0000 0.41191  0.43099  0.85438  Biso   1.000  C
  H2039    1.0000 0.40540  0.49651  0.80292  Biso   1.000  H
  C1674    1.0000 0.41191  0.43099  0.85442  Biso   1.000  C
  C1675    1.0000 0.35442  0.58809  0.06901  Biso   1.000  C
  O255     1.0000 0.37350  0.66430  0.01382  Biso   1.000  O
  H2040    1.0000 0.37772  0.65450  0.02470  Biso   1.000  H
  C1676    1.0000 0.41191  0.56901  0.14562  Biso   1.000  C
  O256     1.0000 0.48622  0.62650  0.16430  Biso   1.000  O
  H2041    1.0000 0.47530  0.62232  0.15450  Biso   1.000  H
  C1677    1.0000 0.56901  0.35442  0.08809  Biso   1.000  C
  O257     1.0000 0.62650  0.33570  0.01382  Biso   1.000  O
  H2042    1.0000 0.62232  0.34550  0.02470  Biso   1.000  H
  C1678    1.0000 0.58809  0.43099  0.14562  Biso   1.000  C
  O258     1.0000 0.66430  0.48622  0.12650  Biso   1.000  O
  H2043    1.0000 0.65450  0.47530  0.12232  Biso   1.000  H
  C1679    1.0000 0.44448  0.38612  0.86700  Biso   1.000  C
  C1680    1.0000 0.36700  0.44448  0.88612  Biso   1.000  C
  C1681    1.0000 0.30859  0.57399  0.03499  Biso   1.000  C
  C1682    1.0000 0.36700  0.55552  0.11388  Biso   1.000  C
  C1683    1.0000 0.36700  0.55552  0.11392  Biso   1.000  C
  H2044    1.0000 0.39532  0.69009  0.01201  Biso   1.000  H
  C1684    1.0000 0.42601  0.53499  0.19141  Biso   1.000  C
  H2045    1.0000 0.48799  0.60472  0.19009  Biso   1.000  H
  H2046    1.0000 0.48799  0.60472  0.19013  Biso   1.000  H
  C1685    1.0000 0.53499  0.30859  0.07399  Biso   1.000  C
  C1686    1.0000 0.55552  0.38612  0.13300  Biso   1.000  C
  H2047    1.0000 0.60472  0.30991  0.01201  Biso   1.000  H
  C1687    1.0000 0.57399  0.46501  0.19141  Biso   1.000  C
  H2048    1.0000 0.69009  0.48799  0.10468  Biso   1.000  H
  H2049    1.0000 0.69009  0.48799  0.10472  Biso   1.000  H
  O259     1.0000 0.48622  0.37350  0.83570  Biso   1.000  O
  C1688    1.0000 0.43099  0.35442  0.91191  Biso   1.000  C
  H2050    1.0000 0.47530  0.37772  0.84550  Biso   1.000  H
  O260     1.0000 0.33570  0.48622  0.87350  Biso   1.000  O
  C1689    1.0000 0.35442  0.41191  0.93099  Biso   1.000  C
  C1690    1.0000 0.35442  0.41191  0.93103  Biso   1.000  C
  H2051    1.0000 0.34550  0.47530  0.87772  Biso   1.000  H
  N259     1.0000 0.27629  0.53619  0.04491  Biso   1.000  N
  H2052    1.0000 0.30288  0.59460  0.00349  Biso   1.000  H
  O261     1.0000 0.33570  0.51382  0.12650  Biso   1.000  O
  H2053    1.0000 0.34550  0.52470  0.12232  Biso   1.000  H
  N260     1.0000 0.46381  0.54491  0.22375  Biso   1.000  N
  H2054    1.0000 0.40540  0.50349  0.19712  Biso   1.000  H
  N261     1.0000 0.54491  0.27629  0.03619  Biso   1.000  N
  H2055    1.0000 0.50349  0.30288  0.09460  Biso   1.000  H
  O262     1.0000 0.51382  0.37350  0.16430  Biso   1.000  O
  H2056    1.0000 0.52470  0.37772  0.15450  Biso   1.000  H
  N262     1.0000 0.53619  0.45509  0.22375  Biso   1.000  N
  H2057    1.0000 0.59460  0.49651  0.19712  Biso   1.000  H
  H2058    1.0000 0.48799  0.39532  0.80991  Biso   1.000  H
  C1691    1.0000 0.46501  0.30859  0.92601  Biso   1.000  C
  C1692    1.0000 0.38612  0.36700  0.94448  Biso   1.000  C
  C1693    1.0000 0.38612  0.36700  0.94452  Biso   1.000  C
  H2059    1.0000 0.30991  0.48799  0.89532  Biso   1.000  H
  C1694    1.0000 0.30859  0.42601  0.96501  Biso   1.000  C
  C1695    1.0000 0.23054  0.52752  0.01109  Biso   1.000  C
  C1696    1.0000 0.23054  0.52752  0.01113  Biso   1.000  C
  H2060    1.0000 0.30991  0.51201  0.10468  Biso   1.000  H
  H2061    1.0000 0.30991  0.51201  0.10472  Biso   1.000  H
  C1697    1.0000 0.47252  0.51109  0.26946  Biso   1.000  C
  C1698    1.0000 0.51109  0.23054  0.02752  Biso   1.000  C
  H2062    1.0000 0.51201  0.39532  0.19009  Biso   1.000  H
  H2063    1.0000 0.51201  0.39532  0.19013  Biso   1.000  H
  C1699    1.0000 0.52752  0.48891  0.26946  Biso   1.000  C
  N263     1.0000 0.45509  0.27629  0.96381  Biso   1.000  N
  H2064    1.0000 0.49651  0.30288  0.90540  Biso   1.000  H
  O263     1.0000 0.37350  0.33570  0.98618  Biso   1.000  O
  O264     1.0000 0.37350  0.33570  0.98622  Biso   1.000  O
  H2065    1.0000 0.37772  0.34550  0.97530  Biso   1.000  H
  N264     1.0000 0.27629  0.46381  0.95509  Biso   1.000  N
  H2066    1.0000 0.30288  0.40540  0.99651  Biso   1.000  H
  C1700    1.0000 0.23054  0.47252  0.98891  Biso   1.000  C
  H2067    1.0000 0.23178  0.55371  0.98072  Biso   1.000  H
  C1701    1.0000 0.17980  0.53740  0.04350  Biso   1.000  C
  C1702    1.0000 0.46260  0.54350  0.32020  Biso   1.000  C
  H2068    1.0000 0.44629  0.48072  0.26822  Biso   1.000  H
  C1703    1.0000 0.48891  0.23054  0.97248  Biso   1.000  C
  C1704    1.0000 0.48891  0.23054  0.97252  Biso   1.000  C
  C1705    1.0000 0.54350  0.17980  0.03740  Biso   1.000  C
  H2069    1.0000 0.48072  0.23178  0.05371  Biso   1.000  H
  C1706    1.0000 0.53740  0.45650  0.32020  Biso   1.000  C
  H2070    1.0000 0.55371  0.51932  0.26822  Biso   1.000  H
  H2071    1.0000 0.39532  0.30991  0.98799  Biso   1.000  H
  C1707    1.0000 0.17980  0.46260  0.95650  Biso   1.000  C
  H2072    1.0000 0.23178  0.44629  0.01928  Biso   1.000  H
  H2073    1.0000 0.23178  0.44629  0.01932  Biso   1.000  H
  C1708    1.0000 0.12951  0.52780  0.00980  Biso   1.000  C
  H2074    1.0000 0.17980  0.57492  0.05680  Biso   1.000  H
  H2075    1.0000 0.17940  0.51322  0.07500  Biso   1.000  H
  C1709    1.0000 0.47220  0.50980  0.37049  Biso   1.000  C
  H2076    1.0000 0.42512  0.55680  0.32020  Biso   1.000  H
  H2077    1.0000 0.48678  0.57500  0.32060  Biso   1.000  H
  C1710    1.0000 0.47220  0.50980  0.37053  Biso   1.000  C
  C1711    1.0000 0.45650  0.17980  0.96260  Biso   1.000  C
  H2078    1.0000 0.51932  0.23178  0.94629  Biso   1.000  H
  C1712    1.0000 0.50980  0.12951  0.02780  Biso   1.000  C
  H2079    1.0000 0.55680  0.17980  0.07492  Biso   1.000  H
  H2080    1.0000 0.57500  0.17940  0.01322  Biso   1.000  H
  C1713    1.0000 0.52780  0.49020  0.37049  Biso   1.000  C
  H2081    1.0000 0.57492  0.44320  0.32020  Biso   1.000  H
  H2082    1.0000 0.51322  0.42500  0.32060  Biso   1.000  H
  C1714    1.0000 0.52780  0.49020  0.37053  Biso   1.000  C
  C1715    1.0000 0.12951  0.47220  0.99020  Biso   1.000  C
  H2083    1.0000 0.17980  0.42512  0.94320  Biso   1.000  H
  H2084    1.0000 0.17940  0.48678  0.92500  Biso   1.000  H
  H2085    1.0000 0.12891  0.55290  0.97899  Biso   1.000  H
  H2086    1.0000 0.09709  0.53431  0.03190  Biso   1.000  H
  H2087    1.0000 0.46569  0.53190  0.40291  Biso   1.000  H
  H2088    1.0000 0.44710  0.47899  0.37109  Biso   1.000  H
  C1716    1.0000 0.49020  0.12951  0.97220  Biso   1.000  C
  H2089    1.0000 0.44320  0.17980  0.92508  Biso   1.000  H
  H2090    1.0000 0.42500  0.17940  0.98678  Biso   1.000  H
  H2091    1.0000 0.44320  0.17980  0.92512  Biso   1.000  H
  H2092    1.0000 0.42500  0.17940  0.98682  Biso   1.000  H
  H2093    1.0000 0.53190  0.09709  0.03431  Biso   1.000  H
  H2094    1.0000 0.47899  0.12891  0.05290  Biso   1.000  H
  H2095    1.0000 0.53431  0.46810  0.40291  Biso   1.000  H
  H2096    1.0000 0.55290  0.52101  0.37109  Biso   1.000  H
  H2097    1.0000 0.09709  0.46569  0.96810  Biso   1.000  H
  H2098    1.0000 0.12891  0.44710  0.02101  Biso   1.000  H
  H2099    1.0000 0.46810  0.09709  0.96569  Biso   1.000  H
  H2100    1.0000 0.52101  0.12891  0.94710  Biso   1.000  H
  C1717    1.0000 0.57022  0.29348  0.28742  Biso   1.000  C
  C1718    1.0000 0.51944  0.26111  0.27750  Biso   1.000  C
  C1719    1.0000 0.62051  0.25982  0.27782  Biso   1.000  C
  H2101    1.0000 0.57022  0.30682  0.32490  Biso   1.000  H
  H2102    1.0000 0.57062  0.32502  0.26320  Biso   1.000  H
  C1720    1.0000 0.51944  0.23889  0.22250  Biso   1.000  C
  H2103    1.0000 0.51820  0.23070  0.30369  Biso   1.000  H
  N265     1.0000 0.47373  0.29489  0.28621  Biso   1.000  N
  C1721    1.0000 0.62051  0.24022  0.22218  Biso   1.000  C
  H2104    1.0000 0.65289  0.28192  0.28429  Biso   1.000  H
  H2105    1.0000 0.62111  0.22901  0.30288  Biso   1.000  H
  N266     1.0000 0.47373  0.20511  0.21379  Biso   1.000  N
  C1722    1.0000 0.57022  0.20652  0.21262  Biso   1.000  C
  H2106    1.0000 0.51820  0.26930  0.19631  Biso   1.000  H
  C1723    1.0000 0.44139  0.28501  0.32401  Biso   1.000  C
  H2107    1.0000 0.65289  0.21808  0.21571  Biso   1.000  H
  H2108    1.0000 0.62111  0.27099  0.19712  Biso   1.000  H
  C1724    1.0000 0.44139  0.21499  0.17599  Biso   1.000  C
  H2109    1.0000 0.57022  0.19322  0.17510  Biso   1.000  H
  H2110    1.0000 0.57062  0.17498  0.23680  Biso   1.000  H
  H2111    1.0000 0.44710  0.25351  0.34462  Biso   1.000  H
  C1725    1.0000 0.39560  0.31899  0.33811  Biso   1.000  C
  C1726    1.0000 0.39560  0.18101  0.16189  Biso   1.000  C
  H2112    1.0000 0.44710  0.24649  0.15542  Biso   1.000  H
  C1727    1.0000 0.36390  0.30550  0.38298  Biso   1.000  C
  C1728    1.0000 0.38298  0.36390  0.30550  Biso   1.000  C
  C1729    1.0000 0.38298  0.13610  0.19450  Biso   1.000  C
  C1730    1.0000 0.36390  0.19450  0.11702  Biso   1.000  C
  C1731    1.0000 0.31899  0.33811  0.39560  Biso   1.000  C
  O265     1.0000 0.37652  0.26380  0.41432  Biso   1.000  O
  H2113    1.0000 0.37230  0.27468  0.40452  Biso   1.000  H
  C1732    1.0000 0.33811  0.39560  0.31899  Biso   1.000  C
  O266     1.0000 0.41432  0.37652  0.26380  Biso   1.000  O
  H2114    1.0000 0.40452  0.37230  0.27468  Biso   1.000  H
  O267     1.0000 0.41432  0.12348  0.23620  Biso   1.000  O
  C1733    1.0000 0.33811  0.10440  0.18101  Biso   1.000  C
  H2115    1.0000 0.40452  0.12770  0.22532  Biso   1.000  H
  C1734    1.0000 0.31899  0.16189  0.10440  Biso   1.000  C
  O268     1.0000 0.37652  0.23620  0.08568  Biso   1.000  O
  H2116    1.0000 0.37230  0.22532  0.09548  Biso   1.000  H
  C1735    1.0000 0.28501  0.32401  0.44139  Biso   1.000  C
  C1736    1.0000 0.30550  0.38298  0.36390  Biso   1.000  C
  H2117    1.0000 0.35470  0.26199  0.44011  Biso   1.000  H
  C1737    1.0000 0.32401  0.44139  0.28501  Biso   1.000  C
  H2118    1.0000 0.44011  0.35470  0.26199  Biso   1.000  H
  H2119    1.0000 0.44011  0.14530  0.23801  Biso   1.000  H
  C1738    1.0000 0.32401  0.05861  0.21499  Biso   1.000  C
  C1739    1.0000 0.30550  0.11702  0.13610  Biso   1.000  C
  C1740    1.0000 0.28501  0.17599  0.05861  Biso   1.000  C
  H2120    1.0000 0.35470  0.23801  0.05989  Biso   1.000  H
  N267     1.0000 0.29489  0.28621  0.47373  Biso   1.000  N
  H2121    1.0000 0.25351  0.34462  0.44710  Biso   1.000  H
  O269     1.0000 0.26380  0.41432  0.37652  Biso   1.000  O
  H2122    1.0000 0.27468  0.40452  0.37230  Biso   1.000  H
  N268     1.0000 0.28621  0.47373  0.29489  Biso   1.000  N
  H2123    1.0000 0.34462  0.44710  0.25351  Biso   1.000  H
  N269     1.0000 0.28621  0.02627  0.20511  Biso   1.000  N
  H2124    1.0000 0.34462  0.05290  0.24649  Biso   1.000  H
  O270     1.0000 0.26380  0.08568  0.12348  Biso   1.000  O
  H2125    1.0000 0.27468  0.09548  0.12770  Biso   1.000  H
  N270     1.0000 0.29489  0.21379  0.02627  Biso   1.000  N
  H2126    1.0000 0.25351  0.15542  0.05290  Biso   1.000  H
  C1741    1.0000 0.26111  0.27750  0.51944  Biso   1.000  C
  H2127    1.0000 0.26199  0.44011  0.35470  Biso   1.000  H
  C1742    1.0000 0.27750  0.51944  0.26111  Biso   1.000  C
  C1743    1.0000 0.27750  0.98056  0.23889  Biso   1.000  C
  H2128    1.0000 0.26199  0.05989  0.14530  Biso   1.000  H
  C1744    1.0000 0.26111  0.22250  0.98056  Biso   1.000  C
  C1745    1.0000 0.29348  0.28742  0.57022  Biso   1.000  C
  H2129    1.0000 0.23070  0.30369  0.51820  Biso   1.000  H
  C1746    1.0000 0.23889  0.22250  0.51944  Biso   1.000  C
  C1747    1.0000 0.28742  0.57022  0.29348  Biso   1.000  C
  H2130    1.0000 0.30369  0.51820  0.23070  Biso   1.000  H
  C1748    1.0000 0.22250  0.51944  0.23889  Biso   1.000  C
  C1749    1.0000 0.28742  0.92978  0.20652  Biso   1.000  C
  H2131    1.0000 0.30369  0.98180  0.26930  Biso   1.000  H
  C1750    1.0000 0.22250  0.98056  0.26111  Biso   1.000  C
  C1751    1.0000 0.29348  0.21262  0.92978  Biso   1.000  C
  H2132    1.0000 0.23070  0.19631  0.98180  Biso   1.000  H
  C1752    1.0000 0.23889  0.27750  0.98056  Biso   1.000  C
  C1753    1.0000 0.25982  0.27782  0.62051  Biso   1.000  C
  H2133    1.0000 0.30682  0.32490  0.57022  Biso   1.000  H
  H2134    1.0000 0.32502  0.26320  0.57062  Biso   1.000  H
  N271     1.0000 0.20511  0.21379  0.47373  Biso   1.000  N
  C1754    1.0000 0.20652  0.21262  0.57022  Biso   1.000  C
  H2135    1.0000 0.26930  0.19631  0.51820  Biso   1.000  H
  C1755    1.0000 0.27782  0.62051  0.25982  Biso   1.000  C
  H2136    1.0000 0.32490  0.57022  0.30682  Biso   1.000  H
  H2137    1.0000 0.26320  0.57062  0.32502  Biso   1.000  H
  N272     1.0000 0.21379  0.47373  0.20511  Biso   1.000  N
  C1756    1.0000 0.21262  0.57022  0.20652  Biso   1.000  C
  H2138    1.0000 0.19631  0.51820  0.26930  Biso   1.000  H
  C1757    1.0000 0.27782  0.87949  0.24022  Biso   1.000  C
  H2139    1.0000 0.32490  0.92978  0.19322  Biso   1.000  H
  H2140    1.0000 0.26320  0.92938  0.17498  Biso   1.000  H
  N273     1.0000 0.21379  0.02627  0.29489  Biso   1.000  N
  C1758    1.0000 0.21262  0.92978  0.29348  Biso   1.000  C
  H2141    1.0000 0.19631  0.98180  0.23070  Biso   1.000  H
  C1759    1.0000 0.25982  0.22218  0.87949  Biso   1.000  C
  H2142    1.0000 0.30682  0.17510  0.92978  Biso   1.000  H
  H2143    1.0000 0.32502  0.23680  0.92938  Biso   1.000  H
  N274     1.0000 0.20511  0.28621  0.02627  Biso   1.000  N
  C1760    1.0000 0.20652  0.28742  0.92978  Biso   1.000  C
  H2144    1.0000 0.26930  0.30369  0.98180  Biso   1.000  H
  H2145    1.0000 0.28192  0.28429  0.65289  Biso   1.000  H
  H2146    1.0000 0.22901  0.30288  0.62111  Biso   1.000  H
  C1761    1.0000 0.24022  0.22218  0.62051  Biso   1.000  C
  C1762    1.0000 0.21499  0.17599  0.44139  Biso   1.000  C
  H2147    1.0000 0.19322  0.17510  0.57022  Biso   1.000  H
  H2148    1.0000 0.17498  0.23680  0.57062  Biso   1.000  H
  H2149    1.0000 0.28429  0.65289  0.28192  Biso   1.000  H
  H2150    1.0000 0.30288  0.62111  0.22901  Biso   1.000  H
  C1763    1.0000 0.22218  0.62051  0.24022  Biso   1.000  C
  C1764    1.0000 0.17599  0.44139  0.21499  Biso   1.000  C
  H2151    1.0000 0.17510  0.57022  0.19322  Biso   1.000  H
  H2152    1.0000 0.23680  0.57062  0.17498  Biso   1.000  H
  H2153    1.0000 0.28429  0.84711  0.21808  Biso   1.000  H
  H2154    1.0000 0.30288  0.87889  0.27099  Biso   1.000  H
  C1765    1.0000 0.22218  0.87949  0.25982  Biso   1.000  C
  C1766    1.0000 0.17599  0.05861  0.28501  Biso   1.000  C
  H2155    1.0000 0.17510  0.92978  0.30682  Biso   1.000  H
  H2156    1.0000 0.23680  0.92938  0.32502  Biso   1.000  H
  H2157    1.0000 0.28192  0.21571  0.84711  Biso   1.000  H
  H2158    1.0000 0.22901  0.19712  0.87889  Biso   1.000  H
  C1767    1.0000 0.24022  0.27782  0.87949  Biso   1.000  C
  C1768    1.0000 0.21499  0.32401  0.05861  Biso   1.000  C
  H2159    1.0000 0.19322  0.32490  0.92978  Biso   1.000  H
  H2160    1.0000 0.17498  0.26320  0.92938  Biso   1.000  H
  H2161    1.0000 0.21808  0.21571  0.65289  Biso   1.000  H
  H2162    1.0000 0.27099  0.19712  0.62111  Biso   1.000  H
  C1769    1.0000 0.18101  0.16189  0.39560  Biso   1.000  C
  H2163    1.0000 0.24649  0.15542  0.44710  Biso   1.000  H
  H2164    1.0000 0.21571  0.65289  0.21808  Biso   1.000  H
  H2165    1.0000 0.19712  0.62111  0.27099  Biso   1.000  H
  C1770    1.0000 0.16189  0.39560  0.18101  Biso   1.000  C
  H2166    1.0000 0.15542  0.44710  0.24649  Biso   1.000  H
  H2167    1.0000 0.21571  0.84711  0.28192  Biso   1.000  H
  H2168    1.0000 0.19712  0.87889  0.22901  Biso   1.000  H
  H2169    1.0000 0.15542  0.05290  0.25351  Biso   1.000  H
  C1771    1.0000 0.16189  0.10440  0.31899  Biso   1.000  C
  H2170    1.0000 0.21808  0.28429  0.84711  Biso   1.000  H
  H2171    1.0000 0.27099  0.30288  0.87889  Biso   1.000  H
  H2172    1.0000 0.24649  0.34462  0.05290  Biso   1.000  H
  C1772    1.0000 0.18101  0.33811  0.10440  Biso   1.000  C
  C1773    1.0000 0.19450  0.11702  0.36390  Biso   1.000  C
  C1774    1.0000 0.13610  0.19450  0.38298  Biso   1.000  C
  C1775    1.0000 0.19450  0.38298  0.13610  Biso   1.000  C
  C1776    1.0000 0.11702  0.36390  0.19450  Biso   1.000  C
  C1777    1.0000 0.11702  0.13610  0.30550  Biso   1.000  C
  C1778    1.0000 0.13610  0.30550  0.11702  Biso   1.000  C
  O271     1.0000 0.23620  0.08568  0.37652  Biso   1.000  O
  H2173    1.0000 0.22532  0.09548  0.37230  Biso   1.000  H
  C1779    1.0000 0.10440  0.18101  0.33811  Biso   1.000  C
  O272     1.0000 0.12348  0.23620  0.41432  Biso   1.000  O
  H2174    1.0000 0.12770  0.22532  0.40452  Biso   1.000  H
  O273     1.0000 0.23620  0.41432  0.12348  Biso   1.000  O
  H2175    1.0000 0.22532  0.40452  0.12770  Biso   1.000  H
  C1780    1.0000 0.10440  0.31899  0.16189  Biso   1.000  C
  O274     1.0000 0.08568  0.37652  0.23620  Biso   1.000  O
  H2176    1.0000 0.09548  0.37230  0.22532  Biso   1.000  H
  O275     1.0000 0.08568  0.12348  0.26380  Biso   1.000  O
  H2177    1.0000 0.09548  0.12770  0.27468  Biso   1.000  H
  O276     1.0000 0.12348  0.26380  0.08568  Biso   1.000  O
  H2178    1.0000 0.12770  0.27468  0.09548  Biso   1.000  H
  H2179    1.0000 0.23801  0.05989  0.35470  Biso   1.000  H
  C1781    1.0000 0.05861  0.21499  0.32401  Biso   1.000  C
  H2180    1.0000 0.14530  0.23801  0.44011  Biso   1.000  H
  H2181    1.0000 0.23801  0.44011  0.14530  Biso   1.000  H
  C1782    1.0000 0.05861  0.28501  0.17599  Biso   1.000  C
  H2182    1.0000 0.05989  0.35470  0.23801  Biso   1.000  H
  H2183    1.0000 0.05989  0.14530  0.26199  Biso   1.000  H
  H2184    1.0000 0.14530  0.26199  0.05989  Biso   1.000  H
  N275     1.0000 0.02627  0.20511  0.28621  Biso   1.000  N
  H2185    1.0000 0.05290  0.24649  0.34462  Biso   1.000  H
  N276     1.0000 0.02627  0.29489  0.21379  Biso   1.000  N
  H2186    1.0000 0.05290  0.25351  0.15542  Biso   1.000  H
  C1783    1.0000 0.98056  0.23889  0.27750  Biso   1.000  C
  C1784    1.0000 0.98056  0.26111  0.22250  Biso   1.000  C
  C1785    1.0000 0.92978  0.20652  0.28742  Biso   1.000  C
  H2187    1.0000 0.98180  0.26930  0.30369  Biso   1.000  H
  C1786    1.0000 0.92978  0.29348  0.21262  Biso   1.000  C
  H2188    1.0000 0.98180  0.23070  0.19631  Biso   1.000  H
  C1787    1.0000 0.87949  0.24022  0.27782  Biso   1.000  C
  H2189    1.0000 0.92978  0.19322  0.32490  Biso   1.000  H
  H2190    1.0000 0.92938  0.17498  0.26320  Biso   1.000  H
  C1788    1.0000 0.87949  0.25982  0.22218  Biso   1.000  C
  H2191    1.0000 0.92978  0.30682  0.17510  Biso   1.000  H
  H2192    1.0000 0.92938  0.32502  0.23680  Biso   1.000  H
  H2193    1.0000 0.84711  0.21808  0.28429  Biso   1.000  H
  H2194    1.0000 0.87889  0.27099  0.30288  Biso   1.000  H
  H2195    1.0000 0.84711  0.28192  0.21571  Biso   1.000  H
  H2196    1.0000 0.87889  0.22901  0.19712  Biso   1.000  H
  Ne1      1.0000 0.25000  0.25000  0.25000  Biso   1.000  Ne
  He1      1.0000 0.15544  0.34456  0.34456  Biso   1.000  He
  He2      1.0000 0.34433  0.15567  0.34433  Biso   1.000  He
  He3      1.0000 0.15257  0.15257  0.15257  Biso   1.000  He
  He4      1.0000 0.34622  0.34622  0.15378  Biso   1.000  He
  Ar1      1.0000 0.25000  0.25000  0.25000  Biso   1.000  Ar
  Ne2      1.0000 0.75001  0.75001  0.25000  Biso   1.000  Ne
  He5      1.0000 0.65546  0.84455  0.34456  Biso   1.000  He
  He6      1.0000 0.84434  0.65568  0.34433  Biso   1.000  He
  He7      1.0000 0.65260  0.65261  0.15259  Biso   1.000  He
  He8      1.0000 0.84622  0.84622  0.15378  Biso   1.000  He
  Ar2      1.0000 0.75000  0.75000  0.25000  Biso   1.000  Ar
  Ne3      1.0000 0.75001  0.25000  0.75001  Biso   1.000  Ne
  He9      1.0000 0.65546  0.34455  0.84456  Biso   1.000  He
  He10     1.0000 0.84433  0.15567  0.84433  Biso   1.000  He
  He11     1.0000 0.65259  0.15258  0.65258  Biso   1.000  He
  He12     1.0000 0.84621  0.34622  0.65380  Biso   1.000  He
  Ar3      1.0000 0.75000  0.25000  0.75000  Biso   1.000  Ar
  Ne4      1.0000 0.25000  0.75001  0.75001  Biso   1.000  Ne
  He13     1.0000 0.15544  0.84456  0.84456  Biso   1.000  He
  He14     1.0000 0.34434  0.65568  0.84433  Biso   1.000  He
  He15     1.0000 0.15258  0.65259  0.65259  Biso   1.000  He
  He16     1.0000 0.34621  0.84622  0.65380  Biso   1.000  He
  Ar4      1.0000 0.25000  0.75000  0.75000  Biso   1.000  Ar
  Ne5      1.0000 0.99845  0.50000  0.50000  Biso   1.000  Ne
  He17     1.0000 0.90439  0.40440  0.59563  Biso   1.000  He
  He18     1.0000 0.09607  0.59607  0.59606  Biso   1.000  He
  He19     1.0000 0.09257  0.40745  0.40746  Biso   1.000  He
  He20     1.0000 0.90418  0.59585  0.40417  Biso   1.000  He
  Ar5      1.0000 0.00002  0.50000  0.49999  Biso   1.000  Ar
  Ne6      1.0000 0.99845  0.50000  0.50000  Biso   1.000  Ne
  He21     1.0000 0.90439  0.40440  0.59563  Biso   1.000  He
  He22     1.0000 0.09607  0.59607  0.59606  Biso   1.000  He
  He23     1.0000 0.09257  0.40745  0.40746  Biso   1.000  He
  He24     1.0000 0.90418  0.59585  0.40417  Biso   1.000  He
  Ar6      1.0000 0.00002  0.50000  0.49999  Biso   1.000  Ar
  Ne7      1.0000 0.50000  0.99845  0.50000  Biso   1.000  Ne
  He25     1.0000 0.40439  0.90440  0.59563  Biso   1.000  He
  He26     1.0000 0.59607  0.09607  0.59607  Biso   1.000  He
  He27     1.0000 0.59257  0.90746  0.40746  Biso   1.000  He
  He28     1.0000 0.40418  0.09585  0.40418  Biso   1.000  He
  Ar7      1.0000 0.49999  0.00002  0.50000  Biso   1.000  Ar
  Ne8      1.0000 0.50000  0.99845  0.50000  Biso   1.000  Ne
  He29     1.0000 0.40439  0.90440  0.59563  Biso   1.000  He
  He30     1.0000 0.59607  0.09607  0.59607  Biso   1.000  He
  He31     1.0000 0.59257  0.90746  0.40746  Biso   1.000  He
  He32     1.0000 0.40418  0.09585  0.40418  Biso   1.000  He
  Ar8      1.0000 0.49999  0.00002  0.50000  Biso   1.000  Ar
  Ne9      1.0000 0.50000  0.50000  0.99845  Biso   1.000  Ne
  He33     1.0000 0.40439  0.40440  0.09563  Biso   1.000  He
  He34     1.0000 0.59607  0.59607  0.09607  Biso   1.000  He
  He35     1.0000 0.59257  0.40746  0.90746  Biso   1.000  He
  He36     1.0000 0.40418  0.59585  0.90417  Biso   1.000  He
  Ar9      1.0000 0.50001  0.50001  0.00001  Biso   1.000  Ar
  Ne10     1.0000 0.50000  0.50000  0.99845  Biso   1.000  Ne
  He37     1.0000 0.40439  0.40440  0.09563  Biso   1.000  He
  He38     1.0000 0.59607  0.59607  0.09607  Biso   1.000  He
  He39     1.0000 0.59257  0.40746  0.90746  Biso   1.000  He
  He40     1.0000 0.40418  0.59585  0.90417  Biso   1.000  He
  Ar10     1.0000 0.50001  0.50001  0.00001  Biso   1.000  Ar
  Ne11     1.0000 0.99965  0.99965  0.99965  Biso   1.000  Ne
  He41     1.0000 0.90440  0.90440  0.09563  Biso   1.000  He
  He42     1.0000 0.09606  0.09607  0.09607  Biso   1.000  He
  He43     1.0000 0.09257  0.90746  0.90746  Biso   1.000  He
  He44     1.0000 0.90418  0.09585  0.90417  Biso   1.000  He
  Ar11     1.0000 0.00002  0.00002  0.00002  Biso   1.000  Ar
  Ne12     1.0000 0.99965  0.99965  0.99965  Biso   1.000  Ne
  He45     1.0000 0.90440  0.90440  0.09563  Biso   1.000  He
  He46     1.0000 0.09606  0.09607  0.09607  Biso   1.000  He
  He47     1.0000 0.09257  0.90746  0.90746  Biso   1.000  He
  He48     1.0000 0.90418  0.09585  0.90417  Biso   1.000  He
  Ar12     1.0000 0.00002  0.00002  0.00002  Biso   1.000  Ar
  Ne13     1.0000 0.99965  0.99965  0.99965  Biso   1.000  Ne
  He49     1.0000 0.90440  0.90440  0.09563  Biso   1.000  He
  He50     1.0000 0.09606  0.09607  0.09607  Biso   1.000  He
  He51     1.0000 0.09257  0.90746  0.90746  Biso   1.000  He
  He52     1.0000 0.90418  0.09585  0.90417  Biso   1.000  He
  Ar13     1.0000 0.00002  0.00002  0.00002  Biso   1.000  Ar
  Ne14     1.0000 0.99965  0.99965  0.99965  Biso   1.000  Ne
  He53     1.0000 0.90440  0.90440  0.09563  Biso   1.000  He
  He54     1.0000 0.09606  0.09607  0.09607  Biso   1.000  He
  He55     1.0000 0.09257  0.90746  0.90746  Biso   1.000  He
  He56     1.0000 0.90418  0.09585  0.90417  Biso   1.000  He
  Ar14     1.0000 0.00002  0.00002  0.00002  Biso   1.000  Ar
  Ne15     1.0000 0.99965  0.99965  0.99965  Biso   1.000  Ne
  He57     1.0000 0.90440  0.90440  0.09563  Biso   1.000  He
  He58     1.0000 0.09606  0.09607  0.09607  Biso   1.000  He
  He59     1.0000 0.09257  0.90746  0.90746  Biso   1.000  He
  He60     1.0000 0.90418  0.09585  0.90417  Biso   1.000  He
  Ar15     1.0000 0.00002  0.00002  0.00002  Biso   1.000  Ar
  Ne16     1.0000 0.99965  0.99965  0.99965  Biso   1.000  Ne
  He61     1.0000 0.90440  0.90440  0.09563  Biso   1.000  He
  He62     1.0000 0.09606  0.09607  0.09607  Biso   1.000  He
  He63     1.0000 0.09257  0.90746  0.90746  Biso   1.000  He
  He64     1.0000 0.90418  0.09585  0.90417  Biso   1.000  He
  Ar16     1.0000 0.00002  0.00002  0.00002  Biso   1.000  Ar
  Ne17     1.0000 0.99965  0.99965  0.99965  Biso   1.000  Ne
  He65     1.0000 0.90440  0.90440  0.09563  Biso   1.000  He
  He66     1.0000 0.09606  0.09607  0.09607  Biso   1.000  He
  He67     1.0000 0.09257  0.90746  0.90746  Biso   1.000  He
  He68     1.0000 0.90418  0.09585  0.90417  Biso   1.000  He
  Ar17     1.0000 0.00002  0.00002  0.00002  Biso   1.000  Ar
  Ne18     1.0000 0.99965  0.99965  0.99965  Biso   1.000  Ne
  He69     1.0000 0.90440  0.90440  0.09563  Biso   1.000  He
  He70     1.0000 0.09606  0.09607  0.09607  Biso   1.000  He
  He71     1.0000 0.09257  0.90746  0.90746  Biso   1.000  He
  He72     1.0000 0.90418  0.09585  0.90417  Biso   1.000  He
  Ar18     1.0000 0.00002  0.00002  0.00002  Biso   1.000  Ar
