data_image0
_cell_length_a       51.168
_cell_length_b       10.014
_cell_length_c       25.099
_cell_angle_alpha    90
_cell_angle_beta     90
_cell_angle_gamma    90

_symmetry_space_group_name_H-M    "P 1"
_symmetry_int_tables_number       1

loop_
  _symmetry_equiv_pos_as_xyz
  'x, y, z'

loop_
  _atom_site_label
  _atom_site_occupancy
  _atom_site_fract_x
  _atom_site_fract_y
  _atom_site_fract_z
  _atom_site_thermal_displace_type
  _atom_site_B_iso_or_equiv
  _atom_site_type_symbol
  C1       1.0000 0.37107  0.54873  0.43193  Biso   1.000  C
  C2       1.0000 0.34979  0.62772  0.40336  Biso   1.000  C
  C3       1.0000 0.38112  0.43599  0.39763  Biso   1.000  C
  H1       1.0000 0.36400  0.51178  0.46552  Biso   1.000  H
  H2       1.0000 0.38569  0.60925  0.44101  Biso   1.000  H
  C4       1.0000 0.32290  0.60925  0.41209  Biso   1.000  C
  C5       1.0000 0.35768  0.72319  0.36603  Biso   1.000  C
  C6       1.0000 0.37041  0.30697  0.39759  Biso   1.000  C
  C7       1.0000 0.40113  0.46435  0.36157  Biso   1.000  C
  C8       1.0000 0.31178  0.49960  0.44719  Biso   1.000  C
  C9       1.0000 0.30531  0.69113  0.38492  Biso   1.000  C
  H3       1.0000 0.37580  0.73727  0.36009  Biso   1.000  H
  C10      1.0000 0.33970  0.79788  0.33742  Biso   1.000  C
  C11      1.0000 0.34975  0.26113  0.43743  Biso   1.000  C
  C12      1.0000 0.37887  0.21630  0.35922  Biso   1.000  C
  C13      1.0000 0.40947  0.37468  0.32348  Biso   1.000  C
  H4       1.0000 0.40940  0.54923  0.36340  Biso   1.000  H
  C14      1.0000 0.30554  0.37288  0.41643  Biso   1.000  C
  H5       1.0000 0.32450  0.47853  0.47560  Biso   1.000  H
  H6       1.0000 0.29559  0.53265  0.46448  Biso   1.000  H
  C15      1.0000 0.31324  0.78400  0.34770  Biso   1.000  C
  H7       1.0000 0.28719  0.68264  0.39229  Biso   1.000  H
  O1       1.0000 0.35049  0.88356  0.29997  Biso   1.000  O
  C16      1.0000 0.32227  0.26243  0.41428  Biso   1.000  C
  H8       1.0000 0.35030  0.32025  0.46898  Biso   1.000  H
  H9       1.0000 0.35399  0.16936  0.44938  Biso   1.000  H
  H10      1.0000 0.37170  0.12872  0.35890  Biso   1.000  H
  C17      1.0000 0.39753  0.25085  0.32145  Biso   1.000  C
  H11      1.0000 0.42300  0.39744  0.29929  Biso   1.000  H
  C18      1.0000 0.28186  0.36858  0.38878  Biso   1.000  C
  H12      1.0000 0.30079  0.83753  0.32950  Biso   1.000  H
  C19      1.0000 0.33343  0.96016  0.26766  Biso   1.000  C
  C20      1.0000 0.31371  0.14859  0.38751  Biso   1.000  C
  O2       1.0000 0.40283  0.15309  0.28384  Biso   1.000  O
  C21      1.0000 0.27482  0.25724  0.35894  Biso   1.000  C
  H13      1.0000 0.27040  0.44298  0.39041  Biso   1.000  H
  O3       1.0000 0.31655  0.88276  0.23567  Biso   1.000  O
  H14      1.0000 0.34400  0.01847  0.24431  Biso   1.000  H
  H15      1.0000 0.32280  0.01847  0.29089  Biso   1.000  H
  C22      1.0000 0.29020  0.14420  0.36021  Biso   1.000  C
  H16      1.0000 0.32440  0.07110  0.38798  Biso   1.000  H
  C23      1.0000 0.42255  0.17855  0.24591  Biso   1.000  C
  O4       1.0000 0.25197  0.26982  0.32934  Biso   1.000  O
  C24      1.0000 0.32735  0.79698  0.19814  Biso   1.000  C
  H17      1.0000 0.28481  0.06481  0.34268  Biso   1.000  H
  O5       1.0000 0.41563  0.28111  0.20945  Biso   1.000  O
  H18      1.0000 0.43881  0.20451  0.26471  Biso   1.000  H
  H19      1.0000 0.42620  0.09547  0.22579  Biso   1.000  H
  C25      1.0000 0.24619  0.16677  0.29208  Biso   1.000  C
  C26      1.0000 0.30943  0.71999  0.17029  Biso   1.000  C
  C27      1.0000 0.35374  0.78560  0.18746  Biso   1.000  C
  C28      1.0000 0.39327  0.26373  0.17897  Biso   1.000  C
  O6       1.0000 0.26644  0.14500  0.25507  Biso   1.000  O
  H20      1.0000 0.23001  0.19063  0.27260  Biso   1.000  H
  H21      1.0000 0.24281  0.08288  0.31169  Biso   1.000  H
  C29      1.0000 0.31737  0.62493  0.13339  Biso   1.000  C
  H22      1.0000 0.29130  0.73267  0.17658  Biso   1.000  H
  C30      1.0000 0.36169  0.69243  0.15021  Biso   1.000  C
  H23      1.0000 0.36611  0.84042  0.20531  Biso   1.000  H
  C31      1.0000 0.38591  0.37278  0.14833  Biso   1.000  C
  C32      1.0000 0.37848  0.14819  0.17794  Biso   1.000  C
  C33      1.0000 0.27152  0.24316  0.21734  Biso   1.000  C
  C34      1.0000 0.29628  0.54274  0.10578  Biso   1.000  C
  C35      1.0000 0.34434  0.60825  0.12395  Biso   1.000  C
  H24      1.0000 0.37981  0.68554  0.14220  Biso   1.000  H
  C36      1.0000 0.36237  0.37338  0.12000  Biso   1.000  C
  H25      1.0000 0.39710  0.44847  0.14650  Biso   1.000  H
  C37      1.0000 0.35524  0.14919  0.14961  Biso   1.000  C
  H26      1.0000 0.38411  0.07020  0.19610  Biso   1.000  H
  C38      1.0000 0.25934  0.36599  0.21583  Biso   1.000  C
  C39      1.0000 0.29006  0.20931  0.17933  Biso   1.000  C
  C40      1.0000 0.28700  0.42890  0.14084  Biso   1.000  C
  H27      1.0000 0.30330  0.50609  0.07199  Biso   1.000  H
  H28      1.0000 0.28131  0.60116  0.09690  Biso   1.000  H
  C41      1.0000 0.35542  0.49840  0.08901  Biso   1.000  C
  C42      1.0000 0.34611  0.26113  0.12255  Biso   1.000  C
  H29      1.0000 0.34510  0.06990  0.14861  Biso   1.000  H
  C43      1.0000 0.26722  0.45616  0.17734  Biso   1.000  C
  H30      1.0000 0.24590  0.38806  0.24049  Biso   1.000  H
  C44      1.0000 0.29806  0.30078  0.14068  Biso   1.000  C
  H31      1.0000 0.29749  0.12233  0.17961  Biso   1.000  H
  H32      1.0000 0.34240  0.47533  0.06120  Biso   1.000  H
  H33      1.0000 0.37131  0.53225  0.07080  Biso   1.000  H
  C45      1.0000 0.31852  0.25614  0.10008  Biso   1.000  C
  H34      1.0000 0.25870  0.54044  0.17570  Biso   1.000  H
  H35      1.0000 0.31750  0.31456  0.06829  Biso   1.000  H
  H36      1.0000 0.31459  0.16367  0.08861  Biso   1.000  H
  C46      1.0000 0.35542  0.50160  0.58899  Biso   1.000  C
  C47      1.0000 0.34434  0.39185  0.62393  Biso   1.000  C
  H37      1.0000 0.34240  0.52477  0.56122  Biso   1.000  H
  H38      1.0000 0.37131  0.46785  0.57082  Biso   1.000  H
  C48      1.0000 0.36237  0.62662  0.62002  Biso   1.000  C
  C49      1.0000 0.31737  0.37507  0.63337  Biso   1.000  C
  C50      1.0000 0.36169  0.30757  0.65023  Biso   1.000  C
  C51      1.0000 0.34611  0.73897  0.62253  Biso   1.000  C
  C52      1.0000 0.38591  0.62722  0.64831  Biso   1.000  C
  C53      1.0000 0.29628  0.45736  0.60576  Biso   1.000  C
  C54      1.0000 0.30943  0.28001  0.67027  Biso   1.000  C
  C55      1.0000 0.35374  0.21440  0.68748  Biso   1.000  C
  H39      1.0000 0.37981  0.31456  0.64222  Biso   1.000  H
  C56      1.0000 0.31852  0.74396  0.60010  Biso   1.000  C
  C57      1.0000 0.35524  0.85081  0.64963  Biso   1.000  C
  C58      1.0000 0.39327  0.73637  0.67899  Biso   1.000  C
  H40      1.0000 0.39710  0.55153  0.64652  Biso   1.000  H
  C59      1.0000 0.28700  0.57110  0.64086  Biso   1.000  C
  H41      1.0000 0.30330  0.49391  0.57201  Biso   1.000  H
  H42      1.0000 0.28131  0.39894  0.59692  Biso   1.000  H
  H43      1.0000 0.29130  0.26743  0.67660  Biso   1.000  H
  C60      1.0000 0.32735  0.20302  0.69816  Biso   1.000  C
  H44      1.0000 0.36611  0.15958  0.70529  Biso   1.000  H
  C61      1.0000 0.29806  0.69922  0.64066  Biso   1.000  C
  H45      1.0000 0.31750  0.68554  0.56831  Biso   1.000  H
  H46      1.0000 0.31459  0.83633  0.58859  Biso   1.000  H
  H47      1.0000 0.34510  0.93010  0.64859  Biso   1.000  H
  C62      1.0000 0.37848  0.85181  0.67792  Biso   1.000  C
  O7       1.0000 0.41563  0.71899  0.70943  Biso   1.000  O
  C63      1.0000 0.26722  0.54394  0.67732  Biso   1.000  C
  O8       1.0000 0.31655  0.11724  0.73565  Biso   1.000  O
  C64      1.0000 0.29006  0.79069  0.67931  Biso   1.000  C
  H48      1.0000 0.38411  0.92980  0.69608  Biso   1.000  H
  C65      1.0000 0.42255  0.82155  0.74589  Biso   1.000  C
  H49      1.0000 0.25870  0.45966  0.67568  Biso   1.000  H
  C66      1.0000 0.25934  0.63401  0.71581  Biso   1.000  C
  C67      1.0000 0.33343  0.03994  0.76764  Biso   1.000  C
  C68      1.0000 0.27152  0.75694  0.71736  Biso   1.000  C
  H50      1.0000 0.29749  0.87777  0.67959  Biso   1.000  H
  O9       1.0000 0.40283  0.84691  0.78382  Biso   1.000  O
  H51      1.0000 0.43881  0.79549  0.76469  Biso   1.000  H
  H52      1.0000 0.42620  0.90453  0.72581  Biso   1.000  H
  H53      1.0000 0.24590  0.61204  0.74051  Biso   1.000  H
  O10      1.0000 0.35049  0.11654  0.79999  Biso   1.000  O
  H54      1.0000 0.34400  0.98163  0.74429  Biso   1.000  H
  H55      1.0000 0.32280  0.98163  0.79091  Biso   1.000  H
  O11      1.0000 0.26644  0.85500  0.75509  Biso   1.000  O
  C69      1.0000 0.39753  0.74925  0.82147  Biso   1.000  C
  C70      1.0000 0.33970  0.20212  0.83744  Biso   1.000  C
  C71      1.0000 0.24619  0.83323  0.79210  Biso   1.000  C
  C72      1.0000 0.37887  0.78370  0.85924  Biso   1.000  C
  C73      1.0000 0.40947  0.62532  0.82346  Biso   1.000  C
  C74      1.0000 0.35768  0.27681  0.86605  Biso   1.000  C
  C75      1.0000 0.31324  0.21600  0.84772  Biso   1.000  C
  O12      1.0000 0.25197  0.73018  0.82936  Biso   1.000  O
  H56      1.0000 0.23001  0.80947  0.77258  Biso   1.000  H
  H57      1.0000 0.24281  0.91712  0.81171  Biso   1.000  H
  C76      1.0000 0.37041  0.69303  0.89757  Biso   1.000  C
  H58      1.0000 0.37170  0.87138  0.85892  Biso   1.000  H
  H59      1.0000 0.42300  0.60266  0.79931  Biso   1.000  H
  C77      1.0000 0.40113  0.53575  0.86159  Biso   1.000  C
  C78      1.0000 0.34979  0.37228  0.90334  Biso   1.000  C
  H60      1.0000 0.37580  0.26283  0.86011  Biso   1.000  H
  H61      1.0000 0.30079  0.16247  0.82952  Biso   1.000  H
  C79      1.0000 0.30531  0.30887  0.88494  Biso   1.000  C
  C80      1.0000 0.27482  0.74286  0.85896  Biso   1.000  C
  C81      1.0000 0.38112  0.56401  0.89761  Biso   1.000  C
  C82      1.0000 0.34975  0.73897  0.93745  Biso   1.000  C
  H62      1.0000 0.40940  0.45077  0.86338  Biso   1.000  H
  C83      1.0000 0.32290  0.39085  0.91211  Biso   1.000  C
  C84      1.0000 0.37107  0.45127  0.93191  Biso   1.000  C
  H63      1.0000 0.28719  0.31746  0.89231  Biso   1.000  H
  C85      1.0000 0.28186  0.63142  0.88876  Biso   1.000  C
  C86      1.0000 0.29020  0.85580  0.86023  Biso   1.000  C
  C87      1.0000 0.32227  0.73767  0.91426  Biso   1.000  C
  H64      1.0000 0.35030  0.67985  0.96900  Biso   1.000  H
  H65      1.0000 0.35399  0.83064  0.94940  Biso   1.000  H
  C88      1.0000 0.31178  0.50040  0.94721  Biso   1.000  C
  H66      1.0000 0.36400  0.48822  0.96550  Biso   1.000  H
  H67      1.0000 0.38569  0.39085  0.94099  Biso   1.000  H
  C89      1.0000 0.30554  0.62712  0.91641  Biso   1.000  C
  H68      1.0000 0.27040  0.55702  0.89039  Biso   1.000  H
  H69      1.0000 0.28481  0.93519  0.84270  Biso   1.000  H
  C90      1.0000 0.31371  0.85141  0.88749  Biso   1.000  C
  H70      1.0000 0.32450  0.52157  0.97562  Biso   1.000  H
  H71      1.0000 0.29559  0.46745  0.96450  Biso   1.000  H
  H72      1.0000 0.32440  0.92890  0.88800  Biso   1.000  H
  C91      1.0000 0.47307  0.34791  0.63489  Biso   1.000  C
  C92      1.0000 0.48050  0.23487  0.60664  Biso   1.000  C
  C93      1.0000 0.45155  0.35101  0.66835  Biso   1.000  C
  H73      1.0000 0.48319  0.42670  0.63110  Biso   1.000  H
  C94      1.0000 0.46418  0.12203  0.60899  Biso   1.000  C
  C95      1.0000 0.50649  0.23787  0.57763  Biso   1.000  C
  C96      1.0000 0.43697  0.23557  0.67397  Biso   1.000  C
  H74      1.0000 0.44690  0.43030  0.68700  Biso   1.000  H
  C97      1.0000 0.44254  0.12493  0.64285  Biso   1.000  C
  C98      1.0000 0.46895  0.99660  0.57660  Biso   1.000  C
  C99      1.0000 0.52916  0.19333  0.61305  Biso   1.000  C
  H75      1.0000 0.50991  0.32984  0.56488  Biso   1.000  H
  H76      1.0000 0.50549  0.17875  0.54612  Biso   1.000  H
  O13      1.0000 0.41628  0.22059  0.70919  Biso   1.000  O
  H77      1.0000 0.43140  0.04933  0.64461  Biso   1.000  H
  H78      1.0000 0.48010  0.01897  0.54560  Biso   1.000  H
  C100     1.0000 0.48200  0.88656  0.60855  Biso   1.000  C
  H79      1.0000 0.45200  0.96325  0.56281  Biso   1.000  H
  C101     1.0000 0.53985  0.06461  0.61126  Biso   1.000  C
  C102     1.0000 0.53920  0.28510  0.64955  Biso   1.000  C
  C103     1.0000 0.41170  0.32425  0.74668  Biso   1.000  C
  C104     1.0000 0.50915  0.86878  0.61158  Biso   1.000  C
  C105     1.0000 0.46599  0.80318  0.63883  Biso   1.000  C
  C106     1.0000 0.52849  0.95047  0.57899  Biso   1.000  C
  C107     1.0000 0.56146  0.03685  0.64341  Biso   1.000  C
  H80      1.0000 0.53199  0.37248  0.65110  Biso   1.000  H
  C108     1.0000 0.55965  0.25065  0.68361  Biso   1.000  C
  O14      1.0000 0.43336  0.34841  0.78011  Biso   1.000  O
  H81      1.0000 0.40731  0.40733  0.72732  Biso   1.000  H
  H82      1.0000 0.39650  0.29998  0.76899  Biso   1.000  H
  C109     1.0000 0.51904  0.77382  0.64688  Biso   1.000  C
  C110     1.0000 0.47592  0.70981  0.67417  Biso   1.000  C
  H83      1.0000 0.44760  0.81057  0.63501  Biso   1.000  H
  H84      1.0000 0.54280  0.89175  0.56660  Biso   1.000  H
  H85      1.0000 0.51960  0.98692  0.54711  Biso   1.000  H
  C111     1.0000 0.57145  0.12702  0.67959  Biso   1.000  C
  H86      1.0000 0.56959  0.95197  0.64018  Biso   1.000  H
  O15      1.0000 0.56664  0.34841  0.71987  Biso   1.000  O
  C112     1.0000 0.44035  0.25065  0.81637  Biso   1.000  C
  H87      1.0000 0.53741  0.76083  0.64899  Biso   1.000  H
  C113     1.0000 0.50274  0.69792  0.67895  Biso   1.000  C
  H88      1.0000 0.46461  0.65518  0.69469  Biso   1.000  H
  H89      1.0000 0.58611  0.10485  0.70110  Biso   1.000  H
  C114     1.0000 0.58830  0.32425  0.75330  Biso   1.000  C
  C115     1.0000 0.46080  0.28510  0.85047  Biso   1.000  C
  C116     1.0000 0.42855  0.12702  0.82039  Biso   1.000  C
  O16      1.0000 0.51532  0.61344  0.71445  Biso   1.000  O
  O17      1.0000 0.58372  0.22059  0.79079  Biso   1.000  O
  H90      1.0000 0.59269  0.40733  0.77270  Biso   1.000  H
  H91      1.0000 0.60350  0.29998  0.73099  Biso   1.000  H
  C117     1.0000 0.47084  0.19333  0.88693  Biso   1.000  C
  H92      1.0000 0.46801  0.37248  0.84892  Biso   1.000  H
  H93      1.0000 0.41389  0.10485  0.79892  Biso   1.000  H
  C118     1.0000 0.43854  0.03685  0.85661  Biso   1.000  C
  C119     1.0000 0.50000  0.53665  0.74999  Biso   1.000  C
  C120     1.0000 0.56303  0.23557  0.82605  Biso   1.000  C
  C121     1.0000 0.46015  0.06461  0.88876  Biso   1.000  C
  C122     1.0000 0.49351  0.23787  0.92235  Biso   1.000  C
  H94      1.0000 0.43041  0.95197  0.85980  Biso   1.000  H
  O18      1.0000 0.48468  0.61344  0.78553  Biso   1.000  O
  H95      1.0000 0.48829  0.47833  0.72899  Biso   1.000  H
  H96      1.0000 0.51171  0.47833  0.77099  Biso   1.000  H
  C123     1.0000 0.55746  0.12493  0.85713  Biso   1.000  C
  C124     1.0000 0.54845  0.35101  0.83163  Biso   1.000  C
  C125     1.0000 0.47151  0.95047  0.92103  Biso   1.000  C
  H97      1.0000 0.49009  0.32984  0.93510  Biso   1.000  H
  H98      1.0000 0.49451  0.17875  0.95390  Biso   1.000  H
  C126     1.0000 0.51950  0.23487  0.89334  Biso   1.000  C
  C127     1.0000 0.49726  0.69792  0.82103  Biso   1.000  C
  C128     1.0000 0.53582  0.12203  0.89099  Biso   1.000  C
  H99      1.0000 0.56860  0.04933  0.85541  Biso   1.000  H
  C129     1.0000 0.52693  0.34791  0.86509  Biso   1.000  C
  H100     1.0000 0.55310  0.43030  0.81298  Biso   1.000  H
  C130     1.0000 0.49085  0.86878  0.88844  Biso   1.000  C
  H101     1.0000 0.45720  0.89175  0.93338  Biso   1.000  H
  H102     1.0000 0.48040  0.98692  0.95291  Biso   1.000  H
  C131     1.0000 0.48096  0.77382  0.85310  Biso   1.000  C
  C132     1.0000 0.52408  0.70981  0.82581  Biso   1.000  C
  C133     1.0000 0.53105  0.99660  0.92338  Biso   1.000  C
  H103     1.0000 0.51681  0.42670  0.86892  Biso   1.000  H
  C134     1.0000 0.51800  0.88656  0.89143  Biso   1.000  C
  H104     1.0000 0.46259  0.76083  0.85099  Biso   1.000  H
  H105     1.0000 0.53539  0.65518  0.80529  Biso   1.000  H
  C135     1.0000 0.53401  0.80318  0.86119  Biso   1.000  C
  H106     1.0000 0.51990  0.01897  0.95438  Biso   1.000  H
  H107     1.0000 0.54800  0.96325  0.93721  Biso   1.000  H
  H108     1.0000 0.55240  0.81057  0.86501  Biso   1.000  H
  C136     1.0000 0.46080  0.71490  0.35045  Biso   1.000  C
  C137     1.0000 0.44035  0.74945  0.31639  Biso   1.000  C
  C138     1.0000 0.47084  0.80677  0.38695  Biso   1.000  C
  H109     1.0000 0.46801  0.62752  0.34890  Biso   1.000  H
  O19      1.0000 0.43336  0.65159  0.28013  Biso   1.000  O
  C139     1.0000 0.42855  0.87308  0.32041  Biso   1.000  C
  C140     1.0000 0.46015  0.93539  0.38874  Biso   1.000  C
  C141     1.0000 0.49351  0.76213  0.42237  Biso   1.000  C
  C142     1.0000 0.41170  0.67585  0.24670  Biso   1.000  C
  H110     1.0000 0.41389  0.89525  0.29890  Biso   1.000  H
  C143     1.0000 0.43854  0.96325  0.35659  Biso   1.000  C
  C144     1.0000 0.47151  0.04953  0.42101  Biso   1.000  C
  H111     1.0000 0.49009  0.67026  0.43512  Biso   1.000  H
  H112     1.0000 0.49451  0.82135  0.45388  Biso   1.000  H
  C145     1.0000 0.51950  0.76513  0.39336  Biso   1.000  C
  O20      1.0000 0.41628  0.77941  0.20921  Biso   1.000  O
  H113     1.0000 0.40731  0.59277  0.22730  Biso   1.000  H
  H114     1.0000 0.39650  0.70002  0.26901  Biso   1.000  H
  H115     1.0000 0.43041  0.04803  0.35982  Biso   1.000  H
  C146     1.0000 0.49085  0.13122  0.38842  Biso   1.000  C
  H116     1.0000 0.45720  0.10825  0.43340  Biso   1.000  H
  H117     1.0000 0.48040  0.01318  0.45289  Biso   1.000  H
  C147     1.0000 0.53582  0.87807  0.39101  Biso   1.000  C
  C148     1.0000 0.52693  0.65209  0.36511  Biso   1.000  C
  C149     1.0000 0.43697  0.76443  0.17395  Biso   1.000  C
  C150     1.0000 0.51800  0.11344  0.39145  Biso   1.000  C
  C151     1.0000 0.48096  0.22628  0.35312  Biso   1.000  C
  C152     1.0000 0.55746  0.87517  0.35715  Biso   1.000  C
  C153     1.0000 0.53105  0.00340  0.42340  Biso   1.000  C
  C154     1.0000 0.54845  0.64899  0.33165  Biso   1.000  C
  H118     1.0000 0.51681  0.57330  0.36890  Biso   1.000  H
  C155     1.0000 0.44254  0.87517  0.14287  Biso   1.000  C
  C156     1.0000 0.45155  0.64899  0.16837  Biso   1.000  C
  C157     1.0000 0.53401  0.19682  0.36117  Biso   1.000  C
  H119     1.0000 0.46259  0.23927  0.35101  Biso   1.000  H
  C158     1.0000 0.49726  0.30218  0.32105  Biso   1.000  C
  H120     1.0000 0.56860  0.95077  0.35539  Biso   1.000  H
  C159     1.0000 0.56303  0.76443  0.32603  Biso   1.000  C
  H121     1.0000 0.51990  0.98103  0.45440  Biso   1.000  H
  H122     1.0000 0.54800  0.03675  0.43719  Biso   1.000  H
  H123     1.0000 0.55310  0.56970  0.31300  Biso   1.000  H
  C160     1.0000 0.46418  0.87807  0.10901  Biso   1.000  C
  H124     1.0000 0.43140  0.95077  0.14459  Biso   1.000  H
  H125     1.0000 0.44690  0.56970  0.18702  Biso   1.000  H
  C161     1.0000 0.47307  0.65209  0.13491  Biso   1.000  C
  C162     1.0000 0.52408  0.29029  0.32583  Biso   1.000  C
  H126     1.0000 0.55240  0.18943  0.36499  Biso   1.000  H
  O21      1.0000 0.48468  0.38656  0.28555  Biso   1.000  O
  O22      1.0000 0.58372  0.77941  0.29081  Biso   1.000  O
  C163     1.0000 0.48050  0.76513  0.10666  Biso   1.000  C
  C164     1.0000 0.46895  0.00340  0.07662  Biso   1.000  C
  H127     1.0000 0.48319  0.57330  0.13108  Biso   1.000  H
  H128     1.0000 0.53539  0.34482  0.30531  Biso   1.000  H
  C165     1.0000 0.50000  0.46335  0.25001  Biso   1.000  C
  C166     1.0000 0.58830  0.67585  0.25332  Biso   1.000  C
  C167     1.0000 0.50649  0.76213  0.07765  Biso   1.000  C
  H129     1.0000 0.48010  0.98103  0.04562  Biso   1.000  H
  C168     1.0000 0.48200  0.11344  0.10857  Biso   1.000  C
  H130     1.0000 0.45200  0.03675  0.06279  Biso   1.000  H
  O23      1.0000 0.51532  0.38656  0.21447  Biso   1.000  O
  H131     1.0000 0.51171  0.52167  0.27101  Biso   1.000  H
  H132     1.0000 0.48829  0.52167  0.22901  Biso   1.000  H
  O24      1.0000 0.56664  0.65159  0.21989  Biso   1.000  O
  H133     1.0000 0.59269  0.59277  0.27268  Biso   1.000  H
  H134     1.0000 0.60350  0.70002  0.23101  Biso   1.000  H
  C169     1.0000 0.52916  0.80677  0.11307  Biso   1.000  C
  H135     1.0000 0.50991  0.67026  0.06490  Biso   1.000  H
  H136     1.0000 0.50549  0.82135  0.04610  Biso   1.000  H
  C170     1.0000 0.50915  0.13122  0.11156  Biso   1.000  C
  C171     1.0000 0.46599  0.19682  0.13881  Biso   1.000  C
  C172     1.0000 0.50274  0.30218  0.17897  Biso   1.000  C
  C173     1.0000 0.55965  0.74945  0.18363  Biso   1.000  C
  C174     1.0000 0.53985  0.93539  0.11124  Biso   1.000  C
  C175     1.0000 0.53920  0.71490  0.14953  Biso   1.000  C
  C176     1.0000 0.51904  0.22628  0.14690  Biso   1.000  C
  C177     1.0000 0.52849  0.04953  0.07897  Biso   1.000  C
  C178     1.0000 0.47592  0.29029  0.17419  Biso   1.000  C
  H137     1.0000 0.44760  0.18943  0.13499  Biso   1.000  H
  C179     1.0000 0.57145  0.87308  0.17961  Biso   1.000  C
  C180     1.0000 0.56146  0.96325  0.14339  Biso   1.000  C
  H138     1.0000 0.53199  0.62752  0.15108  Biso   1.000  H
  H139     1.0000 0.53741  0.23927  0.14901  Biso   1.000  H
  H140     1.0000 0.54280  0.10825  0.06662  Biso   1.000  H
  H141     1.0000 0.51960  0.01318  0.04709  Biso   1.000  H
  H142     1.0000 0.46461  0.34482  0.19471  Biso   1.000  H
  H143     1.0000 0.58611  0.89525  0.20108  Biso   1.000  H
  H144     1.0000 0.56959  0.04803  0.14020  Biso   1.000  H
  C181     1.0000 0.59887  0.53575  0.63843  Biso   1.000  C
  C182     1.0000 0.61888  0.56401  0.60237  Biso   1.000  C
  C183     1.0000 0.59053  0.62532  0.67652  Biso   1.000  C
  H145     1.0000 0.59060  0.45077  0.63660  Biso   1.000  H
  C184     1.0000 0.62959  0.69303  0.60241  Biso   1.000  C
  C185     1.0000 0.62893  0.45127  0.56807  Biso   1.000  C
  C186     1.0000 0.60247  0.74925  0.67855  Biso   1.000  C
  H146     1.0000 0.57700  0.60266  0.70071  Biso   1.000  H
  C187     1.0000 0.62113  0.78370  0.64078  Biso   1.000  C
  C188     1.0000 0.65025  0.73897  0.56257  Biso   1.000  C
  C189     1.0000 0.65021  0.37228  0.59664  Biso   1.000  C
  H147     1.0000 0.63600  0.48822  0.53448  Biso   1.000  H
  H148     1.0000 0.61431  0.39085  0.55899  Biso   1.000  H
  O25      1.0000 0.59717  0.84691  0.71616  Biso   1.000  O
  H149     1.0000 0.62830  0.87138  0.64110  Biso   1.000  H
  H150     1.0000 0.64970  0.67985  0.53102  Biso   1.000  H
  H151     1.0000 0.64601  0.83064  0.55062  Biso   1.000  H
  C190     1.0000 0.67773  0.73767  0.58572  Biso   1.000  C
  C191     1.0000 0.67710  0.39085  0.58791  Biso   1.000  C
  C192     1.0000 0.64232  0.27681  0.63397  Biso   1.000  C
  C193     1.0000 0.57745  0.82155  0.75409  Biso   1.000  C
  C194     1.0000 0.69446  0.62712  0.58357  Biso   1.000  C
  C195     1.0000 0.68629  0.85141  0.61249  Biso   1.000  C
  C196     1.0000 0.68822  0.50040  0.55281  Biso   1.000  C
  C197     1.0000 0.69469  0.30887  0.61508  Biso   1.000  C
  H152     1.0000 0.62420  0.26283  0.63991  Biso   1.000  H
  C198     1.0000 0.66030  0.20212  0.66258  Biso   1.000  C
  O26      1.0000 0.58437  0.71899  0.79055  Biso   1.000  O
  H153     1.0000 0.56119  0.79549  0.73529  Biso   1.000  H
  H154     1.0000 0.57380  0.90453  0.77421  Biso   1.000  H
  C199     1.0000 0.71814  0.63142  0.61122  Biso   1.000  C
  C200     1.0000 0.70980  0.85580  0.63979  Biso   1.000  C
  H155     1.0000 0.67560  0.92890  0.61202  Biso   1.000  H
  H156     1.0000 0.67550  0.52157  0.52440  Biso   1.000  H
  H157     1.0000 0.70441  0.46745  0.53552  Biso   1.000  H
  C201     1.0000 0.68676  0.21600  0.65230  Biso   1.000  C
  H158     1.0000 0.71281  0.31746  0.60771  Biso   1.000  H
  O27      1.0000 0.64951  0.11654  0.70003  Biso   1.000  O
  C202     1.0000 0.60673  0.73637  0.82103  Biso   1.000  C
  H159     1.0000 0.72960  0.55702  0.60959  Biso   1.000  H
  C203     1.0000 0.72518  0.74286  0.64106  Biso   1.000  C
  H160     1.0000 0.71519  0.93519  0.65732  Biso   1.000  H
  H161     1.0000 0.69921  0.16247  0.67050  Biso   1.000  H
  C204     1.0000 0.66657  0.03994  0.73234  Biso   1.000  C
  C205     1.0000 0.62152  0.85181  0.82206  Biso   1.000  C
  C206     1.0000 0.61409  0.62722  0.85167  Biso   1.000  C
  O28      1.0000 0.74803  0.73018  0.67066  Biso   1.000  O
  O29      1.0000 0.68345  0.11724  0.76433  Biso   1.000  O
  H162     1.0000 0.65600  0.98163  0.75569  Biso   1.000  H
  H163     1.0000 0.67720  0.98163  0.70911  Biso   1.000  H
  C207     1.0000 0.64476  0.85081  0.85039  Biso   1.000  C
  H164     1.0000 0.61589  0.92980  0.80390  Biso   1.000  H
  C208     1.0000 0.63763  0.62662  0.88000  Biso   1.000  C
  H165     1.0000 0.60290  0.55153  0.85350  Biso   1.000  H
  C209     1.0000 0.75381  0.83323  0.70792  Biso   1.000  C
  C210     1.0000 0.67265  0.20302  0.80186  Biso   1.000  C
  C211     1.0000 0.65389  0.73897  0.87745  Biso   1.000  C
  H166     1.0000 0.65490  0.93010  0.85139  Biso   1.000  H
  C212     1.0000 0.64458  0.50160  0.91099  Biso   1.000  C
  O30      1.0000 0.73356  0.85500  0.74493  Biso   1.000  O
  H167     1.0000 0.76999  0.80947  0.72740  Biso   1.000  H
  H168     1.0000 0.75719  0.91712  0.68831  Biso   1.000  H
  C213     1.0000 0.69057  0.28001  0.82971  Biso   1.000  C
  C214     1.0000 0.64626  0.21440  0.81254  Biso   1.000  C
  C215     1.0000 0.68148  0.74396  0.89992  Biso   1.000  C
  C216     1.0000 0.65566  0.39185  0.87605  Biso   1.000  C
  H169     1.0000 0.65760  0.52477  0.93880  Biso   1.000  H
  H170     1.0000 0.62869  0.46785  0.92920  Biso   1.000  H
  C217     1.0000 0.72848  0.75694  0.78266  Biso   1.000  C
  C218     1.0000 0.68263  0.37507  0.86661  Biso   1.000  C
  H171     1.0000 0.70870  0.26743  0.82342  Biso   1.000  H
  H172     1.0000 0.63389  0.15958  0.79469  Biso   1.000  H
  C219     1.0000 0.63831  0.30757  0.84979  Biso   1.000  C
  H173     1.0000 0.68250  0.68554  0.93171  Biso   1.000  H
  H174     1.0000 0.68541  0.83633  0.91139  Biso   1.000  H
  C220     1.0000 0.70194  0.69922  0.85932  Biso   1.000  C
  C221     1.0000 0.74066  0.63401  0.78417  Biso   1.000  C
  C222     1.0000 0.70994  0.79069  0.82067  Biso   1.000  C
  C223     1.0000 0.70372  0.45736  0.89422  Biso   1.000  C
  H175     1.0000 0.62019  0.31456  0.85780  Biso   1.000  H
  C224     1.0000 0.71300  0.57110  0.85916  Biso   1.000  C
  C225     1.0000 0.73278  0.54394  0.82266  Biso   1.000  C
  H176     1.0000 0.75410  0.61204  0.75951  Biso   1.000  H
  H177     1.0000 0.70251  0.87777  0.82039  Biso   1.000  H
  H178     1.0000 0.69670  0.49391  0.92801  Biso   1.000  H
  H179     1.0000 0.71869  0.39894  0.90310  Biso   1.000  H
  H180     1.0000 0.74130  0.45966  0.82430  Biso   1.000  H
  C226     1.0000 0.25381  0.66687  0.29208  Biso   1.000  C
  O31      1.0000 0.23356  0.64510  0.25507  Biso   1.000  O
  O32      1.0000 0.24803  0.76992  0.32934  Biso   1.000  O
  H181     1.0000 0.26999  0.69063  0.27260  Biso   1.000  H
  H182     1.0000 0.25719  0.58288  0.31169  Biso   1.000  H
  C227     1.0000 0.22848  0.74316  0.21734  Biso   1.000  C
  C228     1.0000 0.22518  0.75724  0.35894  Biso   1.000  C
  C229     1.0000 0.24066  0.86599  0.21583  Biso   1.000  C
  C230     1.0000 0.20994  0.70931  0.17933  Biso   1.000  C
  C231     1.0000 0.21814  0.86868  0.38878  Biso   1.000  C
  C232     1.0000 0.20980  0.64420  0.36021  Biso   1.000  C
  C233     1.0000 0.23278  0.95616  0.17734  Biso   1.000  C
  H183     1.0000 0.25410  0.88806  0.24049  Biso   1.000  H
  C234     1.0000 0.20194  0.80088  0.14068  Biso   1.000  C
  H184     1.0000 0.20251  0.62233  0.17961  Biso   1.000  H
  C235     1.0000 0.19446  0.87298  0.41643  Biso   1.000  C
  H185     1.0000 0.22960  0.94308  0.39041  Biso   1.000  H
  H186     1.0000 0.21519  0.56481  0.34268  Biso   1.000  H
  C236     1.0000 0.18629  0.64859  0.38751  Biso   1.000  C
  C237     1.0000 0.21300  0.92890  0.14084  Biso   1.000  C
  H187     1.0000 0.24130  0.04044  0.17570  Biso   1.000  H
  C238     1.0000 0.18148  0.75614  0.10008  Biso   1.000  C
  C239     1.0000 0.17773  0.76243  0.41428  Biso   1.000  C
  C240     1.0000 0.18822  0.99960  0.44719  Biso   1.000  C
  H188     1.0000 0.17560  0.57110  0.38798  Biso   1.000  H
  C241     1.0000 0.20372  0.04274  0.10578  Biso   1.000  C
  C242     1.0000 0.15389  0.76113  0.12255  Biso   1.000  C
  H189     1.0000 0.18250  0.81456  0.06829  Biso   1.000  H
  H190     1.0000 0.18541  0.66377  0.08861  Biso   1.000  H
  C243     1.0000 0.15025  0.76113  0.43743  Biso   1.000  C
  H191     1.0000 0.17550  0.97853  0.47560  Biso   1.000  H
  H192     1.0000 0.20441  0.03265  0.46448  Biso   1.000  H
  C244     1.0000 0.17710  0.10925  0.41209  Biso   1.000  C
  C245     1.0000 0.18263  0.12493  0.13339  Biso   1.000  C
  H193     1.0000 0.19670  0.00609  0.07199  Biso   1.000  H
  H194     1.0000 0.21869  0.10116  0.09690  Biso   1.000  H
  C246     1.0000 0.13763  0.87348  0.12000  Biso   1.000  C
  C247     1.0000 0.14476  0.64919  0.14961  Biso   1.000  C
  C248     1.0000 0.12959  0.80707  0.39759  Biso   1.000  C
  H195     1.0000 0.14970  0.82025  0.46898  Biso   1.000  H
  H196     1.0000 0.14601  0.66946  0.44938  Biso   1.000  H
  C249     1.0000 0.15021  0.12772  0.40336  Biso   1.000  C
  C250     1.0000 0.19469  0.19113  0.38492  Biso   1.000  C
  C251     1.0000 0.15566  0.10825  0.12395  Biso   1.000  C
  C252     1.0000 0.19057  0.22009  0.17029  Biso   1.000  C
  C253     1.0000 0.14458  0.99840  0.08901  Biso   1.000  C
  C254     1.0000 0.11409  0.87288  0.14833  Biso   1.000  C
  H197     1.0000 0.15490  0.56990  0.14861  Biso   1.000  H
  C255     1.0000 0.12152  0.64819  0.17794  Biso   1.000  C
  C256     1.0000 0.11888  0.93599  0.39763  Biso   1.000  C
  C257     1.0000 0.12113  0.71630  0.35922  Biso   1.000  C
  C258     1.0000 0.14232  0.22329  0.36603  Biso   1.000  C
  C259     1.0000 0.12893  0.04873  0.43193  Biso   1.000  C
  C260     1.0000 0.18676  0.28400  0.34770  Biso   1.000  C
  H198     1.0000 0.21281  0.18264  0.39229  Biso   1.000  H
  C261     1.0000 0.13831  0.19243  0.15021  Biso   1.000  C
  H199     1.0000 0.20870  0.23267  0.17658  Biso   1.000  H
  C262     1.0000 0.17265  0.29708  0.19814  Biso   1.000  C
  H200     1.0000 0.15760  0.97533  0.06120  Biso   1.000  H
  H201     1.0000 0.12869  0.03225  0.07080  Biso   1.000  H
  C263     1.0000 0.10673  0.76373  0.17897  Biso   1.000  C
  H202     1.0000 0.10290  0.94857  0.14650  Biso   1.000  H
  H203     1.0000 0.11589  0.57020  0.19610  Biso   1.000  H
  C264     1.0000 0.09887  0.96435  0.36157  Biso   1.000  C
  H204     1.0000 0.12830  0.62872  0.35890  Biso   1.000  H
  C265     1.0000 0.10247  0.75085  0.32145  Biso   1.000  C
  H205     1.0000 0.12420  0.23727  0.36009  Biso   1.000  H
  C266     1.0000 0.16030  0.29798  0.33742  Biso   1.000  C
  H206     1.0000 0.13600  0.01188  0.46552  Biso   1.000  H
  H207     1.0000 0.11431  0.10925  0.44101  Biso   1.000  H
  H208     1.0000 0.19921  0.33753  0.32950  Biso   1.000  H
  C267     1.0000 0.14626  0.28570  0.18746  Biso   1.000  C
  H209     1.0000 0.12019  0.18554  0.14220  Biso   1.000  H
  O33      1.0000 0.18345  0.38276  0.23567  Biso   1.000  O
  O34      1.0000 0.08437  0.78111  0.20945  Biso   1.000  O
  C268     1.0000 0.09053  0.87478  0.32348  Biso   1.000  C
  H210     1.0000 0.09060  0.04923  0.36340  Biso   1.000  H
  O35      1.0000 0.09717  0.65319  0.28384  Biso   1.000  O
  O36      1.0000 0.14951  0.38356  0.29997  Biso   1.000  O
  H211     1.0000 0.13389  0.34042  0.20531  Biso   1.000  H
  C269     1.0000 0.16657  0.46016  0.26766  Biso   1.000  C
  C270     1.0000 0.07745  0.67855  0.24591  Biso   1.000  C
  H212     1.0000 0.07700  0.89744  0.29929  Biso   1.000  H
  H213     1.0000 0.15600  0.51847  0.24431  Biso   1.000  H
  H214     1.0000 0.17720  0.51847  0.29089  Biso   1.000  H
  H215     1.0000 0.06119  0.70451  0.26471  Biso   1.000  H
  H216     1.0000 0.07380  0.59557  0.22579  Biso   1.000  H
  O37      1.0000 0.58437  0.28111  0.29057  Biso   1.000  O
  C271     1.0000 0.57745  0.17855  0.25411  Biso   1.000  C
  C272     1.0000 0.60673  0.26373  0.32101  Biso   1.000  C
  O38      1.0000 0.59717  0.15309  0.21618  Biso   1.000  O
  H217     1.0000 0.56119  0.20451  0.23531  Biso   1.000  H
  H218     1.0000 0.57380  0.09547  0.27419  Biso   1.000  H
  C273     1.0000 0.62152  0.14819  0.32208  Biso   1.000  C
  C274     1.0000 0.61409  0.37278  0.35169  Biso   1.000  C
  C275     1.0000 0.60247  0.25085  0.17853  Biso   1.000  C
  C276     1.0000 0.64476  0.14919  0.35037  Biso   1.000  C
  H219     1.0000 0.61589  0.07020  0.30392  Biso   1.000  H
  C277     1.0000 0.63763  0.37338  0.37998  Biso   1.000  C
  H220     1.0000 0.60290  0.44847  0.35348  Biso   1.000  H
  C278     1.0000 0.62113  0.21630  0.14076  Biso   1.000  C
  C279     1.0000 0.59053  0.37468  0.17654  Biso   1.000  C
  C280     1.0000 0.65389  0.26113  0.37747  Biso   1.000  C
  H221     1.0000 0.65490  0.06990  0.35141  Biso   1.000  H
  C281     1.0000 0.64458  0.49840  0.41101  Biso   1.000  C
  C282     1.0000 0.62959  0.30697  0.10243  Biso   1.000  C
  H222     1.0000 0.62830  0.12872  0.14108  Biso   1.000  H
  H223     1.0000 0.57700  0.39744  0.20069  Biso   1.000  H
  C283     1.0000 0.59887  0.46435  0.13841  Biso   1.000  C
  C284     1.0000 0.68148  0.25614  0.39990  Biso   1.000  C
  C285     1.0000 0.65566  0.60825  0.37607  Biso   1.000  C
  H224     1.0000 0.65760  0.47533  0.43878  Biso   1.000  H
  H225     1.0000 0.62869  0.53225  0.42918  Biso   1.000  H
  C286     1.0000 0.61888  0.43599  0.10239  Biso   1.000  C
  C287     1.0000 0.65025  0.26113  0.06255  Biso   1.000  C
  H226     1.0000 0.59060  0.54923  0.13662  Biso   1.000  H
  H227     1.0000 0.68250  0.31456  0.43169  Biso   1.000  H
  H228     1.0000 0.68541  0.16367  0.41141  Biso   1.000  H
  C288     1.0000 0.70194  0.30078  0.35934  Biso   1.000  C
  C289     1.0000 0.68263  0.62493  0.36663  Biso   1.000  C
  C290     1.0000 0.63831  0.69243  0.34977  Biso   1.000  C
  C291     1.0000 0.62893  0.54873  0.06809  Biso   1.000  C
  H229     1.0000 0.64970  0.32025  0.03100  Biso   1.000  H
  H230     1.0000 0.64601  0.16936  0.05060  Biso   1.000  H
  C292     1.0000 0.67773  0.26243  0.08574  Biso   1.000  C
  C293     1.0000 0.71300  0.42890  0.35914  Biso   1.000  C
  C294     1.0000 0.70994  0.20931  0.32069  Biso   1.000  C
  C295     1.0000 0.69057  0.71999  0.32973  Biso   1.000  C
  C296     1.0000 0.70372  0.54274  0.39424  Biso   1.000  C
  C297     1.0000 0.64626  0.78560  0.31252  Biso   1.000  C
  H231     1.0000 0.62019  0.68554  0.35778  Biso   1.000  H
  C298     1.0000 0.65021  0.62772  0.09666  Biso   1.000  C
  H232     1.0000 0.63600  0.51178  0.03450  Biso   1.000  H
  H233     1.0000 0.61431  0.60925  0.05901  Biso   1.000  H
  C299     1.0000 0.69446  0.37288  0.08359  Biso   1.000  C
  C300     1.0000 0.68629  0.14859  0.11251  Biso   1.000  C
  C301     1.0000 0.73278  0.45616  0.32268  Biso   1.000  C
  C302     1.0000 0.72848  0.24316  0.28264  Biso   1.000  C
  H234     1.0000 0.70251  0.12233  0.32041  Biso   1.000  H
  H235     1.0000 0.70870  0.73267  0.32340  Biso   1.000  H
  C303     1.0000 0.67265  0.79698  0.30184  Biso   1.000  C
  H236     1.0000 0.69670  0.50609  0.42799  Biso   1.000  H
  H237     1.0000 0.71869  0.60116  0.40308  Biso   1.000  H
  H238     1.0000 0.63389  0.84042  0.29471  Biso   1.000  H
  C304     1.0000 0.67710  0.60925  0.08789  Biso   1.000  C
  C305     1.0000 0.64232  0.72319  0.13395  Biso   1.000  C
  C306     1.0000 0.71814  0.36858  0.11124  Biso   1.000  C
  C307     1.0000 0.68822  0.49960  0.05279  Biso   1.000  C
  C308     1.0000 0.70980  0.14420  0.13977  Biso   1.000  C
  H239     1.0000 0.67560  0.07110  0.11200  Biso   1.000  H
  H240     1.0000 0.74130  0.54044  0.32432  Biso   1.000  H
  C309     1.0000 0.74066  0.36599  0.28419  Biso   1.000  C
  O39      1.0000 0.73356  0.14500  0.24491  Biso   1.000  O
  O40      1.0000 0.68345  0.88276  0.26435  Biso   1.000  O
  C310     1.0000 0.69469  0.69113  0.11506  Biso   1.000  C
  H241     1.0000 0.62420  0.73727  0.13989  Biso   1.000  H
  C311     1.0000 0.66030  0.79788  0.16256  Biso   1.000  C
  H242     1.0000 0.72960  0.44298  0.10961  Biso   1.000  H
  C312     1.0000 0.72518  0.25724  0.14104  Biso   1.000  C
  H243     1.0000 0.67550  0.47853  0.02438  Biso   1.000  H
  H244     1.0000 0.70441  0.53265  0.03550  Biso   1.000  H
  H245     1.0000 0.71519  0.06481  0.15730  Biso   1.000  H
  H246     1.0000 0.75410  0.38806  0.25949  Biso   1.000  H
  C313     1.0000 0.75381  0.16677  0.20790  Biso   1.000  C
  C314     1.0000 0.66657  0.96016  0.23236  Biso   1.000  C
  C315     1.0000 0.68676  0.78400  0.15228  Biso   1.000  C
  H247     1.0000 0.71281  0.68264  0.10769  Biso   1.000  H
  O41      1.0000 0.64951  0.88356  0.20001  Biso   1.000  O
  O42      1.0000 0.74803  0.26982  0.17064  Biso   1.000  O
  H248     1.0000 0.76999  0.19063  0.22742  Biso   1.000  H
  H249     1.0000 0.75719  0.08288  0.18829  Biso   1.000  H
  H250     1.0000 0.65600  0.01847  0.25571  Biso   1.000  H
  H251     1.0000 0.67720  0.01847  0.20909  Biso   1.000  H
  H252     1.0000 0.69921  0.83753  0.17048  Biso   1.000  H
  C316     1.0000 0.24066  0.13401  0.71581  Biso   1.000  C
  C317     1.0000 0.23278  0.04394  0.67732  Biso   1.000  C
  C318     1.0000 0.22848  0.25694  0.71736  Biso   1.000  C
  H253     1.0000 0.25410  0.11204  0.74051  Biso   1.000  H
  C319     1.0000 0.21300  0.07110  0.64086  Biso   1.000  C
  H254     1.0000 0.24130  0.95956  0.67568  Biso   1.000  H
  C320     1.0000 0.20994  0.29069  0.67931  Biso   1.000  C
  O43      1.0000 0.23356  0.35500  0.75509  Biso   1.000  O
  C321     1.0000 0.20194  0.19922  0.64066  Biso   1.000  C
  C322     1.0000 0.20372  0.95726  0.60576  Biso   1.000  C
  H255     1.0000 0.20251  0.37767  0.67959  Biso   1.000  H
  C323     1.0000 0.25381  0.33323  0.79210  Biso   1.000  C
  C324     1.0000 0.18148  0.24396  0.60010  Biso   1.000  C
  C325     1.0000 0.18263  0.87507  0.63337  Biso   1.000  C
  H256     1.0000 0.19670  0.99391  0.57201  Biso   1.000  H
  H257     1.0000 0.21869  0.89894  0.59692  Biso   1.000  H
  O44      1.0000 0.24803  0.23018  0.82936  Biso   1.000  O
  H258     1.0000 0.26999  0.30937  0.77258  Biso   1.000  H
  H259     1.0000 0.25719  0.41712  0.81171  Biso   1.000  H
  C326     1.0000 0.15389  0.23887  0.62253  Biso   1.000  C
  H260     1.0000 0.18250  0.18554  0.56831  Biso   1.000  H
  H261     1.0000 0.18541  0.33633  0.58859  Biso   1.000  H
  C327     1.0000 0.15566  0.89175  0.62393  Biso   1.000  C
  C328     1.0000 0.19057  0.78001  0.67027  Biso   1.000  C
  C329     1.0000 0.22518  0.24276  0.85896  Biso   1.000  C
  C330     1.0000 0.13763  0.12662  0.62002  Biso   1.000  C
  C331     1.0000 0.14476  0.35081  0.64963  Biso   1.000  C
  C332     1.0000 0.14458  0.00160  0.58899  Biso   1.000  C
  C333     1.0000 0.13831  0.80757  0.65023  Biso   1.000  C
  H262     1.0000 0.20870  0.76743  0.67660  Biso   1.000  H
  C334     1.0000 0.17265  0.70302  0.69816  Biso   1.000  C
  C335     1.0000 0.21814  0.13142  0.88876  Biso   1.000  C
  C336     1.0000 0.20980  0.35580  0.86023  Biso   1.000  C
  C337     1.0000 0.11409  0.12722  0.64831  Biso   1.000  C
  H263     1.0000 0.15490  0.43010  0.64859  Biso   1.000  H
  C338     1.0000 0.12152  0.35181  0.67792  Biso   1.000  C
  H264     1.0000 0.15760  0.02467  0.56122  Biso   1.000  H
  H265     1.0000 0.12869  0.96785  0.57082  Biso   1.000  H
  C339     1.0000 0.14626  0.71440  0.68748  Biso   1.000  C
  H266     1.0000 0.12019  0.81446  0.64222  Biso   1.000  H
  O45      1.0000 0.18345  0.61724  0.73565  Biso   1.000  O
  C340     1.0000 0.19446  0.12712  0.91641  Biso   1.000  C
  H267     1.0000 0.22960  0.05702  0.89039  Biso   1.000  H
  H268     1.0000 0.21519  0.43519  0.84270  Biso   1.000  H
  C341     1.0000 0.18629  0.35141  0.88749  Biso   1.000  C
  C342     1.0000 0.10673  0.23627  0.67899  Biso   1.000  C
  H269     1.0000 0.10290  0.05153  0.64652  Biso   1.000  H
  H270     1.0000 0.11589  0.42980  0.69608  Biso   1.000  H
  H271     1.0000 0.13389  0.65958  0.70529  Biso   1.000  H
  C343     1.0000 0.16657  0.53984  0.76764  Biso   1.000  C
  C344     1.0000 0.17773  0.23757  0.91426  Biso   1.000  C
  C345     1.0000 0.18822  0.00040  0.94721  Biso   1.000  C
  H272     1.0000 0.17560  0.42890  0.88800  Biso   1.000  H
  O46      1.0000 0.08437  0.21889  0.70943  Biso   1.000  O
  O47      1.0000 0.14951  0.61654  0.79999  Biso   1.000  O
  H273     1.0000 0.15600  0.48163  0.74429  Biso   1.000  H
  H274     1.0000 0.17720  0.48163  0.79091  Biso   1.000  H
  C346     1.0000 0.15025  0.23887  0.93745  Biso   1.000  C
  H275     1.0000 0.17550  0.02147  0.97562  Biso   1.000  H
  H276     1.0000 0.20441  0.96745  0.96450  Biso   1.000  H
  C347     1.0000 0.17710  0.89075  0.91211  Biso   1.000  C
  C348     1.0000 0.07745  0.32155  0.74589  Biso   1.000  C
  C349     1.0000 0.16030  0.70212  0.83744  Biso   1.000  C
  C350     1.0000 0.12959  0.19303  0.89757  Biso   1.000  C
  H277     1.0000 0.14970  0.17985  0.96900  Biso   1.000  H
  H278     1.0000 0.14601  0.33064  0.94940  Biso   1.000  H
  C351     1.0000 0.15021  0.87228  0.90334  Biso   1.000  C
  C352     1.0000 0.19469  0.80887  0.88494  Biso   1.000  C
  O48      1.0000 0.09717  0.34691  0.78382  Biso   1.000  O
  H279     1.0000 0.06119  0.29549  0.76469  Biso   1.000  H
  H280     1.0000 0.07380  0.40453  0.72581  Biso   1.000  H
  C353     1.0000 0.14232  0.77681  0.86605  Biso   1.000  C
  C354     1.0000 0.18676  0.71600  0.84772  Biso   1.000  C
  C355     1.0000 0.12113  0.28370  0.85924  Biso   1.000  C
  C356     1.0000 0.11888  0.06401  0.89761  Biso   1.000  C
  C357     1.0000 0.12893  0.95127  0.93191  Biso   1.000  C
  H281     1.0000 0.21281  0.81736  0.89231  Biso   1.000  H
  C358     1.0000 0.10247  0.24925  0.82147  Biso   1.000  C
  H282     1.0000 0.12420  0.76283  0.86011  Biso   1.000  H
  H283     1.0000 0.19921  0.66247  0.82952  Biso   1.000  H
  H284     1.0000 0.12830  0.37128  0.85892  Biso   1.000  H
  C359     1.0000 0.09887  0.03575  0.86159  Biso   1.000  C
  H285     1.0000 0.13600  0.98822  0.96550  Biso   1.000  H
  H286     1.0000 0.11431  0.89075  0.94099  Biso   1.000  H
  C360     1.0000 0.09053  0.12532  0.82346  Biso   1.000  C
  H287     1.0000 0.09060  0.95077  0.86338  Biso   1.000  H
  H288     1.0000 0.07700  0.10256  0.79931  Biso   1.000  H
  C361     1.0000 0.74619  0.33323  0.70792  Biso   1.000  C
  O49      1.0000 0.75197  0.23018  0.67066  Biso   1.000  O
  O50      1.0000 0.76644  0.35500  0.74493  Biso   1.000  O
  H289     1.0000 0.73001  0.30937  0.72740  Biso   1.000  H
  H290     1.0000 0.74281  0.41712  0.68831  Biso   1.000  H
  C362     1.0000 0.77482  0.24276  0.64106  Biso   1.000  C
  C363     1.0000 0.77152  0.25694  0.78266  Biso   1.000  C
  C364     1.0000 0.78186  0.13142  0.61122  Biso   1.000  C
  C365     1.0000 0.79020  0.35580  0.63979  Biso   1.000  C
  C366     1.0000 0.75934  0.13401  0.78417  Biso   1.000  C
  C367     1.0000 0.79006  0.29069  0.82067  Biso   1.000  C
  C368     1.0000 0.80554  0.12712  0.58357  Biso   1.000  C
  H291     1.0000 0.77040  0.05702  0.60959  Biso   1.000  H
  H292     1.0000 0.78481  0.43519  0.65732  Biso   1.000  H
  C369     1.0000 0.81371  0.35141  0.61249  Biso   1.000  C
  C370     1.0000 0.76722  0.04394  0.82266  Biso   1.000  C
  H293     1.0000 0.74590  0.11204  0.75951  Biso   1.000  H
  C371     1.0000 0.79806  0.19922  0.85932  Biso   1.000  C
  H294     1.0000 0.79749  0.37767  0.82039  Biso   1.000  H
  C372     1.0000 0.82227  0.23757  0.58572  Biso   1.000  C
  C373     1.0000 0.81178  0.00040  0.55281  Biso   1.000  C
  H295     1.0000 0.82440  0.42890  0.61202  Biso   1.000  H
  C374     1.0000 0.78700  0.07110  0.85916  Biso   1.000  C
  H296     1.0000 0.75870  0.95956  0.82430  Biso   1.000  H
  C375     1.0000 0.81852  0.24396  0.89992  Biso   1.000  C
  C376     1.0000 0.84975  0.23887  0.56257  Biso   1.000  C
  H297     1.0000 0.82450  0.02147  0.52440  Biso   1.000  H
  H298     1.0000 0.79559  0.96745  0.53552  Biso   1.000  H
  C377     1.0000 0.82290  0.89075  0.58791  Biso   1.000  C
  C378     1.0000 0.79628  0.95726  0.89422  Biso   1.000  C
  C379     1.0000 0.84611  0.23887  0.87745  Biso   1.000  C
  H299     1.0000 0.81750  0.18554  0.93171  Biso   1.000  H
  H300     1.0000 0.81459  0.33633  0.91139  Biso   1.000  H
  C380     1.0000 0.87041  0.19303  0.60241  Biso   1.000  C
  H301     1.0000 0.85030  0.17985  0.53102  Biso   1.000  H
  H302     1.0000 0.85399  0.33064  0.55062  Biso   1.000  H
  C381     1.0000 0.84979  0.87228  0.59664  Biso   1.000  C
  C382     1.0000 0.80531  0.80887  0.61508  Biso   1.000  C
  C383     1.0000 0.81737  0.87507  0.86661  Biso   1.000  C
  H303     1.0000 0.80330  0.99391  0.92801  Biso   1.000  H
  H304     1.0000 0.78131  0.89894  0.90310  Biso   1.000  H
  C384     1.0000 0.86237  0.12662  0.88000  Biso   1.000  C
  C385     1.0000 0.85524  0.35081  0.85039  Biso   1.000  C
  C386     1.0000 0.88112  0.06401  0.60237  Biso   1.000  C
  C387     1.0000 0.87887  0.28370  0.64078  Biso   1.000  C
  C388     1.0000 0.85768  0.77681  0.63397  Biso   1.000  C
  C389     1.0000 0.87107  0.95127  0.56807  Biso   1.000  C
  C390     1.0000 0.81324  0.71600  0.65230  Biso   1.000  C
  H305     1.0000 0.78719  0.81736  0.60771  Biso   1.000  H
  C391     1.0000 0.84434  0.89175  0.87605  Biso   1.000  C
  C392     1.0000 0.80943  0.78001  0.82971  Biso   1.000  C
  C393     1.0000 0.85542  0.00160  0.91099  Biso   1.000  C
  C394     1.0000 0.88591  0.12722  0.85167  Biso   1.000  C
  H306     1.0000 0.84510  0.43010  0.85139  Biso   1.000  H
  C395     1.0000 0.87848  0.35181  0.82206  Biso   1.000  C
  C396     1.0000 0.90113  0.03575  0.63843  Biso   1.000  C
  H307     1.0000 0.87170  0.37128  0.64110  Biso   1.000  H
  C397     1.0000 0.89753  0.24925  0.67855  Biso   1.000  C
  H308     1.0000 0.87580  0.76283  0.63991  Biso   1.000  H
  C398     1.0000 0.83970  0.70212  0.66258  Biso   1.000  C
  H309     1.0000 0.86400  0.98822  0.53448  Biso   1.000  H
  H310     1.0000 0.88569  0.89075  0.55899  Biso   1.000  H
  H311     1.0000 0.80079  0.66247  0.67050  Biso   1.000  H
  C399     1.0000 0.86169  0.80757  0.84979  Biso   1.000  C
  H312     1.0000 0.79130  0.76743  0.82342  Biso   1.000  H
  C400     1.0000 0.82735  0.70302  0.80186  Biso   1.000  C
  H313     1.0000 0.84240  0.02467  0.93880  Biso   1.000  H
  H314     1.0000 0.87131  0.96785  0.92920  Biso   1.000  H
  C401     1.0000 0.89327  0.23627  0.82103  Biso   1.000  C
  H315     1.0000 0.89710  0.05153  0.85350  Biso   1.000  H
  H316     1.0000 0.88411  0.42980  0.80390  Biso   1.000  H
  C402     1.0000 0.90947  0.12532  0.67652  Biso   1.000  C
  H317     1.0000 0.90940  0.95077  0.63660  Biso   1.000  H
  O51      1.0000 0.90283  0.34691  0.71616  Biso   1.000  O
  O52      1.0000 0.85049  0.61654  0.70003  Biso   1.000  O
  C403     1.0000 0.85374  0.71440  0.81254  Biso   1.000  C
  H318     1.0000 0.87981  0.81446  0.85780  Biso   1.000  H
  O53      1.0000 0.81655  0.61724  0.76433  Biso   1.000  O
  O54      1.0000 0.91563  0.21889  0.79055  Biso   1.000  O
  H319     1.0000 0.92300  0.10256  0.70071  Biso   1.000  H
  C404     1.0000 0.92255  0.32155  0.75409  Biso   1.000  C
  C405     1.0000 0.83343  0.53984  0.73234  Biso   1.000  C
  H320     1.0000 0.86611  0.65958  0.79469  Biso   1.000  H
  H321     1.0000 0.93881  0.29549  0.73529  Biso   1.000  H
  H322     1.0000 0.92620  0.40453  0.77421  Biso   1.000  H
  H323     1.0000 0.84400  0.48163  0.75569  Biso   1.000  H
  H324     1.0000 0.82280  0.48163  0.70911  Biso   1.000  H
  O55      1.0000 0.08372  0.72059  0.70919  Biso   1.000  O
  C406     1.0000 0.06303  0.73567  0.67397  Biso   1.000  C
  C407     1.0000 0.08830  0.82425  0.74668  Biso   1.000  C
  C408     1.0000 0.05746  0.62493  0.64285  Biso   1.000  C
  C409     1.0000 0.04845  0.85101  0.66835  Biso   1.000  C
  O56      1.0000 0.06664  0.84851  0.78011  Biso   1.000  O
  H325     1.0000 0.09269  0.90733  0.72732  Biso   1.000  H
  H326     1.0000 0.10350  0.80008  0.76899  Biso   1.000  H
  C410     1.0000 0.03582  0.62203  0.60899  Biso   1.000  C
  H327     1.0000 0.06860  0.54933  0.64461  Biso   1.000  H
  C411     1.0000 0.02693  0.84791  0.63489  Biso   1.000  C
  H328     1.0000 0.05310  0.93030  0.68700  Biso   1.000  H
  C412     1.0000 0.05965  0.75065  0.81637  Biso   1.000  C
  C413     1.0000 0.03105  0.49660  0.57660  Biso   1.000  C
  C414     1.0000 0.01950  0.73497  0.60664  Biso   1.000  C
  H329     1.0000 0.01681  0.92670  0.63110  Biso   1.000  H
  C415     1.0000 0.03920  0.78510  0.85047  Biso   1.000  C
  C416     1.0000 0.07145  0.62702  0.82039  Biso   1.000  C
  C417     1.0000 0.01800  0.38666  0.60855  Biso   1.000  C
  H330     1.0000 0.01990  0.51897  0.54560  Biso   1.000  H
  H331     1.0000 0.04800  0.46335  0.56281  Biso   1.000  H
  C418     1.0000 0.99351  0.73797  0.57763  Biso   1.000  C
  C419     1.0000 0.02916  0.69333  0.88693  Biso   1.000  C
  H332     1.0000 0.03199  0.87258  0.84892  Biso   1.000  H
  H333     1.0000 0.08611  0.60485  0.79892  Biso   1.000  H
  C420     1.0000 0.06146  0.53685  0.85661  Biso   1.000  C
  C421     1.0000 0.03401  0.30318  0.63883  Biso   1.000  C
  C422     1.0000 0.99085  0.36878  0.61158  Biso   1.000  C
  C423     1.0000 0.97084  0.69333  0.61305  Biso   1.000  C
  H334     1.0000 0.99009  0.82984  0.56488  Biso   1.000  H
  H335     1.0000 0.99451  0.67875  0.54612  Biso   1.000  H
  C424     1.0000 0.03985  0.56461  0.88876  Biso   1.000  C
  C425     1.0000 0.00649  0.73797  0.92235  Biso   1.000  C
  H336     1.0000 0.06959  0.45207  0.85980  Biso   1.000  H
  C426     1.0000 0.02408  0.20981  0.67417  Biso   1.000  C
  H337     1.0000 0.05240  0.31057  0.63501  Biso   1.000  H
  C427     1.0000 0.98096  0.27382  0.64688  Biso   1.000  C
  C428     1.0000 0.97151  0.45047  0.57899  Biso   1.000  C
  C429     1.0000 0.96015  0.56461  0.61126  Biso   1.000  C
  C430     1.0000 0.96080  0.78510  0.64955  Biso   1.000  C
  C431     1.0000 0.02849  0.45047  0.92103  Biso   1.000  C
  H338     1.0000 0.00991  0.82984  0.93510  Biso   1.000  H
  H339     1.0000 0.00549  0.67875  0.95390  Biso   1.000  H
  C432     1.0000 0.98050  0.73497  0.89334  Biso   1.000  C
  H340     1.0000 0.03539  0.15518  0.69469  Biso   1.000  H
  C433     1.0000 0.99726  0.19792  0.67895  Biso   1.000  C
  H341     1.0000 0.96259  0.26083  0.64899  Biso   1.000  H
  H342     1.0000 0.95720  0.39185  0.56660  Biso   1.000  H
  H343     1.0000 0.98040  0.48692  0.54711  Biso   1.000  H
  C434     1.0000 0.93854  0.53685  0.64341  Biso   1.000  C
  H344     1.0000 0.96801  0.87258  0.65110  Biso   1.000  H
  C435     1.0000 0.94035  0.75065  0.68361  Biso   1.000  C
  C436     1.0000 0.00915  0.36878  0.88844  Biso   1.000  C
  H345     1.0000 0.04280  0.39185  0.93338  Biso   1.000  H
  H346     1.0000 0.01960  0.48692  0.95291  Biso   1.000  H
  C437     1.0000 0.96418  0.62203  0.89099  Biso   1.000  C
  C438     1.0000 0.97307  0.84791  0.86509  Biso   1.000  C
  O57      1.0000 0.98468  0.11344  0.71445  Biso   1.000  O
  C439     1.0000 0.92855  0.62702  0.67959  Biso   1.000  C
  H347     1.0000 0.93041  0.45207  0.64018  Biso   1.000  H
  O58      1.0000 0.93336  0.84851  0.71987  Biso   1.000  O
  C440     1.0000 0.01904  0.27382  0.85310  Biso   1.000  C
  C441     1.0000 0.98200  0.38666  0.89143  Biso   1.000  C
  C442     1.0000 0.94254  0.62493  0.85713  Biso   1.000  C
  C443     1.0000 0.96895  0.49660  0.92338  Biso   1.000  C
  C444     1.0000 0.95155  0.85101  0.83163  Biso   1.000  C
  H348     1.0000 0.98319  0.92670  0.86892  Biso   1.000  H
  C445     1.0000 0.00000  0.03675  0.74999  Biso   1.000  C
  H349     1.0000 0.91389  0.60485  0.70110  Biso   1.000  H
  C446     1.0000 0.91170  0.82425  0.75330  Biso   1.000  C
  C447     1.0000 0.00274  0.19792  0.82103  Biso   1.000  C
  H350     1.0000 0.03741  0.26083  0.85099  Biso   1.000  H
  C448     1.0000 0.96599  0.30318  0.86119  Biso   1.000  C
  C449     1.0000 0.93697  0.73567  0.82605  Biso   1.000  C
  H351     1.0000 0.93140  0.54933  0.85541  Biso   1.000  H
  H352     1.0000 0.98010  0.51897  0.95438  Biso   1.000  H
  H353     1.0000 0.95200  0.46335  0.93721  Biso   1.000  H
  H354     1.0000 0.94690  0.93030  0.81298  Biso   1.000  H
  O59      1.0000 0.01532  0.11344  0.78553  Biso   1.000  O
  H355     1.0000 0.98829  0.97843  0.77099  Biso   1.000  H
  H356     1.0000 0.01171  0.97843  0.72899  Biso   1.000  H
  H357     1.0000 0.90731  0.90733  0.77270  Biso   1.000  H
  H358     1.0000 0.89650  0.80008  0.73099  Biso   1.000  H
  O60      1.0000 0.91628  0.72059  0.79079  Biso   1.000  O
  C450     1.0000 0.97592  0.20981  0.82581  Biso   1.000  C
  H359     1.0000 0.94760  0.31057  0.86501  Biso   1.000  H
  H360     1.0000 0.96461  0.15518  0.80529  Biso   1.000  H
  C451     1.0000 0.08830  0.17585  0.24670  Biso   1.000  C
  O61      1.0000 0.06664  0.15159  0.28013  Biso   1.000  O
  H361     1.0000 0.09269  0.09267  0.22730  Biso   1.000  H
  H362     1.0000 0.10350  0.20002  0.26901  Biso   1.000  H
  O62      1.0000 0.08372  0.27941  0.20921  Biso   1.000  O
  C452     1.0000 0.05965  0.24945  0.31639  Biso   1.000  C
  C453     1.0000 0.06303  0.26443  0.17395  Biso   1.000  C
  C454     1.0000 0.03920  0.21490  0.35045  Biso   1.000  C
  C455     1.0000 0.07145  0.37298  0.32041  Biso   1.000  C
  C456     1.0000 0.05746  0.37507  0.14287  Biso   1.000  C
  C457     1.0000 0.04845  0.14899  0.16837  Biso   1.000  C
  C458     1.0000 0.02916  0.30667  0.38695  Biso   1.000  C
  H363     1.0000 0.03199  0.12752  0.34890  Biso   1.000  H
  H364     1.0000 0.08611  0.39525  0.29890  Biso   1.000  H
  C459     1.0000 0.06146  0.46325  0.35659  Biso   1.000  C
  C460     1.0000 0.03582  0.37797  0.10901  Biso   1.000  C
  H365     1.0000 0.06860  0.45067  0.14459  Biso   1.000  H
  H366     1.0000 0.05310  0.06970  0.18702  Biso   1.000  H
  C461     1.0000 0.02693  0.15209  0.13491  Biso   1.000  C
  C462     1.0000 0.03985  0.43539  0.38874  Biso   1.000  C
  C463     1.0000 0.00649  0.26213  0.42237  Biso   1.000  C
  H367     1.0000 0.06959  0.54803  0.35982  Biso   1.000  H
  C464     1.0000 0.01950  0.26513  0.10666  Biso   1.000  C
  C465     1.0000 0.03105  0.50340  0.07662  Biso   1.000  C
  H368     1.0000 0.01681  0.07330  0.13108  Biso   1.000  H
  C466     1.0000 0.02849  0.54953  0.42101  Biso   1.000  C
  H369     1.0000 0.00991  0.17016  0.43512  Biso   1.000  H
  H370     1.0000 0.00549  0.32135  0.45388  Biso   1.000  H
  C467     1.0000 0.98050  0.26513  0.39336  Biso   1.000  C
  C468     1.0000 0.99351  0.26213  0.07765  Biso   1.000  C
  C469     1.0000 0.01800  0.61344  0.10857  Biso   1.000  C
  H371     1.0000 0.01990  0.48103  0.04562  Biso   1.000  H
  H372     1.0000 0.04800  0.53675  0.06279  Biso   1.000  H
  C470     1.0000 0.00915  0.63122  0.38842  Biso   1.000  C
  H373     1.0000 0.04280  0.60825  0.43340  Biso   1.000  H
  H374     1.0000 0.01960  0.51308  0.45289  Biso   1.000  H
  C471     1.0000 0.96418  0.37797  0.39101  Biso   1.000  C
  C472     1.0000 0.97307  0.15209  0.36511  Biso   1.000  C
  C473     1.0000 0.97084  0.30667  0.11307  Biso   1.000  C
  H375     1.0000 0.99009  0.17016  0.06490  Biso   1.000  H
  H376     1.0000 0.99451  0.32135  0.04610  Biso   1.000  H
  C474     1.0000 0.03401  0.69682  0.13881  Biso   1.000  C
  C475     1.0000 0.99085  0.63122  0.11156  Biso   1.000  C
  C476     1.0000 0.01904  0.72618  0.35312  Biso   1.000  C
  C477     1.0000 0.98200  0.61344  0.39145  Biso   1.000  C
  C478     1.0000 0.94254  0.37507  0.35715  Biso   1.000  C
  C479     1.0000 0.96895  0.50340  0.42340  Biso   1.000  C
  C480     1.0000 0.95155  0.14899  0.33165  Biso   1.000  C
  H377     1.0000 0.98319  0.07330  0.36890  Biso   1.000  H
  C481     1.0000 0.96015  0.43539  0.11124  Biso   1.000  C
  C482     1.0000 0.96080  0.21490  0.14953  Biso   1.000  C
  C483     1.0000 0.02408  0.79019  0.17419  Biso   1.000  C
  H378     1.0000 0.05240  0.68943  0.13499  Biso   1.000  H
  C484     1.0000 0.98096  0.72618  0.14690  Biso   1.000  C
  C485     1.0000 0.97151  0.54953  0.07897  Biso   1.000  C
  H379     1.0000 0.03741  0.73927  0.35101  Biso   1.000  H
  C486     1.0000 0.00274  0.80218  0.32105  Biso   1.000  C
  C487     1.0000 0.96599  0.69682  0.36117  Biso   1.000  C
  H380     1.0000 0.93140  0.45067  0.35539  Biso   1.000  H
  C488     1.0000 0.93697  0.26443  0.32603  Biso   1.000  C
  H381     1.0000 0.98010  0.48103  0.45440  Biso   1.000  H
  H382     1.0000 0.95200  0.53675  0.43719  Biso   1.000  H
  H383     1.0000 0.94690  0.06970  0.31300  Biso   1.000  H
  C489     1.0000 0.93854  0.46325  0.14339  Biso   1.000  C
  H384     1.0000 0.96801  0.12752  0.15108  Biso   1.000  H
  C490     1.0000 0.94035  0.24945  0.18363  Biso   1.000  C
  H385     1.0000 0.03539  0.84482  0.19471  Biso   1.000  H
  C491     1.0000 0.99726  0.80218  0.17897  Biso   1.000  C
  H386     1.0000 0.96259  0.73927  0.14901  Biso   1.000  H
  H387     1.0000 0.95720  0.60825  0.06662  Biso   1.000  H
  H388     1.0000 0.98040  0.51308  0.04709  Biso   1.000  H
  O63      1.0000 0.01532  0.88656  0.28555  Biso   1.000  O
  C492     1.0000 0.97592  0.79019  0.32583  Biso   1.000  C
  H389     1.0000 0.94760  0.68943  0.36499  Biso   1.000  H
  O64      1.0000 0.91628  0.27941  0.29081  Biso   1.000  O
  C493     1.0000 0.92855  0.37298  0.17961  Biso   1.000  C
  H390     1.0000 0.93041  0.54803  0.14020  Biso   1.000  H
  O65      1.0000 0.93336  0.15159  0.21989  Biso   1.000  O
  O66      1.0000 0.98468  0.88656  0.21447  Biso   1.000  O
  C494     1.0000 0.00000  0.96335  0.25001  Biso   1.000  C
  H391     1.0000 0.96461  0.84482  0.30531  Biso   1.000  H
  C495     1.0000 0.91170  0.17585  0.25332  Biso   1.000  C
  H392     1.0000 0.91389  0.39525  0.20108  Biso   1.000  H
  H393     1.0000 0.98829  0.02167  0.27101  Biso   1.000  H
  H394     1.0000 0.01171  0.02167  0.22901  Biso   1.000  H
  H395     1.0000 0.90731  0.09267  0.27268  Biso   1.000  H
  H396     1.0000 0.89650  0.20002  0.23101  Biso   1.000  H
  C496     1.0000 0.74619  0.66687  0.20790  Biso   1.000  C
  O67      1.0000 0.75197  0.76992  0.17064  Biso   1.000  O
  O68      1.0000 0.76644  0.64510  0.24491  Biso   1.000  O
  H397     1.0000 0.73001  0.69063  0.22742  Biso   1.000  H
  H398     1.0000 0.74281  0.58288  0.18829  Biso   1.000  H
  C497     1.0000 0.77482  0.75724  0.14104  Biso   1.000  C
  C498     1.0000 0.77152  0.74316  0.28264  Biso   1.000  C
  C499     1.0000 0.78186  0.86868  0.11124  Biso   1.000  C
  C500     1.0000 0.79020  0.64420  0.13977  Biso   1.000  C
  C501     1.0000 0.75934  0.86599  0.28419  Biso   1.000  C
  C502     1.0000 0.79006  0.70931  0.32069  Biso   1.000  C
  C503     1.0000 0.80554  0.87298  0.08359  Biso   1.000  C
  H399     1.0000 0.77040  0.94308  0.10961  Biso   1.000  H
  H400     1.0000 0.78481  0.56481  0.15730  Biso   1.000  H
  C504     1.0000 0.81371  0.64859  0.11251  Biso   1.000  C
  C505     1.0000 0.76722  0.95616  0.32268  Biso   1.000  C
  H401     1.0000 0.74590  0.88806  0.25949  Biso   1.000  H
  C506     1.0000 0.79806  0.80088  0.35934  Biso   1.000  C
  H402     1.0000 0.79749  0.62233  0.32041  Biso   1.000  H
  C507     1.0000 0.82227  0.76243  0.08574  Biso   1.000  C
  C508     1.0000 0.81178  0.99960  0.05279  Biso   1.000  C
  H403     1.0000 0.82440  0.57110  0.11200  Biso   1.000  H
  C509     1.0000 0.78700  0.92890  0.35914  Biso   1.000  C
  H404     1.0000 0.75870  0.04044  0.32432  Biso   1.000  H
  C510     1.0000 0.81852  0.75614  0.39990  Biso   1.000  C
  C511     1.0000 0.84975  0.76113  0.06255  Biso   1.000  C
  H405     1.0000 0.82450  0.97853  0.02438  Biso   1.000  H
  H406     1.0000 0.79559  0.03265  0.03550  Biso   1.000  H
  C512     1.0000 0.82290  0.10925  0.08789  Biso   1.000  C
  C513     1.0000 0.79628  0.04274  0.39424  Biso   1.000  C
  C514     1.0000 0.84611  0.76113  0.37747  Biso   1.000  C
  H407     1.0000 0.81750  0.81456  0.43169  Biso   1.000  H
  H408     1.0000 0.81459  0.66377  0.41141  Biso   1.000  H
  C515     1.0000 0.87041  0.80707  0.10243  Biso   1.000  C
  H409     1.0000 0.85030  0.82025  0.03100  Biso   1.000  H
  H410     1.0000 0.85399  0.66946  0.05060  Biso   1.000  H
  C516     1.0000 0.84979  0.12772  0.09666  Biso   1.000  C
  C517     1.0000 0.80531  0.19113  0.11506  Biso   1.000  C
  C518     1.0000 0.81737  0.12493  0.36663  Biso   1.000  C
  H411     1.0000 0.80330  0.00609  0.42799  Biso   1.000  H
  H412     1.0000 0.78131  0.10116  0.40308  Biso   1.000  H
  C519     1.0000 0.86237  0.87348  0.37998  Biso   1.000  C
  C520     1.0000 0.85524  0.64919  0.35037  Biso   1.000  C
  C521     1.0000 0.88112  0.93599  0.10239  Biso   1.000  C
  C522     1.0000 0.87887  0.71630  0.14076  Biso   1.000  C
  C523     1.0000 0.85768  0.22329  0.13395  Biso   1.000  C
  C524     1.0000 0.87107  0.04873  0.06809  Biso   1.000  C
  C525     1.0000 0.81324  0.28400  0.15228  Biso   1.000  C
  H413     1.0000 0.78719  0.18264  0.10769  Biso   1.000  H
  C526     1.0000 0.84434  0.10825  0.37607  Biso   1.000  C
  C527     1.0000 0.80943  0.22009  0.32973  Biso   1.000  C
  C528     1.0000 0.85542  0.99840  0.41101  Biso   1.000  C
  C529     1.0000 0.88591  0.87288  0.35169  Biso   1.000  C
  H414     1.0000 0.84510  0.56990  0.35141  Biso   1.000  H
  C530     1.0000 0.87848  0.64819  0.32208  Biso   1.000  C
  C531     1.0000 0.90113  0.96435  0.13841  Biso   1.000  C
  H415     1.0000 0.87170  0.62872  0.14108  Biso   1.000  H
  C532     1.0000 0.89753  0.75085  0.17853  Biso   1.000  C
  H416     1.0000 0.87580  0.23727  0.13989  Biso   1.000  H
  C533     1.0000 0.83970  0.29798  0.16256  Biso   1.000  C
  H417     1.0000 0.86400  0.01188  0.03450  Biso   1.000  H
  H418     1.0000 0.88569  0.10925  0.05901  Biso   1.000  H
  H419     1.0000 0.80079  0.33753  0.17048  Biso   1.000  H
  C534     1.0000 0.86169  0.19243  0.34977  Biso   1.000  C
  H420     1.0000 0.79130  0.23267  0.32340  Biso   1.000  H
  C535     1.0000 0.82735  0.29708  0.30184  Biso   1.000  C
  H421     1.0000 0.84240  0.97533  0.43878  Biso   1.000  H
  H422     1.0000 0.87131  0.03225  0.42918  Biso   1.000  H
  C536     1.0000 0.89327  0.76373  0.32101  Biso   1.000  C
  H423     1.0000 0.89710  0.94857  0.35348  Biso   1.000  H
  H424     1.0000 0.88411  0.57020  0.30392  Biso   1.000  H
  C537     1.0000 0.90947  0.87478  0.17654  Biso   1.000  C
  H425     1.0000 0.90940  0.04923  0.13662  Biso   1.000  H
  O69      1.0000 0.90283  0.65319  0.21618  Biso   1.000  O
  O70      1.0000 0.85049  0.38356  0.20001  Biso   1.000  O
  C538     1.0000 0.85374  0.28570  0.31252  Biso   1.000  C
  H426     1.0000 0.87981  0.18554  0.35778  Biso   1.000  H
  O71      1.0000 0.81655  0.38276  0.26435  Biso   1.000  O
  O72      1.0000 0.91563  0.78111  0.29057  Biso   1.000  O
  H427     1.0000 0.92300  0.89744  0.20069  Biso   1.000  H
  C539     1.0000 0.92255  0.67855  0.25411  Biso   1.000  C
  C540     1.0000 0.83343  0.46016  0.23236  Biso   1.000  C
  H428     1.0000 0.86611  0.34042  0.29471  Biso   1.000  H
  H429     1.0000 0.93881  0.70451  0.23531  Biso   1.000  H
  H430     1.0000 0.92620  0.59557  0.27419  Biso   1.000  H
  H431     1.0000 0.84400  0.51847  0.25571  Biso   1.000  H
  H432     1.0000 0.82280  0.51847  0.20909  Biso   1.000  H
  Ne1      1.0000 0.33398  0.43463  0.26865  Biso   1.000  Ne
  He1      1.0000 0.28477  0.58451  0.27955  Biso   1.000  He
  He2      1.0000 0.33248  0.13860  0.26711  Biso   1.000  He
  He3      1.0000 0.38251  0.58907  0.25822  Biso   1.000  He
  Ar1      1.0000 0.33403  0.44030  0.26878  Biso   1.000  Ar
  Ne2      1.0000 0.16602  0.93466  0.26865  Biso   1.000  Ne
  He4      1.0000 0.21460  0.08267  0.27940  Biso   1.000  He
  He5      1.0000 0.16419  0.62942  0.26951  Biso   1.000  He
  He6      1.0000 0.11663  0.08300  0.25380  Biso   1.000  He
  Ar2      1.0000 0.16607  0.94116  0.26856  Biso   1.000  Ar
  Ne3      1.0000 0.00000  0.43831  0.25000  Biso   1.000  Ne
  He7      1.0000 0.99999  0.19460  0.25001  Biso   1.000  He
  He8      1.0000 0.95103  0.59091  0.25011  Biso   1.000  He
  He9      1.0000 0.04984  0.59331  0.24983  Biso   1.000  He
  Ar3      1.0000 0.99999  0.44387  0.25002  Biso   1.000  Ar
  Ne4      1.0000 0.50000  0.93833  0.25000  Biso   1.000  Ne
  He10     1.0000 0.54774  0.08748  0.25006  Biso   1.000  He
  He11     1.0000 0.50057  0.63293  0.24946  Biso   1.000  He
  He12     1.0000 0.45165  0.08913  0.24989  Biso   1.000  He
  Ar4      1.0000 0.50001  0.94391  0.25001  Biso   1.000  Ar
  Ne5      1.0000 0.33398  0.56540  0.76865  Biso   1.000  Ne
  He13     1.0000 0.28514  0.41650  0.77942  Biso   1.000  He
  He14     1.0000 0.33447  0.79194  0.76930  Biso   1.000  He
  He15     1.0000 0.38354  0.40761  0.75806  Biso   1.000  He
  Ar5      1.0000 0.33393  0.55890  0.76856  Biso   1.000  Ar
  Ne6      1.0000 0.16602  0.06538  0.76865  Biso   1.000  Ne
  He16     1.0000 0.21498  0.91613  0.77945  Biso   1.000  He
  He17     1.0000 0.16413  0.35195  0.76957  Biso   1.000  He
  He18     1.0000 0.11746  0.91069  0.75829  Biso   1.000  He
  Ar6      1.0000 0.16560  0.05929  0.76800  Biso   1.000  Ar
  Ne7      1.0000 0.50000  0.06171  0.75000  Biso   1.000  Ne
  He19     1.0000 0.49936  0.34954  0.75061  Biso   1.000  He
  He20     1.0000 0.55054  0.90456  0.75015  Biso   1.000  He
  He21     1.0000 0.44995  0.90588  0.74990  Biso   1.000  He
  Ar7      1.0000 0.49999  0.05615  0.74999  Biso   1.000  Ar
  Ne8      1.0000 0.00000  0.56173  0.75000  Biso   1.000  Ne
  He22     1.0000 0.95087  0.41528  0.75312  Biso   1.000  He
  He23     1.0000 0.00064  0.84885  0.75062  Biso   1.000  He
  He24     1.0000 0.04858  0.41020  0.74992  Biso   1.000  He
  Ar8      1.0000 0.00001  0.55615  0.74999  Biso   1.000  Ar
  Ne9      1.0000 0.66602  0.43463  0.23135  Biso   1.000  Ne
  He25     1.0000 0.61773  0.58634  0.24268  Biso   1.000  He
  He26     1.0000 0.66762  0.13630  0.23297  Biso   1.000  He
  He27     1.0000 0.71256  0.57679  0.22109  Biso   1.000  He
  Ar9      1.0000 0.66597  0.44027  0.23124  Biso   1.000  Ar
  Ne10     1.0000 0.66602  0.56540  0.73135  Biso   1.000  Ne
  He28     1.0000 0.61719  0.40994  0.74182  Biso   1.000  He
  He29     1.0000 0.66716  0.85204  0.73263  Biso   1.000  He
  He30     1.0000 0.71491  0.41636  0.72055  Biso   1.000  He
  Ar10     1.0000 0.66597  0.55971  0.73123  Biso   1.000  Ar
  Ne11     1.0000 0.83398  0.93466  0.23135  Biso   1.000  Ne
  He31     1.0000 0.88355  0.08356  0.24624  Biso   1.000  He
  He32     1.0000 0.83214  0.63017  0.23315  Biso   1.000  He
  He33     1.0000 0.78553  0.08235  0.22064  Biso   1.000  He
  Ar11     1.0000 0.83393  0.94116  0.23144  Biso   1.000  Ar
  Ne12     1.0000 0.83398  0.06538  0.73135  Biso   1.000  Ne
  He34     1.0000 0.88195  0.91260  0.74162  Biso   1.000  He
  He35     1.0000 0.83282  0.35254  0.73265  Biso   1.000  He
  He36     1.0000 0.78441  0.91439  0.72040  Biso   1.000  He
  Ar12     1.0000 0.83403  0.05970  0.73124  Biso   1.000  Ar
