data_image0
_cell_length_a       32.757
_cell_length_b       34.249
_cell_length_c       31.088
_cell_angle_alpha    90
_cell_angle_beta     90
_cell_angle_gamma    90

_symmetry_space_group_name_H-M    "P 1"
_symmetry_int_tables_number       1

loop_
  _symmetry_equiv_pos_as_xyz
  'x, y, z'

loop_
  _atom_site_label
  _atom_site_occupancy
  _atom_site_fract_x
  _atom_site_fract_y
  _atom_site_fract_z
  _atom_site_thermal_displace_type
  _atom_site_B_iso_or_equiv
  _atom_site_type_symbol
  C1       1.0000 0.39259  0.53604  0.45027  Biso   1.000  C
  N1       1.0000 0.36752  0.49972  0.44545  Biso   1.000  N
  C2       1.0000 0.39143  0.55000  0.49595  Biso   1.000  C
  H1       1.0000 0.38181  0.55669  0.43100  Biso   1.000  H
  H2       1.0000 0.42119  0.53061  0.44181  Biso   1.000  H
  C3       1.0000 0.38569  0.47088  0.41530  Biso   1.000  C
  H3       1.0000 0.36450  0.48839  0.47169  Biso   1.000  H
  H4       1.0000 0.34219  0.50641  0.43580  Biso   1.000  H
  N2       1.0000 0.41625  0.58656  0.50087  Biso   1.000  N
  H5       1.0000 0.40239  0.52950  0.51509  Biso   1.000  H
  H6       1.0000 0.36279  0.55520  0.50450  Biso   1.000  H
  C4       1.0000 0.35751  0.43671  0.41000  Biso   1.000  C
  H7       1.0000 0.41231  0.46179  0.42669  Biso   1.000  H
  H8       1.0000 0.39051  0.48331  0.38700  Biso   1.000  H
  H9       1.0000 0.40239  0.60679  0.48871  Biso   1.000  H
  H10      1.0000 0.44009  0.58361  0.48620  Biso   1.000  H
  C5       1.0000 0.42583  0.59678  0.54674  Biso   1.000  C
  C6       1.0000 0.33031  0.43575  0.37545  Biso   1.000  C
  C7       1.0000 0.35846  0.40597  0.43908  Biso   1.000  C
  C8       1.0000 0.38886  0.59724  0.57533  Biso   1.000  C
  H11      1.0000 0.43890  0.62279  0.54751  Biso   1.000  H
  H12      1.0000 0.44571  0.57759  0.55819  Biso   1.000  H
  C9       1.0000 0.30397  0.40413  0.36985  Biso   1.000  C
  H13      1.0000 0.32970  0.45680  0.35560  Biso   1.000  H
  C10      1.0000 0.33184  0.37426  0.43396  Biso   1.000  C
  H14      1.0000 0.37711  0.40641  0.46240  Biso   1.000  H
  C11      1.0000 0.38160  0.56580  0.60248  Biso   1.000  C
  C12      1.0000 0.36194  0.62913  0.57601  Biso   1.000  C
  C13      1.0000 0.27548  0.40427  0.33183  Biso   1.000  C
  C14      1.0000 0.30500  0.37373  0.39929  Biso   1.000  C
  C15      1.0000 0.33440  0.34106  0.46600  Biso   1.000  C
  H15      1.0000 0.39961  0.54399  0.60200  Biso   1.000  H
  C16      1.0000 0.34863  0.56577  0.63011  Biso   1.000  C
  C17      1.0000 0.32836  0.62878  0.60293  Biso   1.000  C
  H16      1.0000 0.36679  0.65100  0.55790  Biso   1.000  H
  N3       1.0000 0.23171  0.41143  0.34467  Biso   1.000  N
  H17      1.0000 0.27741  0.37881  0.31691  Biso   1.000  H
  H18      1.0000 0.28421  0.42480  0.31141  Biso   1.000  H
  H19      1.0000 0.28711  0.35219  0.39572  Biso   1.000  H
  N4       1.0000 0.30961  0.34868  0.50579  Biso   1.000  N
  H20      1.0000 0.32460  0.31680  0.45220  Biso   1.000  H
  H21      1.0000 0.36331  0.33709  0.47420  Biso   1.000  H
  C18      1.0000 0.32185  0.59707  0.63008  Biso   1.000  C
  C19      1.0000 0.34249  0.53234  0.66103  Biso   1.000  C
  C20      1.0000 0.29902  0.66329  0.60564  Biso   1.000  C
  H22      1.0000 0.21641  0.41400  0.32041  Biso   1.000  H
  H23      1.0000 0.22240  0.39020  0.35930  Biso   1.000  H
  C21      1.0000 0.22581  0.44682  0.37201  Biso   1.000  C
  H24      1.0000 0.31581  0.33020  0.52580  Biso   1.000  H
  H25      1.0000 0.31679  0.37230  0.51679  Biso   1.000  H
  C22      1.0000 0.26501  0.34830  0.49801  Biso   1.000  C
  H26      1.0000 0.29890  0.59689  0.64871  Biso   1.000  H
  N5       1.0000 0.30998  0.50565  0.64607  Biso   1.000  N
  H27      1.0000 0.36841  0.51759  0.66399  Biso   1.000  H
  H28      1.0000 0.33510  0.54279  0.68969  Biso   1.000  H
  N6       1.0000 0.26095  0.65608  0.58019  Biso   1.000  N
  H29      1.0000 0.29169  0.66799  0.63610  Biso   1.000  H
  H30      1.0000 0.31279  0.68700  0.59460  Biso   1.000  H
  C23      1.0000 0.18048  0.45087  0.38150  Biso   1.000  C
  H31      1.0000 0.23580  0.47029  0.35670  Biso   1.000  H
  H32      1.0000 0.24129  0.44410  0.39919  Biso   1.000  H
  H33      1.0000 0.25769  0.32521  0.48051  Biso   1.000  H
  H34      1.0000 0.25701  0.37201  0.48179  Biso   1.000  H
  C24      1.0000 0.24227  0.34702  0.54085  Biso   1.000  C
  H35      1.0000 0.31700  0.49581  0.61989  Biso   1.000  H
  H36      1.0000 0.28641  0.51940  0.64279  Biso   1.000  H
  C25      1.0000 0.30299  0.47301  0.67634  Biso   1.000  C
  C26      1.0000 0.26846  0.65608  0.53281  Biso   1.000  C
  H37      1.0000 0.25021  0.63260  0.58801  Biso   1.000  H
  H38      1.0000 0.24230  0.67491  0.58659  Biso   1.000  H
  N7       1.0000 0.17154  0.48655  0.40720  Biso   1.000  N
  H39      1.0000 0.16519  0.45201  0.35409  Biso   1.000  H
  H40      1.0000 0.17099  0.42760  0.39748  Biso   1.000  H
  N8       1.0000 0.19785  0.34392  0.53143  Biso   1.000  N
  H41      1.0000 0.25140  0.32430  0.55800  Biso   1.000  H
  H42      1.0000 0.24789  0.37099  0.55761  Biso   1.000  H
  C27      1.0000 0.28211  0.43960  0.65800  Biso   1.000  C
  C28      1.0000 0.26379  0.45321  0.66730  Biso   1.000  C
  H43      1.0000 0.32970  0.46419  0.68769  Biso   1.000  H
  H44      1.0000 0.28681  0.48279  0.70101  Biso   1.000  H
  H45      1.0000 0.32561  0.45400  0.67389  Biso   1.000  H
  H46      1.0000 0.30271  0.48311  0.70619  Biso   1.000  H
  C29      1.0000 0.22844  0.65357  0.50843  Biso   1.000  C
  H47      1.0000 0.28589  0.63351  0.52509  Biso   1.000  H
  H48      1.0000 0.28312  0.68031  0.52461  Biso   1.000  H
  H49      1.0000 0.18991  0.48831  0.42910  Biso   1.000  H
  H50      1.0000 0.14629  0.48431  0.41900  Biso   1.000  H
  C30      1.0000 0.17325  0.52331  0.38114  Biso   1.000  C
  H51      1.0000 0.19370  0.32360  0.51309  Biso   1.000  H
  H52      1.0000 0.18961  0.36611  0.51788  Biso   1.000  H
  C31      1.0000 0.17184  0.33785  0.57115  Biso   1.000  C
  N9       1.0000 0.26214  0.41578  0.69313  Biso   1.000  N
  H53      1.0000 0.30180  0.42319  0.64211  Biso   1.000  H
  H54      1.0000 0.26101  0.44871  0.63751  Biso   1.000  H
  H55      1.0000 0.26172  0.44720  0.63619  Biso   1.000  H
  H56      1.0000 0.24080  0.47041  0.67531  Biso   1.000  H
  N10      1.0000 0.23784  0.65678  0.46204  Biso   1.000  N
  H57      1.0000 0.21479  0.62840  0.51451  Biso   1.000  H
  H58      1.0000 0.21000  0.67500  0.51731  Biso   1.000  H
  C32      1.0000 0.16119  0.55812  0.40800  Biso   1.000  C
  H59      1.0000 0.15450  0.52101  0.35621  Biso   1.000  H
  H60      1.0000 0.20130  0.52711  0.37001  Biso   1.000  H
  C33      1.0000 0.17035  0.37338  0.59943  Biso   1.000  C
  H61      1.0000 0.14379  0.33090  0.56221  Biso   1.000  H
  H62      1.0000 0.18301  0.31560  0.58791  Biso   1.000  H
  C34      1.0000 0.21843  0.41201  0.70249  Biso   1.000  C
  H63      1.0000 0.27130  0.39090  0.68911  Biso   1.000  H
  H64      1.0000 0.27371  0.42419  0.71809  Biso   1.000  H
  H65      1.0000 0.27139  0.39511  0.67750  Biso   1.000  H
  H66      1.0000 0.27701  0.41779  0.71780  Biso   1.000  H
  C35      1.0000 0.20081  0.66025  0.43325  Biso   1.000  C
  H67      1.0000 0.25240  0.63541  0.45391  Biso   1.000  H
  H68      1.0000 0.25399  0.67809  0.45789  Biso   1.000  H
  C36      1.0000 0.18698  0.59067  0.40993  Biso   1.000  C
  C37      1.0000 0.12379  0.55902  0.42930  Biso   1.000  C
  C38      1.0000 0.19501  0.37613  0.63565  Biso   1.000  C
  C39      1.0000 0.14171  0.40276  0.59094  Biso   1.000  C
  C40      1.0000 0.19239  0.40871  0.66251  Biso   1.000  C
  H69      1.0000 0.20939  0.43499  0.71931  Biso   1.000  H
  H70      1.0000 0.21409  0.38851  0.72050  Biso   1.000  H
  C41      1.0000 0.17495  0.62393  0.43325  Biso   1.000  C
  H71      1.0000 0.18399  0.68259  0.44300  Biso   1.000  H
  H72      1.0000 0.20991  0.66571  0.40350  Biso   1.000  H
  H73      1.0000 0.21250  0.59029  0.39549  Biso   1.000  H
  C42      1.0000 0.11207  0.59123  0.45345  Biso   1.000  C
  H74      1.0000 0.10599  0.53721  0.42721  Biso   1.000  H
  H75      1.0000 0.21369  0.35581  0.64211  Biso   1.000  H
  H76      1.0000 0.12419  0.40060  0.56671  Biso   1.000  H
  C43      1.0000 0.13887  0.43502  0.61776  Biso   1.000  C
  C44      1.0000 0.16470  0.43809  0.65318  Biso   1.000  C
  C45      1.0000 0.13786  0.62384  0.45506  Biso   1.000  C
  C46      1.0000 0.07238  0.59132  0.47732  Biso   1.000  C
  C47      1.0000 0.10752  0.46647  0.60985  Biso   1.000  C
  H77      1.0000 0.16329  0.46051  0.67109  Biso   1.000  H
  H78      1.0000 0.12990  0.64609  0.47121  Biso   1.000  H
  N11      1.0000 0.07867  0.58387  0.52441  Biso   1.000  N
  H79      1.0000 0.05431  0.57091  0.46529  Biso   1.000  H
  H80      1.0000 0.05880  0.61689  0.47340  Biso   1.000  H
  N12      1.0000 0.12178  0.49374  0.57578  Biso   1.000  N
  H81      1.0000 0.08139  0.45441  0.60091  Biso   1.000  H
  H82      1.0000 0.10260  0.48109  0.63681  Biso   1.000  H
  H83      1.0000 0.08981  0.60551  0.53690  Biso   1.000  H
  H84      1.0000 0.05410  0.57929  0.53709  Biso   1.000  H
  C48      1.0000 0.10611  0.54974  0.53159  Biso   1.000  C
  C49      1.0000 0.09412  0.52831  0.57183  Biso   1.000  C
  H85      1.0000 0.12281  0.48089  0.55021  Biso   1.000  H
  H86      1.0000 0.14751  0.50209  0.58219  Biso   1.000  H
  H87      1.0000 0.13469  0.55891  0.53419  Biso   1.000  H
  H88      1.0000 0.10450  0.53190  0.50669  Biso   1.000  H
  H89      1.0000 0.09711  0.54550  0.59721  Biso   1.000  H
  H90      1.0000 0.06530  0.51969  0.56990  Biso   1.000  H
  C50      1.0000 0.60741  0.46396  0.45027  Biso   1.000  C
  C51      1.0000 0.60857  0.45000  0.49595  Biso   1.000  C
  N13      1.0000 0.63248  0.50028  0.44545  Biso   1.000  N
  H91      1.0000 0.61819  0.44331  0.43100  Biso   1.000  H
  H92      1.0000 0.57881  0.46939  0.44181  Biso   1.000  H
  N14      1.0000 0.58375  0.41344  0.50087  Biso   1.000  N
  H93      1.0000 0.59761  0.47050  0.51509  Biso   1.000  H
  H94      1.0000 0.63721  0.44480  0.50450  Biso   1.000  H
  H95      1.0000 0.63550  0.51161  0.47169  Biso   1.000  H
  H96      1.0000 0.65781  0.49359  0.43580  Biso   1.000  H
  C52      1.0000 0.61431  0.52912  0.41530  Biso   1.000  C
  H97      1.0000 0.59761  0.39321  0.48871  Biso   1.000  H
  H98      1.0000 0.55991  0.41639  0.48620  Biso   1.000  H
  C53      1.0000 0.57417  0.40322  0.54674  Biso   1.000  C
  C54      1.0000 0.64249  0.56329  0.41000  Biso   1.000  C
  H99      1.0000 0.58769  0.53821  0.42669  Biso   1.000  H
  H100     1.0000 0.60949  0.51669  0.38700  Biso   1.000  H
  C55      1.0000 0.61114  0.40276  0.57533  Biso   1.000  C
  H101     1.0000 0.56110  0.37721  0.54751  Biso   1.000  H
  H102     1.0000 0.55429  0.42241  0.55819  Biso   1.000  H
  C56      1.0000 0.64154  0.59403  0.43908  Biso   1.000  C
  C57      1.0000 0.66969  0.56425  0.37545  Biso   1.000  C
  C58      1.0000 0.61840  0.43420  0.60248  Biso   1.000  C
  C59      1.0000 0.63806  0.37087  0.57601  Biso   1.000  C
  C60      1.0000 0.66816  0.62574  0.43396  Biso   1.000  C
  H103     1.0000 0.62289  0.59359  0.46240  Biso   1.000  H
  C61      1.0000 0.69603  0.59587  0.36985  Biso   1.000  C
  H104     1.0000 0.67030  0.54320  0.35560  Biso   1.000  H
  H105     1.0000 0.60039  0.45601  0.60200  Biso   1.000  H
  C62      1.0000 0.65137  0.43423  0.63011  Biso   1.000  C
  C63      1.0000 0.67164  0.37122  0.60293  Biso   1.000  C
  H106     1.0000 0.63321  0.34900  0.55790  Biso   1.000  H
  C64      1.0000 0.69500  0.62627  0.39929  Biso   1.000  C
  C65      1.0000 0.66560  0.65894  0.46600  Biso   1.000  C
  C66      1.0000 0.72452  0.59573  0.33183  Biso   1.000  C
  C67      1.0000 0.67815  0.40293  0.63008  Biso   1.000  C
  C68      1.0000 0.65751  0.46766  0.66103  Biso   1.000  C
  C69      1.0000 0.70098  0.33671  0.60564  Biso   1.000  C
  H107     1.0000 0.71289  0.64781  0.39572  Biso   1.000  H
  N15      1.0000 0.69039  0.65132  0.50579  Biso   1.000  N
  H108     1.0000 0.67540  0.68320  0.45220  Biso   1.000  H
  H109     1.0000 0.63669  0.66291  0.47420  Biso   1.000  H
  N16      1.0000 0.76829  0.58857  0.34467  Biso   1.000  N
  H110     1.0000 0.72259  0.62119  0.31691  Biso   1.000  H
  H111     1.0000 0.71579  0.57520  0.31141  Biso   1.000  H
  H112     1.0000 0.70110  0.40311  0.64871  Biso   1.000  H
  N17      1.0000 0.69002  0.49435  0.64607  Biso   1.000  N
  H113     1.0000 0.63159  0.48241  0.66399  Biso   1.000  H
  H114     1.0000 0.66490  0.45721  0.68969  Biso   1.000  H
  N18      1.0000 0.73905  0.34392  0.58019  Biso   1.000  N
  H115     1.0000 0.70831  0.33201  0.63610  Biso   1.000  H
  H116     1.0000 0.68721  0.31300  0.59460  Biso   1.000  H
  H117     1.0000 0.68419  0.66980  0.52580  Biso   1.000  H
  H118     1.0000 0.68321  0.62770  0.51679  Biso   1.000  H
  C70      1.0000 0.73499  0.65170  0.49801  Biso   1.000  C
  H119     1.0000 0.78359  0.58600  0.32041  Biso   1.000  H
  H120     1.0000 0.77760  0.60980  0.35930  Biso   1.000  H
  C71      1.0000 0.77419  0.55318  0.37201  Biso   1.000  C
  H121     1.0000 0.68300  0.50419  0.61989  Biso   1.000  H
  H122     1.0000 0.71359  0.48060  0.64279  Biso   1.000  H
  C72      1.0000 0.69701  0.52699  0.67634  Biso   1.000  C
  H123     1.0000 0.74979  0.36740  0.58801  Biso   1.000  H
  H124     1.0000 0.75770  0.32509  0.58659  Biso   1.000  H
  C73      1.0000 0.73154  0.34392  0.53281  Biso   1.000  C
  H125     1.0000 0.74231  0.67479  0.48051  Biso   1.000  H
  H126     1.0000 0.74299  0.62799  0.48179  Biso   1.000  H
  C74      1.0000 0.75773  0.65298  0.54085  Biso   1.000  C
  C75      1.0000 0.81952  0.54913  0.38150  Biso   1.000  C
  H127     1.0000 0.76420  0.52971  0.35670  Biso   1.000  H
  H128     1.0000 0.75871  0.55590  0.39919  Biso   1.000  H
  H129     1.0000 0.67030  0.53581  0.68769  Biso   1.000  H
  H130     1.0000 0.71319  0.51721  0.70101  Biso   1.000  H
  C76      1.0000 0.71789  0.56040  0.65800  Biso   1.000  C
  H131     1.0000 0.67439  0.54600  0.67389  Biso   1.000  H
  H132     1.0000 0.69729  0.51689  0.70619  Biso   1.000  H
  C77      1.0000 0.73621  0.54679  0.66730  Biso   1.000  C
  C78      1.0000 0.77156  0.34643  0.50843  Biso   1.000  C
  H133     1.0000 0.71411  0.36649  0.52509  Biso   1.000  H
  H134     1.0000 0.71688  0.31969  0.52461  Biso   1.000  H
  N19      1.0000 0.80215  0.65608  0.53143  Biso   1.000  N
  H135     1.0000 0.74860  0.67570  0.55800  Biso   1.000  H
  H136     1.0000 0.75211  0.62901  0.55761  Biso   1.000  H
  N20      1.0000 0.82846  0.51345  0.40720  Biso   1.000  N
  H137     1.0000 0.83481  0.54799  0.35409  Biso   1.000  H
  H138     1.0000 0.82901  0.57240  0.39748  Biso   1.000  H
  N21      1.0000 0.73786  0.58422  0.69313  Biso   1.000  N
  H139     1.0000 0.69820  0.57681  0.64211  Biso   1.000  H
  H140     1.0000 0.73899  0.55129  0.63751  Biso   1.000  H
  H141     1.0000 0.73828  0.55280  0.63619  Biso   1.000  H
  H142     1.0000 0.75920  0.52959  0.67531  Biso   1.000  H
  N22      1.0000 0.76216  0.34322  0.46204  Biso   1.000  N
  H143     1.0000 0.78521  0.37160  0.51451  Biso   1.000  H
  H144     1.0000 0.79000  0.32500  0.51731  Biso   1.000  H
  H145     1.0000 0.80630  0.67640  0.51309  Biso   1.000  H
  H146     1.0000 0.81039  0.63389  0.51788  Biso   1.000  H
  C79      1.0000 0.82816  0.66215  0.57115  Biso   1.000  C
  H147     1.0000 0.81009  0.51169  0.42910  Biso   1.000  H
  H148     1.0000 0.85371  0.51569  0.41900  Biso   1.000  H
  C80      1.0000 0.82675  0.47669  0.38114  Biso   1.000  C
  H149     1.0000 0.72870  0.60910  0.68911  Biso   1.000  H
  H150     1.0000 0.72629  0.57581  0.71809  Biso   1.000  H
  C81      1.0000 0.78157  0.58799  0.70249  Biso   1.000  C
  H151     1.0000 0.72861  0.60489  0.67750  Biso   1.000  H
  H152     1.0000 0.72299  0.58221  0.71780  Biso   1.000  H
  H153     1.0000 0.74760  0.36459  0.45391  Biso   1.000  H
  H154     1.0000 0.74601  0.32191  0.45789  Biso   1.000  H
  C82      1.0000 0.79919  0.33975  0.43325  Biso   1.000  C
  C83      1.0000 0.82965  0.62662  0.59943  Biso   1.000  C
  H155     1.0000 0.85621  0.66910  0.56221  Biso   1.000  H
  H156     1.0000 0.81699  0.68440  0.58791  Biso   1.000  H
  C84      1.0000 0.83881  0.44188  0.40800  Biso   1.000  C
  H157     1.0000 0.84550  0.47899  0.35621  Biso   1.000  H
  H158     1.0000 0.79870  0.47289  0.37001  Biso   1.000  H
  C85      1.0000 0.80761  0.59129  0.66251  Biso   1.000  C
  H159     1.0000 0.79061  0.56501  0.71931  Biso   1.000  H
  H160     1.0000 0.78591  0.61149  0.72050  Biso   1.000  H
  C86      1.0000 0.82505  0.37607  0.43325  Biso   1.000  C
  H161     1.0000 0.81601  0.31741  0.44300  Biso   1.000  H
  H162     1.0000 0.79009  0.33429  0.40350  Biso   1.000  H
  C87      1.0000 0.80499  0.62387  0.63565  Biso   1.000  C
  C88      1.0000 0.85829  0.59724  0.59094  Biso   1.000  C
  C89      1.0000 0.81302  0.40933  0.40993  Biso   1.000  C
  C90      1.0000 0.87621  0.44098  0.42930  Biso   1.000  C
  C91      1.0000 0.83530  0.56191  0.65318  Biso   1.000  C
  C92      1.0000 0.86214  0.37616  0.45506  Biso   1.000  C
  H163     1.0000 0.78631  0.64419  0.64211  Biso   1.000  H
  C93      1.0000 0.86113  0.56498  0.61776  Biso   1.000  C
  H164     1.0000 0.87581  0.59940  0.56671  Biso   1.000  H
  H165     1.0000 0.78750  0.40971  0.39549  Biso   1.000  H
  C94      1.0000 0.88793  0.40877  0.45345  Biso   1.000  C
  H166     1.0000 0.89401  0.46279  0.42721  Biso   1.000  H
  H167     1.0000 0.83671  0.53949  0.67109  Biso   1.000  H
  H168     1.0000 0.87010  0.35391  0.47121  Biso   1.000  H
  C95      1.0000 0.89248  0.53353  0.60985  Biso   1.000  C
  C96      1.0000 0.92762  0.40868  0.47732  Biso   1.000  C
  N23      1.0000 0.87822  0.50626  0.57578  Biso   1.000  N
  H169     1.0000 0.91861  0.54559  0.60091  Biso   1.000  H
  H170     1.0000 0.89740  0.51891  0.63681  Biso   1.000  H
  N24      1.0000 0.92133  0.41613  0.52441  Biso   1.000  N
  H171     1.0000 0.94569  0.42909  0.46529  Biso   1.000  H
  H172     1.0000 0.94120  0.38311  0.47340  Biso   1.000  H
  H173     1.0000 0.87719  0.51911  0.55021  Biso   1.000  H
  H174     1.0000 0.85249  0.49791  0.58219  Biso   1.000  H
  C97      1.0000 0.90588  0.47169  0.57183  Biso   1.000  C
  H175     1.0000 0.91019  0.39449  0.53690  Biso   1.000  H
  H176     1.0000 0.94590  0.42071  0.53709  Biso   1.000  H
  C98      1.0000 0.89389  0.45026  0.53159  Biso   1.000  C
  H177     1.0000 0.90289  0.45450  0.59721  Biso   1.000  H
  H178     1.0000 0.93470  0.48031  0.56990  Biso   1.000  H
  H179     1.0000 0.86531  0.44109  0.53419  Biso   1.000  H
  H180     1.0000 0.89550  0.46810  0.50669  Biso   1.000  H
  C99      1.0000 0.44500  0.37388  0.38565  Biso   1.000  C
  C100     1.0000 0.42034  0.37662  0.34943  Biso   1.000  C
  C101     1.0000 0.44238  0.34129  0.41251  Biso   1.000  C
  H181     1.0000 0.46369  0.39420  0.39211  Biso   1.000  H
  C102     1.0000 0.39170  0.34725  0.34094  Biso   1.000  C
  C103     1.0000 0.42186  0.41216  0.32115  Biso   1.000  C
  C104     1.0000 0.41472  0.31192  0.40318  Biso   1.000  C
  C105     1.0000 0.46845  0.33800  0.45249  Biso   1.000  C
  C106     1.0000 0.38886  0.31499  0.36776  Biso   1.000  C
  H182     1.0000 0.37421  0.34941  0.31671  Biso   1.000  H
  N25      1.0000 0.44784  0.40606  0.28143  Biso   1.000  N
  H183     1.0000 0.39381  0.41911  0.31221  Biso   1.000  H
  H184     1.0000 0.43301  0.43441  0.33791  Biso   1.000  H
  H185     1.0000 0.41329  0.28950  0.42109  Biso   1.000  H
  N26      1.0000 0.51213  0.33423  0.44313  Biso   1.000  N
  H186     1.0000 0.45941  0.31499  0.46931  Biso   1.000  H
  H187     1.0000 0.46411  0.36150  0.47050  Biso   1.000  H
  C107     1.0000 0.35751  0.28354  0.35985  Biso   1.000  C
  H188     1.0000 0.44369  0.42641  0.26309  Biso   1.000  H
  H189     1.0000 0.43960  0.38389  0.26788  Biso   1.000  H
  C108     1.0000 0.49226  0.40296  0.29085  Biso   1.000  C
  H190     1.0000 0.52129  0.35911  0.43911  Biso   1.000  H
  H191     1.0000 0.52370  0.32579  0.46809  Biso   1.000  H
  C109     1.0000 0.53210  0.31040  0.40800  Biso   1.000  C
  H192     1.0000 0.52138  0.35490  0.42750  Biso   1.000  H
  H193     1.0000 0.52700  0.33221  0.46780  Biso   1.000  H
  C110     1.0000 0.51381  0.29680  0.41730  Biso   1.000  C
  N27      1.0000 0.37177  0.25624  0.32578  Biso   1.000  N
  H194     1.0000 0.33141  0.29560  0.35091  Biso   1.000  H
  H195     1.0000 0.35260  0.26891  0.38681  Biso   1.000  H
  C111     1.0000 0.51503  0.40171  0.24801  Biso   1.000  C
  H196     1.0000 0.50139  0.42571  0.30800  Biso   1.000  H
  H197     1.0000 0.49791  0.37899  0.30761  Biso   1.000  H
  C112     1.0000 0.55298  0.27700  0.42634  Biso   1.000  C
  H198     1.0000 0.55179  0.32681  0.39211  Biso   1.000  H
  H199     1.0000 0.51101  0.30129  0.38751  Biso   1.000  H
  H200     1.0000 0.51171  0.30281  0.38619  Biso   1.000  H
  H201     1.0000 0.49080  0.27960  0.42531  Biso   1.000  H
  C113     1.0000 0.34411  0.22170  0.32183  Biso   1.000  C
  H202     1.0000 0.37281  0.26909  0.30021  Biso   1.000  H
  H203     1.0000 0.39750  0.24789  0.33219  Biso   1.000  H
  N28      1.0000 0.55961  0.40133  0.25579  Biso   1.000  N
  H204     1.0000 0.50771  0.42480  0.23051  Biso   1.000  H
  H205     1.0000 0.50701  0.37800  0.23179  Biso   1.000  H
  N29      1.0000 0.56000  0.24433  0.39607  Biso   1.000  N
  H206     1.0000 0.57969  0.28579  0.43769  Biso   1.000  H
  H207     1.0000 0.53680  0.26719  0.45101  Biso   1.000  H
  H208     1.0000 0.57560  0.29601  0.42389  Biso   1.000  H
  H209     1.0000 0.55271  0.26690  0.45619  Biso   1.000  H
  C114     1.0000 0.35611  0.20024  0.28159  Biso   1.000  C
  H210     1.0000 0.34710  0.20450  0.34721  Biso   1.000  H
  H211     1.0000 0.31529  0.23031  0.31990  Biso   1.000  H
  H212     1.0000 0.56580  0.41981  0.27580  Biso   1.000  H
  H213     1.0000 0.56681  0.37770  0.26679  Biso   1.000  H
  C115     1.0000 0.58442  0.40892  0.21600  Biso   1.000  C
  H214     1.0000 0.56699  0.25420  0.36989  Biso   1.000  H
  H215     1.0000 0.53640  0.23061  0.39279  Biso   1.000  H
  C116     1.0000 0.59248  0.21764  0.41103  Biso   1.000  C
  N30      1.0000 0.32869  0.16611  0.27441  Biso   1.000  N
  H216     1.0000 0.38471  0.19110  0.28419  Biso   1.000  H
  H217     1.0000 0.35449  0.21811  0.25669  Biso   1.000  H
  C117     1.0000 0.58183  0.37572  0.18396  Biso   1.000  C
  H218     1.0000 0.57459  0.43321  0.20220  Biso   1.000  H
  H219     1.0000 0.61330  0.41289  0.22420  Biso   1.000  H
  C118     1.0000 0.59865  0.18424  0.38011  Biso   1.000  C
  H220     1.0000 0.61840  0.23239  0.41399  Biso   1.000  H
  H221     1.0000 0.58510  0.20719  0.43969  Biso   1.000  H
  H222     1.0000 0.33981  0.14450  0.28690  Biso   1.000  H
  H223     1.0000 0.30409  0.17069  0.28709  Biso   1.000  H
  C119     1.0000 0.32240  0.15869  0.22732  Biso   1.000  C
  C120     1.0000 0.55500  0.37627  0.14929  Biso   1.000  C
  C121     1.0000 0.60845  0.34404  0.18908  Biso   1.000  C
  C122     1.0000 0.63162  0.18421  0.35248  Biso   1.000  C
  C123     1.0000 0.57185  0.15291  0.38008  Biso   1.000  C
  C124     1.0000 0.36209  0.15878  0.20345  Biso   1.000  C
  H224     1.0000 0.30430  0.17910  0.21529  Biso   1.000  H
  H225     1.0000 0.30879  0.13311  0.22340  Biso   1.000  H
  C125     1.0000 0.55396  0.34585  0.11985  Biso   1.000  C
  H226     1.0000 0.53711  0.39779  0.14572  Biso   1.000  H
  H227     1.0000 0.62710  0.34360  0.21240  Biso   1.000  H
  C126     1.0000 0.60753  0.31329  0.16000  Biso   1.000  C
  C127     1.0000 0.63886  0.15276  0.32533  Biso   1.000  C
  H228     1.0000 0.64960  0.20599  0.35200  Biso   1.000  H
  C128     1.0000 0.57835  0.12123  0.35293  Biso   1.000  C
  H229     1.0000 0.54889  0.15311  0.39871  Biso   1.000  H
  C129     1.0000 0.38786  0.12616  0.20506  Biso   1.000  C
  C130     1.0000 0.37381  0.19098  0.17930  Biso   1.000  C
  C131     1.0000 0.52548  0.34573  0.08183  Biso   1.000  C
  C132     1.0000 0.58033  0.31426  0.12545  Biso   1.000  C
  C133     1.0000 0.63568  0.27913  0.16530  Biso   1.000  C
  C134     1.0000 0.61196  0.12085  0.32601  Biso   1.000  C
  C135     1.0000 0.67583  0.15323  0.29674  Biso   1.000  C
  C136     1.0000 0.54901  0.08672  0.35564  Biso   1.000  C
  C137     1.0000 0.42498  0.12608  0.18325  Biso   1.000  C
  H230     1.0000 0.37989  0.10389  0.22121  Biso   1.000  H
  C138     1.0000 0.41118  0.19186  0.15800  Biso   1.000  C
  H231     1.0000 0.35598  0.21279  0.17721  Biso   1.000  H
  N31      1.0000 0.48170  0.33858  0.09467  Biso   1.000  N
  H232     1.0000 0.52740  0.37119  0.06691  Biso   1.000  H
  H233     1.0000 0.53421  0.32521  0.06141  Biso   1.000  H
  H234     1.0000 0.57969  0.29321  0.10560  Biso   1.000  H
  N32      1.0000 0.61752  0.25026  0.19545  Biso   1.000  N
  H235     1.0000 0.66230  0.28821  0.17669  Biso   1.000  H
  H236     1.0000 0.64050  0.26669  0.13700  Biso   1.000  H
  H237     1.0000 0.61681  0.09901  0.30790  Biso   1.000  H
  N33      1.0000 0.66627  0.16342  0.25087  Biso   1.000  N
  H238     1.0000 0.68889  0.12719  0.29751  Biso   1.000  H
  H239     1.0000 0.69570  0.17241  0.30819  Biso   1.000  H
  N34      1.0000 0.51097  0.09390  0.33019  Biso   1.000  N
  H240     1.0000 0.54169  0.08199  0.38610  Biso   1.000  H
  H241     1.0000 0.56281  0.06301  0.34460  Biso   1.000  H
  C139     1.0000 0.43698  0.15933  0.15993  Biso   1.000  C
  C140     1.0000 0.45083  0.08975  0.18325  Biso   1.000  C
  C141     1.0000 0.42324  0.22669  0.13114  Biso   1.000  C
  C142     1.0000 0.47581  0.30319  0.12201  Biso   1.000  C
  H242     1.0000 0.46640  0.33601  0.07041  Biso   1.000  H
  H243     1.0000 0.47239  0.35981  0.10930  Biso   1.000  H
  H244     1.0000 0.61449  0.26161  0.22169  Biso   1.000  H
  H245     1.0000 0.59221  0.24360  0.18580  Biso   1.000  H
  C143     1.0000 0.64258  0.21396  0.20027  Biso   1.000  C
  H246     1.0000 0.65241  0.14319  0.23871  Biso   1.000  H
  H247     1.0000 0.69011  0.16640  0.23620  Biso   1.000  H
  C144     1.0000 0.64145  0.20001  0.24595  Biso   1.000  C
  C145     1.0000 0.51848  0.09393  0.28281  Biso   1.000  C
  H248     1.0000 0.50020  0.11740  0.33801  Biso   1.000  H
  H249     1.0000 0.49229  0.07510  0.33659  Biso   1.000  H
  H250     1.0000 0.46250  0.15971  0.14549  Biso   1.000  H
  N35      1.0000 0.48783  0.09320  0.21204  Biso   1.000  N
  H251     1.0000 0.43401  0.06739  0.19300  Biso   1.000  H
  H252     1.0000 0.45990  0.08429  0.15350  Biso   1.000  H
  N36      1.0000 0.42156  0.26345  0.15720  Biso   1.000  N
  H253     1.0000 0.40449  0.22900  0.10621  Biso   1.000  H
  H254     1.0000 0.45129  0.22290  0.12001  Biso   1.000  H
  C146     1.0000 0.43050  0.29913  0.13150  Biso   1.000  C
  H255     1.0000 0.48579  0.27969  0.10670  Biso   1.000  H
  H256     1.0000 0.49131  0.30591  0.14919  Biso   1.000  H
  H257     1.0000 0.63180  0.19329  0.18100  Biso   1.000  H
  H258     1.0000 0.67118  0.21939  0.19181  Biso   1.000  H
  H259     1.0000 0.65241  0.22050  0.26509  Biso   1.000  H
  H260     1.0000 0.61279  0.19481  0.25450  Biso   1.000  H
  C147     1.0000 0.47846  0.09641  0.25843  Biso   1.000  C
  H261     1.0000 0.53589  0.11650  0.27509  Biso   1.000  H
  H262     1.0000 0.53311  0.06970  0.27461  Biso   1.000  H
  H263     1.0000 0.50240  0.11460  0.20391  Biso   1.000  H
  H264     1.0000 0.50401  0.07191  0.20789  Biso   1.000  H
  H265     1.0000 0.43991  0.26170  0.17910  Biso   1.000  H
  H266     1.0000 0.39631  0.26570  0.16900  Biso   1.000  H
  H267     1.0000 0.41521  0.29799  0.10409  Biso   1.000  H
  H268     1.0000 0.42101  0.32240  0.14748  Biso   1.000  H
  H269     1.0000 0.46479  0.12161  0.26451  Biso   1.000  H
  H270     1.0000 0.45999  0.07501  0.26731  Biso   1.000  H
  C148     1.0000 0.55500  0.62612  0.38565  Biso   1.000  C
  C149     1.0000 0.57966  0.62338  0.34943  Biso   1.000  C
  C150     1.0000 0.55762  0.65871  0.41251  Biso   1.000  C
  H271     1.0000 0.53631  0.60580  0.39211  Biso   1.000  H
  C151     1.0000 0.57814  0.58784  0.32115  Biso   1.000  C
  C152     1.0000 0.60830  0.65275  0.34094  Biso   1.000  C
  C153     1.0000 0.58528  0.68808  0.40318  Biso   1.000  C
  C154     1.0000 0.53155  0.66200  0.45249  Biso   1.000  C
  N37      1.0000 0.55216  0.59394  0.28143  Biso   1.000  N
  H272     1.0000 0.60619  0.58089  0.31221  Biso   1.000  H
  H273     1.0000 0.56699  0.56559  0.33791  Biso   1.000  H
  H274     1.0000 0.62579  0.65059  0.31671  Biso   1.000  H
  C155     1.0000 0.61114  0.68501  0.36776  Biso   1.000  C
  H275     1.0000 0.58671  0.71050  0.42109  Biso   1.000  H
  N38      1.0000 0.48787  0.66577  0.44313  Biso   1.000  N
  H276     1.0000 0.54059  0.68501  0.46931  Biso   1.000  H
  H277     1.0000 0.53589  0.63850  0.47050  Biso   1.000  H
  C156     1.0000 0.50774  0.59704  0.29085  Biso   1.000  C
  H278     1.0000 0.55631  0.57359  0.26309  Biso   1.000  H
  H279     1.0000 0.56040  0.61611  0.26788  Biso   1.000  H
  C157     1.0000 0.64249  0.71646  0.35985  Biso   1.000  C
  H280     1.0000 0.47871  0.64089  0.43911  Biso   1.000  H
  H281     1.0000 0.47630  0.67421  0.46809  Biso   1.000  H
  C158     1.0000 0.46790  0.68960  0.40800  Biso   1.000  C
  H282     1.0000 0.47862  0.64510  0.42750  Biso   1.000  H
  H283     1.0000 0.47300  0.66779  0.46780  Biso   1.000  H
  C159     1.0000 0.48619  0.70320  0.41730  Biso   1.000  C
  C160     1.0000 0.48497  0.59829  0.24801  Biso   1.000  C
  H284     1.0000 0.49861  0.57429  0.30800  Biso   1.000  H
  H285     1.0000 0.50209  0.62101  0.30761  Biso   1.000  H
  N39      1.0000 0.62823  0.74376  0.32578  Biso   1.000  N
  H286     1.0000 0.66859  0.70440  0.35091  Biso   1.000  H
  H287     1.0000 0.64740  0.73109  0.38681  Biso   1.000  H
  C161     1.0000 0.44702  0.72300  0.42634  Biso   1.000  C
  H288     1.0000 0.44821  0.67319  0.39211  Biso   1.000  H
  H289     1.0000 0.48899  0.69871  0.38751  Biso   1.000  H
  H290     1.0000 0.48829  0.69719  0.38619  Biso   1.000  H
  H291     1.0000 0.50920  0.72040  0.42531  Biso   1.000  H
  N40      1.0000 0.44039  0.59867  0.25579  Biso   1.000  N
  H292     1.0000 0.49229  0.57520  0.23051  Biso   1.000  H
  H293     1.0000 0.49299  0.62200  0.23179  Biso   1.000  H
  H294     1.0000 0.62719  0.73091  0.30021  Biso   1.000  H
  H295     1.0000 0.60250  0.75211  0.33219  Biso   1.000  H
  C162     1.0000 0.65589  0.77830  0.32183  Biso   1.000  C
  N41      1.0000 0.44000  0.75567  0.39607  Biso   1.000  N
  H296     1.0000 0.42031  0.71421  0.43769  Biso   1.000  H
  H297     1.0000 0.46320  0.73281  0.45101  Biso   1.000  H
  H298     1.0000 0.42440  0.70399  0.42389  Biso   1.000  H
  H299     1.0000 0.44729  0.73310  0.45619  Biso   1.000  H
  C163     1.0000 0.41558  0.59108  0.21600  Biso   1.000  C
  H300     1.0000 0.43420  0.58019  0.27580  Biso   1.000  H
  H301     1.0000 0.43319  0.62230  0.26679  Biso   1.000  H
  C164     1.0000 0.64389  0.79976  0.28159  Biso   1.000  C
  H302     1.0000 0.65290  0.79550  0.34721  Biso   1.000  H
  H303     1.0000 0.68471  0.76969  0.31990  Biso   1.000  H
  C165     1.0000 0.40752  0.78236  0.41103  Biso   1.000  C
  H304     1.0000 0.43301  0.74580  0.36989  Biso   1.000  H
  H305     1.0000 0.46360  0.76939  0.39279  Biso   1.000  H
  C166     1.0000 0.41817  0.62428  0.18396  Biso   1.000  C
  H306     1.0000 0.42541  0.56679  0.20220  Biso   1.000  H
  H307     1.0000 0.38670  0.58711  0.22420  Biso   1.000  H
  N42      1.0000 0.67131  0.83389  0.27441  Biso   1.000  N
  H308     1.0000 0.61529  0.80890  0.28419  Biso   1.000  H
  H309     1.0000 0.64551  0.78189  0.25669  Biso   1.000  H
  C167     1.0000 0.40135  0.81576  0.38011  Biso   1.000  C
  H310     1.0000 0.38160  0.76761  0.41399  Biso   1.000  H
  H311     1.0000 0.41490  0.79281  0.43969  Biso   1.000  H
  C168     1.0000 0.44500  0.62373  0.14929  Biso   1.000  C
  C169     1.0000 0.39155  0.65596  0.18908  Biso   1.000  C
  C170     1.0000 0.67760  0.84131  0.22732  Biso   1.000  C
  H312     1.0000 0.66019  0.85550  0.28690  Biso   1.000  H
  H313     1.0000 0.69591  0.82931  0.28709  Biso   1.000  H
  C171     1.0000 0.36838  0.81579  0.35248  Biso   1.000  C
  C172     1.0000 0.42815  0.84709  0.38008  Biso   1.000  C
  C173     1.0000 0.44604  0.65415  0.11985  Biso   1.000  C
  H314     1.0000 0.46289  0.60221  0.14572  Biso   1.000  H
  H315     1.0000 0.37290  0.65640  0.21240  Biso   1.000  H
  C174     1.0000 0.39247  0.68671  0.16000  Biso   1.000  C
  C175     1.0000 0.63791  0.84122  0.20345  Biso   1.000  C
  H316     1.0000 0.69570  0.82090  0.21529  Biso   1.000  H
  H317     1.0000 0.69121  0.86689  0.22340  Biso   1.000  H
  C176     1.0000 0.36114  0.84724  0.32533  Biso   1.000  C
  H318     1.0000 0.35040  0.79401  0.35200  Biso   1.000  H
  C177     1.0000 0.42165  0.87877  0.35293  Biso   1.000  C
  H319     1.0000 0.45111  0.84689  0.39871  Biso   1.000  H
  C178     1.0000 0.41967  0.68574  0.12545  Biso   1.000  C
  C179     1.0000 0.47452  0.65427  0.08183  Biso   1.000  C
  C180     1.0000 0.36432  0.72087  0.16530  Biso   1.000  C
  C181     1.0000 0.62619  0.80902  0.17930  Biso   1.000  C
  C182     1.0000 0.61214  0.87384  0.20506  Biso   1.000  C
  C183     1.0000 0.32417  0.84677  0.29674  Biso   1.000  C
  C184     1.0000 0.38804  0.87915  0.32601  Biso   1.000  C
  C185     1.0000 0.45099  0.91328  0.35564  Biso   1.000  C
  H320     1.0000 0.42031  0.70679  0.10560  Biso   1.000  H
  N43      1.0000 0.51830  0.66142  0.09467  Biso   1.000  N
  H321     1.0000 0.47260  0.62881  0.06691  Biso   1.000  H
  H322     1.0000 0.46579  0.67479  0.06141  Biso   1.000  H
  N44      1.0000 0.38248  0.74974  0.19545  Biso   1.000  N
  H323     1.0000 0.33770  0.71179  0.17669  Biso   1.000  H
  H324     1.0000 0.35950  0.73331  0.13700  Biso   1.000  H
  C186     1.0000 0.58882  0.80814  0.15800  Biso   1.000  C
  H325     1.0000 0.64402  0.78721  0.17721  Biso   1.000  H
  C187     1.0000 0.57502  0.87392  0.18325  Biso   1.000  C
  H326     1.0000 0.62011  0.89611  0.22121  Biso   1.000  H
  N45      1.0000 0.33373  0.83658  0.25087  Biso   1.000  N
  H327     1.0000 0.31111  0.87281  0.29751  Biso   1.000  H
  H328     1.0000 0.30430  0.82759  0.30819  Biso   1.000  H
  H329     1.0000 0.38319  0.90099  0.30790  Biso   1.000  H
  N46      1.0000 0.48903  0.90610  0.33019  Biso   1.000  N
  H330     1.0000 0.45831  0.91801  0.38610  Biso   1.000  H
  H331     1.0000 0.43719  0.93699  0.34460  Biso   1.000  H
  H332     1.0000 0.53360  0.66399  0.07041  Biso   1.000  H
  H333     1.0000 0.52761  0.64019  0.10930  Biso   1.000  H
  C188     1.0000 0.52419  0.69681  0.12201  Biso   1.000  C
  H334     1.0000 0.38551  0.73839  0.22169  Biso   1.000  H
  H335     1.0000 0.40779  0.75640  0.18580  Biso   1.000  H
  C189     1.0000 0.35742  0.78604  0.20027  Biso   1.000  C
  C190     1.0000 0.57676  0.77331  0.13114  Biso   1.000  C
  C191     1.0000 0.56302  0.84067  0.15993  Biso   1.000  C
  C192     1.0000 0.54917  0.91025  0.18325  Biso   1.000  C
  C193     1.0000 0.35855  0.79999  0.24595  Biso   1.000  C
  H336     1.0000 0.34759  0.85681  0.23871  Biso   1.000  H
  H337     1.0000 0.30989  0.83360  0.23620  Biso   1.000  H
  H338     1.0000 0.49980  0.88260  0.33801  Biso   1.000  H
  H339     1.0000 0.50771  0.92490  0.33659  Biso   1.000  H
  C194     1.0000 0.48152  0.90607  0.28281  Biso   1.000  C
  C195     1.0000 0.56950  0.70087  0.13150  Biso   1.000  C
  H340     1.0000 0.51421  0.72031  0.10670  Biso   1.000  H
  H341     1.0000 0.50869  0.69409  0.14919  Biso   1.000  H
  H342     1.0000 0.36820  0.80671  0.18100  Biso   1.000  H
  H343     1.0000 0.32882  0.78061  0.19181  Biso   1.000  H
  N47      1.0000 0.57844  0.73655  0.15720  Biso   1.000  N
  H344     1.0000 0.59551  0.77100  0.10621  Biso   1.000  H
  H345     1.0000 0.54871  0.77710  0.12001  Biso   1.000  H
  H346     1.0000 0.53750  0.84029  0.14549  Biso   1.000  H
  N48      1.0000 0.51217  0.90680  0.21204  Biso   1.000  N
  H347     1.0000 0.56599  0.93261  0.19300  Biso   1.000  H
  H348     1.0000 0.54010  0.91571  0.15350  Biso   1.000  H
  H349     1.0000 0.34759  0.77950  0.26509  Biso   1.000  H
  H350     1.0000 0.38721  0.80519  0.25450  Biso   1.000  H
  C196     1.0000 0.52154  0.90359  0.25843  Biso   1.000  C
  H351     1.0000 0.46411  0.88350  0.27509  Biso   1.000  H
  H352     1.0000 0.46689  0.93030  0.27461  Biso   1.000  H
  H353     1.0000 0.58479  0.70201  0.10409  Biso   1.000  H
  H354     1.0000 0.57899  0.67760  0.14748  Biso   1.000  H
  H355     1.0000 0.56009  0.73830  0.17910  Biso   1.000  H
  H356     1.0000 0.60369  0.73430  0.16900  Biso   1.000  H
  H357     1.0000 0.49760  0.88540  0.20391  Biso   1.000  H
  H358     1.0000 0.49599  0.92809  0.20789  Biso   1.000  H
  H359     1.0000 0.53521  0.87839  0.26451  Biso   1.000  H
  H360     1.0000 0.54001  0.92499  0.26731  Biso   1.000  H
  C197     1.0000 0.54917  0.41026  0.68325  Biso   1.000  C
  C198     1.0000 0.57502  0.37391  0.68325  Biso   1.000  C
  N49      1.0000 0.51217  0.40679  0.71204  Biso   1.000  N
  H361     1.0000 0.56599  0.43260  0.69300  Biso   1.000  H
  H362     1.0000 0.54010  0.41569  0.65350  Biso   1.000  H
  C199     1.0000 0.56302  0.34068  0.65993  Biso   1.000  C
  C200     1.0000 0.61214  0.37385  0.70506  Biso   1.000  C
  H363     1.0000 0.49760  0.38541  0.70391  Biso   1.000  H
  H364     1.0000 0.49599  0.42810  0.70789  Biso   1.000  H
  C201     1.0000 0.52154  0.40357  0.75843  Biso   1.000  C
  C202     1.0000 0.58882  0.30813  0.65800  Biso   1.000  C
  H365     1.0000 0.53750  0.34030  0.64549  Biso   1.000  H
  C203     1.0000 0.63791  0.34124  0.70345  Biso   1.000  C
  H366     1.0000 0.62011  0.39610  0.72121  Biso   1.000  H
  H367     1.0000 0.53521  0.37841  0.76451  Biso   1.000  H
  H368     1.0000 0.54001  0.42501  0.76731  Biso   1.000  H
  C204     1.0000 0.48152  0.40606  0.78281  Biso   1.000  C
  C205     1.0000 0.57676  0.27332  0.63114  Biso   1.000  C
  C206     1.0000 0.62619  0.30903  0.67930  Biso   1.000  C
  C207     1.0000 0.67760  0.34132  0.72732  Biso   1.000  C
  N50      1.0000 0.48903  0.40608  0.83019  Biso   1.000  N
  H369     1.0000 0.46411  0.38349  0.77509  Biso   1.000  H
  H370     1.0000 0.46689  0.43029  0.77461  Biso   1.000  H
  N51      1.0000 0.57844  0.23656  0.65720  Biso   1.000  N
  H371     1.0000 0.59551  0.27099  0.60621  Biso   1.000  H
  H372     1.0000 0.54871  0.27709  0.62001  Biso   1.000  H
  H373     1.0000 0.64402  0.28719  0.67721  Biso   1.000  H
  N52      1.0000 0.67131  0.33388  0.77441  Biso   1.000  N
  H374     1.0000 0.69570  0.32091  0.71529  Biso   1.000  H
  H375     1.0000 0.69121  0.36690  0.72340  Biso   1.000  H
  C208     1.0000 0.45099  0.41330  0.85564  Biso   1.000  C
  H376     1.0000 0.49980  0.38261  0.83801  Biso   1.000  H
  H377     1.0000 0.50771  0.42489  0.83659  Biso   1.000  H
  C209     1.0000 0.56950  0.20085  0.63150  Biso   1.000  C
  H378     1.0000 0.56009  0.23831  0.67910  Biso   1.000  H
  H379     1.0000 0.60369  0.23431  0.66900  Biso   1.000  H
  H380     1.0000 0.66019  0.35551  0.78690  Biso   1.000  H
  H381     1.0000 0.69591  0.32929  0.78709  Biso   1.000  H
  C210     1.0000 0.64389  0.29975  0.78159  Biso   1.000  C
  C211     1.0000 0.42165  0.37876  0.85293  Biso   1.000  C
  H382     1.0000 0.45831  0.41800  0.88610  Biso   1.000  H
  H383     1.0000 0.43719  0.43701  0.84460  Biso   1.000  H
  C212     1.0000 0.52419  0.19682  0.62201  Biso   1.000  C
  H384     1.0000 0.58479  0.20199  0.60409  Biso   1.000  H
  H385     1.0000 0.57899  0.17761  0.64748  Biso   1.000  H
  H386     1.0000 0.61529  0.30891  0.78419  Biso   1.000  H
  H387     1.0000 0.64551  0.28191  0.75669  Biso   1.000  H
  C213     1.0000 0.65589  0.27829  0.82183  Biso   1.000  C
  C214     1.0000 0.38804  0.37914  0.82601  Biso   1.000  C
  C215     1.0000 0.42815  0.34708  0.88008  Biso   1.000  C
  N53      1.0000 0.51830  0.16144  0.59467  Biso   1.000  N
  H388     1.0000 0.51421  0.22030  0.60670  Biso   1.000  H
  H389     1.0000 0.50869  0.19411  0.64919  Biso   1.000  H
  N54      1.0000 0.62823  0.24374  0.82578  Biso   1.000  N
  H390     1.0000 0.65290  0.29551  0.84721  Biso   1.000  H
  H391     1.0000 0.68471  0.26970  0.81990  Biso   1.000  H
  C216     1.0000 0.36114  0.34725  0.82533  Biso   1.000  C
  H392     1.0000 0.38319  0.40100  0.80790  Biso   1.000  H
  C217     1.0000 0.40135  0.31575  0.88011  Biso   1.000  C
  H393     1.0000 0.45111  0.34690  0.89871  Biso   1.000  H
  C218     1.0000 0.47452  0.15428  0.58183  Biso   1.000  C
  H394     1.0000 0.53360  0.16400  0.57041  Biso   1.000  H
  H395     1.0000 0.52761  0.14021  0.60930  Biso   1.000  H
  C219     1.0000 0.64249  0.21647  0.85985  Biso   1.000  C
  H396     1.0000 0.62719  0.23090  0.80021  Biso   1.000  H
  H397     1.0000 0.60250  0.25209  0.83219  Biso   1.000  H
  C220     1.0000 0.32417  0.34678  0.79674  Biso   1.000  C
  C221     1.0000 0.36838  0.31578  0.85248  Biso   1.000  C
  C222     1.0000 0.40752  0.28234  0.91103  Biso   1.000  C
  C223     1.0000 0.44604  0.15414  0.61985  Biso   1.000  C
  H398     1.0000 0.47260  0.12879  0.56691  Biso   1.000  H
  H399     1.0000 0.46579  0.17481  0.56141  Biso   1.000  H
  C224     1.0000 0.61114  0.18503  0.86776  Biso   1.000  C
  H400     1.0000 0.66859  0.20439  0.85091  Biso   1.000  H
  H401     1.0000 0.64740  0.23110  0.88681  Biso   1.000  H
  N55      1.0000 0.33373  0.33656  0.75087  Biso   1.000  N
  H402     1.0000 0.31111  0.37280  0.79751  Biso   1.000  H
  H403     1.0000 0.30430  0.32760  0.80819  Biso   1.000  H
  H404     1.0000 0.35040  0.29399  0.85200  Biso   1.000  H
  N56      1.0000 0.44000  0.25566  0.89607  Biso   1.000  N
  H405     1.0000 0.38160  0.26760  0.91399  Biso   1.000  H
  H406     1.0000 0.41490  0.29280  0.93969  Biso   1.000  H
  C225     1.0000 0.44500  0.12374  0.64929  Biso   1.000  C
  C226     1.0000 0.41967  0.18573  0.62545  Biso   1.000  C
  C227     1.0000 0.60830  0.15276  0.84094  Biso   1.000  C
  C228     1.0000 0.58528  0.18809  0.90318  Biso   1.000  C
  C229     1.0000 0.35855  0.30001  0.74595  Biso   1.000  C
  H407     1.0000 0.34759  0.35680  0.73871  Biso   1.000  H
  H408     1.0000 0.30989  0.33359  0.73620  Biso   1.000  H
  H409     1.0000 0.43301  0.24579  0.86989  Biso   1.000  H
  H410     1.0000 0.46360  0.26941  0.89279  Biso   1.000  H
  C230     1.0000 0.44702  0.22301  0.92634  Biso   1.000  C
  H411     1.0000 0.46289  0.10219  0.64572  Biso   1.000  H
  C231     1.0000 0.41817  0.12427  0.68396  Biso   1.000  C
  C232     1.0000 0.39247  0.18669  0.66000  Biso   1.000  C
  H412     1.0000 0.42031  0.20681  0.60560  Biso   1.000  H
  C233     1.0000 0.57966  0.12339  0.84943  Biso   1.000  C
  H413     1.0000 0.62579  0.15060  0.81671  Biso   1.000  H
  C234     1.0000 0.55762  0.15872  0.91251  Biso   1.000  C
  H414     1.0000 0.58671  0.21049  0.92109  Biso   1.000  H
  C235     1.0000 0.35742  0.28605  0.70027  Biso   1.000  C
  H415     1.0000 0.34759  0.27951  0.76509  Biso   1.000  H
  H416     1.0000 0.38721  0.30521  0.75450  Biso   1.000  H
  C236     1.0000 0.46790  0.18961  0.90800  Biso   1.000  C
  C237     1.0000 0.48619  0.20319  0.91730  Biso   1.000  C
  H417     1.0000 0.42031  0.21420  0.93769  Biso   1.000  H
  H418     1.0000 0.46320  0.23280  0.95101  Biso   1.000  H
  H419     1.0000 0.42440  0.20401  0.92389  Biso   1.000  H
  H420     1.0000 0.44729  0.23309  0.95619  Biso   1.000  H
  C238     1.0000 0.39155  0.15595  0.68908  Biso   1.000  C
  C239     1.0000 0.41558  0.09107  0.71600  Biso   1.000  C
  C240     1.0000 0.36432  0.22088  0.66530  Biso   1.000  C
  C241     1.0000 0.57814  0.08783  0.82115  Biso   1.000  C
  C242     1.0000 0.55500  0.12614  0.88565  Biso   1.000  C
  C243     1.0000 0.53155  0.16199  0.95249  Biso   1.000  C
  N57      1.0000 0.38248  0.24973  0.69545  Biso   1.000  N
  H421     1.0000 0.36820  0.30670  0.68100  Biso   1.000  H
  H422     1.0000 0.32882  0.28059  0.69181  Biso   1.000  H
  N58      1.0000 0.48787  0.16576  0.94313  Biso   1.000  N
  H423     1.0000 0.44821  0.17320  0.89211  Biso   1.000  H
  H424     1.0000 0.48899  0.19869  0.88751  Biso   1.000  H
  H425     1.0000 0.48829  0.19720  0.88619  Biso   1.000  H
  H426     1.0000 0.50920  0.22039  0.92531  Biso   1.000  H
  H427     1.0000 0.37290  0.15641  0.71240  Biso   1.000  H
  N59      1.0000 0.44039  0.09866  0.75579  Biso   1.000  N
  H428     1.0000 0.42541  0.06680  0.70220  Biso   1.000  H
  H429     1.0000 0.38670  0.08710  0.72420  Biso   1.000  H
  H430     1.0000 0.33770  0.21180  0.67669  Biso   1.000  H
  H431     1.0000 0.35950  0.23329  0.63700  Biso   1.000  H
  N60      1.0000 0.55216  0.09393  0.78143  Biso   1.000  N
  H432     1.0000 0.60619  0.08091  0.81221  Biso   1.000  H
  H433     1.0000 0.56699  0.06561  0.83791  Biso   1.000  H
  H434     1.0000 0.53631  0.10581  0.89211  Biso   1.000  H
  H435     1.0000 0.54059  0.18500  0.96931  Biso   1.000  H
  H436     1.0000 0.53589  0.13849  0.97050  Biso   1.000  H
  H437     1.0000 0.38551  0.23840  0.72169  Biso   1.000  H
  H438     1.0000 0.40779  0.25639  0.68580  Biso   1.000  H
  H439     1.0000 0.47871  0.14091  0.93911  Biso   1.000  H
  H440     1.0000 0.47630  0.17419  0.96809  Biso   1.000  H
  H441     1.0000 0.47862  0.14511  0.92750  Biso   1.000  H
  H442     1.0000 0.47300  0.16780  0.96780  Biso   1.000  H
  H443     1.0000 0.43420  0.08021  0.77580  Biso   1.000  H
  H444     1.0000 0.43319  0.12231  0.76679  Biso   1.000  H
  C244     1.0000 0.48497  0.09828  0.74801  Biso   1.000  C
  C245     1.0000 0.50774  0.09702  0.79085  Biso   1.000  C
  H445     1.0000 0.55631  0.07361  0.76309  Biso   1.000  H
  H446     1.0000 0.56040  0.11609  0.76788  Biso   1.000  H
  H447     1.0000 0.49229  0.07521  0.73051  Biso   1.000  H
  H448     1.0000 0.49299  0.12199  0.73179  Biso   1.000  H
  H449     1.0000 0.49861  0.07431  0.80800  Biso   1.000  H
  H450     1.0000 0.50209  0.12100  0.80761  Biso   1.000  H
  C246     1.0000 0.45083  0.58974  0.68325  Biso   1.000  C
  N61      1.0000 0.48783  0.59321  0.71204  Biso   1.000  N
  C247     1.0000 0.42498  0.62609  0.68325  Biso   1.000  C
  H451     1.0000 0.43401  0.56740  0.69300  Biso   1.000  H
  H452     1.0000 0.45990  0.58431  0.65350  Biso   1.000  H
  H453     1.0000 0.50240  0.61459  0.70391  Biso   1.000  H
  H454     1.0000 0.50401  0.57190  0.70789  Biso   1.000  H
  C248     1.0000 0.47846  0.59643  0.75843  Biso   1.000  C
  C249     1.0000 0.43698  0.65932  0.65993  Biso   1.000  C
  C250     1.0000 0.38786  0.62615  0.70506  Biso   1.000  C
  H455     1.0000 0.46479  0.62159  0.76451  Biso   1.000  H
  H456     1.0000 0.45999  0.57499  0.76731  Biso   1.000  H
  C251     1.0000 0.51848  0.59394  0.78281  Biso   1.000  C
  C252     1.0000 0.41118  0.69187  0.65800  Biso   1.000  C
  H457     1.0000 0.46250  0.65970  0.64549  Biso   1.000  H
  H458     1.0000 0.37989  0.60390  0.72121  Biso   1.000  H
  C253     1.0000 0.36209  0.65876  0.70345  Biso   1.000  C
  N62      1.0000 0.51097  0.59392  0.83019  Biso   1.000  N
  H459     1.0000 0.53589  0.61651  0.77509  Biso   1.000  H
  H460     1.0000 0.53311  0.56971  0.77461  Biso   1.000  H
  C254     1.0000 0.37381  0.69097  0.67930  Biso   1.000  C
  C255     1.0000 0.42324  0.72668  0.63114  Biso   1.000  C
  C256     1.0000 0.32240  0.65868  0.72732  Biso   1.000  C
  H461     1.0000 0.50020  0.61739  0.83801  Biso   1.000  H
  H462     1.0000 0.49229  0.57511  0.83659  Biso   1.000  H
  C257     1.0000 0.54901  0.58670  0.85564  Biso   1.000  C
  H463     1.0000 0.35598  0.71281  0.67721  Biso   1.000  H
  N63      1.0000 0.42156  0.76344  0.65720  Biso   1.000  N
  H464     1.0000 0.40449  0.72901  0.60621  Biso   1.000  H
  H465     1.0000 0.45129  0.72291  0.62001  Biso   1.000  H
  N64      1.0000 0.32869  0.66612  0.77441  Biso   1.000  N
  H466     1.0000 0.30430  0.67909  0.71529  Biso   1.000  H
  H467     1.0000 0.30879  0.63310  0.72340  Biso   1.000  H
  C258     1.0000 0.57835  0.62124  0.85293  Biso   1.000  C
  H468     1.0000 0.54169  0.58200  0.88610  Biso   1.000  H
  H469     1.0000 0.56281  0.56299  0.84460  Biso   1.000  H
  H470     1.0000 0.43991  0.76169  0.67910  Biso   1.000  H
  H471     1.0000 0.39631  0.76569  0.66900  Biso   1.000  H
  C259     1.0000 0.43050  0.79915  0.63150  Biso   1.000  C
  H472     1.0000 0.33981  0.64449  0.78690  Biso   1.000  H
  H473     1.0000 0.30409  0.67071  0.78709  Biso   1.000  H
  C260     1.0000 0.35611  0.70025  0.78159  Biso   1.000  C
  C261     1.0000 0.57185  0.65292  0.88008  Biso   1.000  C
  C262     1.0000 0.61196  0.62086  0.82601  Biso   1.000  C
  H474     1.0000 0.41521  0.79801  0.60409  Biso   1.000  H
  H475     1.0000 0.42101  0.82239  0.64748  Biso   1.000  H
  C263     1.0000 0.47581  0.80318  0.62201  Biso   1.000  C
  H476     1.0000 0.38471  0.69109  0.78419  Biso   1.000  H
  H477     1.0000 0.35449  0.71809  0.75669  Biso   1.000  H
  C264     1.0000 0.34411  0.72171  0.82183  Biso   1.000  C
  C265     1.0000 0.59865  0.68425  0.88011  Biso   1.000  C
  H478     1.0000 0.54889  0.65310  0.89871  Biso   1.000  H
  C266     1.0000 0.63886  0.65275  0.82533  Biso   1.000  C
  H479     1.0000 0.61681  0.59900  0.80790  Biso   1.000  H
  N65      1.0000 0.48170  0.83856  0.59467  Biso   1.000  N
  H480     1.0000 0.48579  0.77970  0.60670  Biso   1.000  H
  H481     1.0000 0.49131  0.80589  0.64919  Biso   1.000  H
  N66      1.0000 0.37177  0.75626  0.82578  Biso   1.000  N
  H482     1.0000 0.34710  0.70449  0.84721  Biso   1.000  H
  H483     1.0000 0.31529  0.73030  0.81990  Biso   1.000  H
  C267     1.0000 0.63162  0.68422  0.85248  Biso   1.000  C
  C268     1.0000 0.59248  0.71766  0.91103  Biso   1.000  C
  C269     1.0000 0.67583  0.65322  0.79674  Biso   1.000  C
  H484     1.0000 0.46640  0.83600  0.57041  Biso   1.000  H
  H485     1.0000 0.47239  0.85979  0.60930  Biso   1.000  H
  C270     1.0000 0.52548  0.84572  0.58183  Biso   1.000  C
  H486     1.0000 0.37281  0.76910  0.80021  Biso   1.000  H
  H487     1.0000 0.39750  0.74791  0.83219  Biso   1.000  H
  C271     1.0000 0.35751  0.78353  0.85985  Biso   1.000  C
  H488     1.0000 0.64960  0.70601  0.85200  Biso   1.000  H
  N67      1.0000 0.56000  0.74434  0.89607  Biso   1.000  N
  H489     1.0000 0.61840  0.73240  0.91399  Biso   1.000  H
  H490     1.0000 0.58510  0.70720  0.93969  Biso   1.000  H
  N68      1.0000 0.66627  0.66344  0.75087  Biso   1.000  N
  H491     1.0000 0.68889  0.62720  0.79751  Biso   1.000  H
  H492     1.0000 0.69570  0.67240  0.80819  Biso   1.000  H
  C272     1.0000 0.55396  0.84586  0.61985  Biso   1.000  C
  H493     1.0000 0.52740  0.87121  0.56691  Biso   1.000  H
  H494     1.0000 0.53421  0.82519  0.56141  Biso   1.000  H
  C273     1.0000 0.38886  0.81497  0.86776  Biso   1.000  C
  H495     1.0000 0.33141  0.79561  0.85091  Biso   1.000  H
  H496     1.0000 0.35260  0.76890  0.88681  Biso   1.000  H
  H497     1.0000 0.56699  0.75421  0.86989  Biso   1.000  H
  H498     1.0000 0.53640  0.73059  0.89279  Biso   1.000  H
  C274     1.0000 0.55298  0.77699  0.92634  Biso   1.000  C
  H499     1.0000 0.65241  0.64320  0.73871  Biso   1.000  H
  H500     1.0000 0.69011  0.66641  0.73620  Biso   1.000  H
  C275     1.0000 0.64145  0.69999  0.74595  Biso   1.000  C
  C276     1.0000 0.55500  0.87626  0.64929  Biso   1.000  C
  C277     1.0000 0.58033  0.81427  0.62545  Biso   1.000  C
  C278     1.0000 0.39170  0.84724  0.84094  Biso   1.000  C
  C279     1.0000 0.41472  0.81191  0.90318  Biso   1.000  C
  H501     1.0000 0.57969  0.78580  0.93769  Biso   1.000  H
  H502     1.0000 0.53680  0.76720  0.95101  Biso   1.000  H
  C280     1.0000 0.53210  0.81039  0.90800  Biso   1.000  C
  H503     1.0000 0.57560  0.79599  0.92389  Biso   1.000  H
  H504     1.0000 0.55271  0.76691  0.95619  Biso   1.000  H
  C281     1.0000 0.51381  0.79681  0.91730  Biso   1.000  C
  H505     1.0000 0.65241  0.72049  0.76509  Biso   1.000  H
  H506     1.0000 0.61279  0.69479  0.75450  Biso   1.000  H
  C282     1.0000 0.64258  0.71395  0.70027  Biso   1.000  C
  H507     1.0000 0.53711  0.89781  0.64572  Biso   1.000  H
  C283     1.0000 0.58183  0.87573  0.68396  Biso   1.000  C
  C284     1.0000 0.60753  0.81331  0.66000  Biso   1.000  C
  H508     1.0000 0.57969  0.79319  0.60560  Biso   1.000  H
  C285     1.0000 0.42034  0.87661  0.84943  Biso   1.000  C
  H509     1.0000 0.37421  0.84940  0.81671  Biso   1.000  H
  C286     1.0000 0.44238  0.84128  0.91251  Biso   1.000  C
  H510     1.0000 0.41329  0.78951  0.92109  Biso   1.000  H
  N69      1.0000 0.51213  0.83424  0.94313  Biso   1.000  N
  H511     1.0000 0.55179  0.82680  0.89211  Biso   1.000  H
  H512     1.0000 0.51101  0.80131  0.88751  Biso   1.000  H
  H513     1.0000 0.51171  0.80280  0.88619  Biso   1.000  H
  H514     1.0000 0.49080  0.77961  0.92531  Biso   1.000  H
  N70      1.0000 0.61752  0.75027  0.69545  Biso   1.000  N
  H515     1.0000 0.63180  0.69330  0.68100  Biso   1.000  H
  H516     1.0000 0.67118  0.71941  0.69181  Biso   1.000  H
  C287     1.0000 0.60845  0.84405  0.68908  Biso   1.000  C
  C288     1.0000 0.58442  0.90893  0.71600  Biso   1.000  C
  C289     1.0000 0.63568  0.77912  0.66530  Biso   1.000  C
  C290     1.0000 0.44500  0.87386  0.88565  Biso   1.000  C
  C291     1.0000 0.42186  0.91217  0.82115  Biso   1.000  C
  C292     1.0000 0.46845  0.83801  0.95249  Biso   1.000  C
  H517     1.0000 0.52129  0.85909  0.93911  Biso   1.000  H
  H518     1.0000 0.52370  0.82581  0.96809  Biso   1.000  H
  H519     1.0000 0.52138  0.85489  0.92750  Biso   1.000  H
  H520     1.0000 0.52700  0.83220  0.96780  Biso   1.000  H
  H521     1.0000 0.61449  0.76160  0.72169  Biso   1.000  H
  H522     1.0000 0.59221  0.74361  0.68580  Biso   1.000  H
  H523     1.0000 0.62710  0.84359  0.71240  Biso   1.000  H
  N71      1.0000 0.55961  0.90134  0.75579  Biso   1.000  N
  H524     1.0000 0.57459  0.93320  0.70220  Biso   1.000  H
  H525     1.0000 0.61330  0.91290  0.72420  Biso   1.000  H
  H526     1.0000 0.66230  0.78820  0.67669  Biso   1.000  H
  H527     1.0000 0.64050  0.76671  0.63700  Biso   1.000  H
  H528     1.0000 0.46369  0.89419  0.89211  Biso   1.000  H
  N72      1.0000 0.44784  0.90607  0.78143  Biso   1.000  N
  H529     1.0000 0.39381  0.91909  0.81221  Biso   1.000  H
  H530     1.0000 0.43301  0.93439  0.83791  Biso   1.000  H
  H531     1.0000 0.45941  0.81500  0.96931  Biso   1.000  H
  H532     1.0000 0.46411  0.86151  0.97050  Biso   1.000  H
  H533     1.0000 0.56580  0.91979  0.77580  Biso   1.000  H
  H534     1.0000 0.56681  0.87769  0.76679  Biso   1.000  H
  C293     1.0000 0.51503  0.90172  0.74801  Biso   1.000  C
  H535     1.0000 0.44369  0.92639  0.76309  Biso   1.000  H
  H536     1.0000 0.43960  0.88391  0.76788  Biso   1.000  H
  C294     1.0000 0.49226  0.90298  0.79085  Biso   1.000  C
  H537     1.0000 0.50771  0.92479  0.73051  Biso   1.000  H
  H538     1.0000 0.50701  0.87801  0.73179  Biso   1.000  H
  H539     1.0000 0.50139  0.92569  0.80800  Biso   1.000  H
  H540     1.0000 0.49791  0.87900  0.80761  Biso   1.000  H
  C295     1.0000 0.28156  0.58799  0.20249  Biso   1.000  C
  N73      1.0000 0.23784  0.58422  0.19313  Biso   1.000  N
  C296     1.0000 0.30760  0.59129  0.16251  Biso   1.000  C
  H541     1.0000 0.29059  0.56501  0.21931  Biso   1.000  H
  H542     1.0000 0.28589  0.61149  0.22050  Biso   1.000  H
  C297     1.0000 0.21791  0.56040  0.15800  Biso   1.000  C
  C298     1.0000 0.23619  0.54679  0.16730  Biso   1.000  C
  H543     1.0000 0.22871  0.60910  0.18911  Biso   1.000  H
  H544     1.0000 0.22630  0.57581  0.21809  Biso   1.000  H
  H545     1.0000 0.22859  0.60489  0.17750  Biso   1.000  H
  H546     1.0000 0.22301  0.58221  0.21780  Biso   1.000  H
  C299     1.0000 0.30500  0.62387  0.13565  Biso   1.000  C
  C300     1.0000 0.33529  0.56191  0.15318  Biso   1.000  C
  C301     1.0000 0.19700  0.52699  0.17634  Biso   1.000  C
  H547     1.0000 0.19819  0.57681  0.14211  Biso   1.000  H
  H548     1.0000 0.23900  0.55129  0.13751  Biso   1.000  H
  H549     1.0000 0.23830  0.55280  0.13619  Biso   1.000  H
  H550     1.0000 0.25921  0.52959  0.17531  Biso   1.000  H
  H551     1.0000 0.28629  0.64419  0.14211  Biso   1.000  H
  C302     1.0000 0.32967  0.62662  0.09943  Biso   1.000  C
  C303     1.0000 0.36114  0.56498  0.11776  Biso   1.000  C
  H552     1.0000 0.33669  0.53949  0.17109  Biso   1.000  H
  N74      1.0000 0.19001  0.49435  0.14607  Biso   1.000  N
  H553     1.0000 0.17031  0.53581  0.18769  Biso   1.000  H
  H554     1.0000 0.21321  0.51721  0.20101  Biso   1.000  H
  H555     1.0000 0.17441  0.54600  0.17389  Biso   1.000  H
  H556     1.0000 0.19730  0.51689  0.20619  Biso   1.000  H
  C304     1.0000 0.35831  0.59724  0.09094  Biso   1.000  C
  C305     1.0000 0.32814  0.66215  0.07115  Biso   1.000  C
  C306     1.0000 0.39250  0.53353  0.10985  Biso   1.000  C
  C307     1.0000 0.15752  0.46766  0.16103  Biso   1.000  C
  H557     1.0000 0.18301  0.50419  0.11989  Biso   1.000  H
  H558     1.0000 0.21360  0.48060  0.14279  Biso   1.000  H
  H559     1.0000 0.37580  0.59940  0.06671  Biso   1.000  H
  N75      1.0000 0.30216  0.65608  0.03143  Biso   1.000  N
  H560     1.0000 0.35620  0.66910  0.06221  Biso   1.000  H
  H561     1.0000 0.31700  0.68440  0.08791  Biso   1.000  H
  N76      1.0000 0.37824  0.50626  0.07578  Biso   1.000  N
  H562     1.0000 0.41860  0.54559  0.10091  Biso   1.000  H
  H563     1.0000 0.39741  0.51891  0.13681  Biso   1.000  H
  C308     1.0000 0.15136  0.43423  0.13011  Biso   1.000  C
  H564     1.0000 0.13161  0.48241  0.16399  Biso   1.000  H
  H565     1.0000 0.16491  0.45721  0.18969  Biso   1.000  H
  H566     1.0000 0.30629  0.67640  0.01309  Biso   1.000  H
  H567     1.0000 0.31041  0.63389  0.01788  Biso   1.000  H
  C309     1.0000 0.25775  0.65298  0.04085  Biso   1.000  C
  C310     1.0000 0.40590  0.47169  0.07183  Biso   1.000  C
  H568     1.0000 0.37720  0.51911  0.05021  Biso   1.000  H
  H569     1.0000 0.35250  0.49791  0.08219  Biso   1.000  H
  C311     1.0000 0.17816  0.40293  0.13008  Biso   1.000  C
  C312     1.0000 0.11839  0.43420  0.10248  Biso   1.000  C
  C313     1.0000 0.23497  0.65170  0.99801  Biso   1.000  C
  H570     1.0000 0.24859  0.67570  0.05800  Biso   1.000  H
  H571     1.0000 0.25210  0.62901  0.05761  Biso   1.000  H
  C314     1.0000 0.39390  0.45026  0.03159  Biso   1.000  C
  H572     1.0000 0.40291  0.45450  0.09721  Biso   1.000  H
  H573     1.0000 0.43469  0.48031  0.06990  Biso   1.000  H
  C315     1.0000 0.17166  0.37122  0.10293  Biso   1.000  C
  H574     1.0000 0.20109  0.40311  0.14871  Biso   1.000  H
  C316     1.0000 0.11112  0.40276  0.07533  Biso   1.000  C
  H575     1.0000 0.10041  0.45601  0.10200  Biso   1.000  H
  N77      1.0000 0.19037  0.65132  0.00579  Biso   1.000  N
  H576     1.0000 0.24230  0.67479  0.98051  Biso   1.000  H
  H577     1.0000 0.24300  0.62799  0.98179  Biso   1.000  H
  N78      1.0000 0.42131  0.41613  0.02441  Biso   1.000  N
  H578     1.0000 0.36530  0.44109  0.03419  Biso   1.000  H
  H579     1.0000 0.39549  0.46810  0.00669  Biso   1.000  H
  C317     1.0000 0.20100  0.33671  0.10564  Biso   1.000  C
  C318     1.0000 0.13805  0.37087  0.07601  Biso   1.000  C
  C319     1.0000 0.07415  0.40322  0.04674  Biso   1.000  C
  C320     1.0000 0.16558  0.65894  0.96600  Biso   1.000  C
  H580     1.0000 0.18420  0.66980  0.02580  Biso   1.000  H
  H581     1.0000 0.18320  0.62770  0.01679  Biso   1.000  H
  C321     1.0000 0.42760  0.40868  0.97732  Biso   1.000  C
  H582     1.0000 0.41020  0.39449  0.03690  Biso   1.000  H
  H583     1.0000 0.44589  0.42071  0.03709  Biso   1.000  H
  N79      1.0000 0.23903  0.34392  0.08019  Biso   1.000  N
  H584     1.0000 0.20829  0.33201  0.13610  Biso   1.000  H
  H585     1.0000 0.18720  0.31300  0.09460  Biso   1.000  H
  H586     1.0000 0.13319  0.34900  0.05790  Biso   1.000  H
  N80      1.0000 0.08374  0.41344  0.00087  Biso   1.000  N
  H587     1.0000 0.06109  0.37721  0.04751  Biso   1.000  H
  H588     1.0000 0.05431  0.42241  0.05819  Biso   1.000  H
  C322     1.0000 0.16815  0.62574  0.93396  Biso   1.000  C
  H589     1.0000 0.17541  0.68320  0.95220  Biso   1.000  H
  H590     1.0000 0.13670  0.66291  0.97420  Biso   1.000  H
  C323     1.0000 0.38792  0.40877  0.95345  Biso   1.000  C
  H591     1.0000 0.44571  0.42909  0.96529  Biso   1.000  H
  H592     1.0000 0.44119  0.38311  0.97340  Biso   1.000  H
  H593     1.0000 0.24981  0.36740  0.08801  Biso   1.000  H
  H594     1.0000 0.25769  0.32509  0.08659  Biso   1.000  H
  C324     1.0000 0.23152  0.34392  0.03281  Biso   1.000  C
  H595     1.0000 0.09760  0.39321  0.98871  Biso   1.000  H
  H596     1.0000 0.05990  0.41639  0.98620  Biso   1.000  H
  C325     1.0000 0.10856  0.45000  0.99595  Biso   1.000  C
  C326     1.0000 0.14153  0.59403  0.93908  Biso   1.000  C
  C327     1.0000 0.19501  0.62627  0.89929  Biso   1.000  C
  C328     1.0000 0.36215  0.37616  0.95506  Biso   1.000  C
  C329     1.0000 0.37619  0.44098  0.92930  Biso   1.000  C
  C330     1.0000 0.27155  0.34643  0.00843  Biso   1.000  C
  H597     1.0000 0.21409  0.36649  0.02509  Biso   1.000  H
  H598     1.0000 0.21690  0.31969  0.02461  Biso   1.000  H
  H599     1.0000 0.09760  0.47050  0.01509  Biso   1.000  H
  H600     1.0000 0.13719  0.44480  0.00450  Biso   1.000  H
  C331     1.0000 0.10743  0.46396  0.95027  Biso   1.000  C
  C332     1.0000 0.14247  0.56329  0.91000  Biso   1.000  C
  H601     1.0000 0.12291  0.59359  0.96240  Biso   1.000  H
  C333     1.0000 0.19605  0.59587  0.86985  Biso   1.000  C
  H602     1.0000 0.21290  0.64781  0.89572  Biso   1.000  H
  C334     1.0000 0.32503  0.37607  0.93325  Biso   1.000  C
  H603     1.0000 0.37009  0.35391  0.97121  Biso   1.000  H
  C335     1.0000 0.33883  0.44188  0.90800  Biso   1.000  C
  H604     1.0000 0.39399  0.46279  0.92721  Biso   1.000  H
  H605     1.0000 0.28519  0.37160  0.01451  Biso   1.000  H
  H606     1.0000 0.29001  0.32500  0.01731  Biso   1.000  H
  N81      1.0000 0.26217  0.34322  0.96204  Biso   1.000  N
  N82      1.0000 0.13249  0.50028  0.94545  Biso   1.000  N
  H607     1.0000 0.11820  0.44331  0.93100  Biso   1.000  H
  H608     1.0000 0.07879  0.46939  0.94181  Biso   1.000  H
  C336     1.0000 0.11433  0.52912  0.91530  Biso   1.000  C
  C337     1.0000 0.16967  0.56425  0.87545  Biso   1.000  C
  C338     1.0000 0.22453  0.59573  0.83183  Biso   1.000  C
  C339     1.0000 0.29917  0.33975  0.93325  Biso   1.000  C
  C340     1.0000 0.31303  0.40933  0.90993  Biso   1.000  C
  C341     1.0000 0.32677  0.47669  0.88114  Biso   1.000  C
  H609     1.0000 0.24761  0.36459  0.95391  Biso   1.000  H
  H610     1.0000 0.24599  0.32191  0.95789  Biso   1.000  H
  H611     1.0000 0.13551  0.51161  0.97169  Biso   1.000  H
  H612     1.0000 0.15780  0.49359  0.93580  Biso   1.000  H
  H613     1.0000 0.08771  0.53821  0.92669  Biso   1.000  H
  H614     1.0000 0.10950  0.51669  0.88700  Biso   1.000  H
  H615     1.0000 0.17031  0.54320  0.85560  Biso   1.000  H
  N83      1.0000 0.26828  0.58857  0.84467  Biso   1.000  N
  H616     1.0000 0.22261  0.62119  0.81691  Biso   1.000  H
  H617     1.0000 0.21580  0.57520  0.81141  Biso   1.000  H
  H618     1.0000 0.31599  0.31741  0.94300  Biso   1.000  H
  H619     1.0000 0.29011  0.33429  0.90350  Biso   1.000  H
  H620     1.0000 0.28751  0.40971  0.89549  Biso   1.000  H
  N84      1.0000 0.32845  0.51345  0.90720  Biso   1.000  N
  H621     1.0000 0.34551  0.47899  0.85621  Biso   1.000  H
  H622     1.0000 0.29871  0.47289  0.87001  Biso   1.000  H
  C342     1.0000 0.27420  0.55318  0.87201  Biso   1.000  C
  H623     1.0000 0.28360  0.58600  0.82041  Biso   1.000  H
  H624     1.0000 0.27759  0.60980  0.85930  Biso   1.000  H
  H625     1.0000 0.31010  0.51169  0.92910  Biso   1.000  H
  H626     1.0000 0.35370  0.51569  0.91900  Biso   1.000  H
  C343     1.0000 0.31950  0.54913  0.88150  Biso   1.000  C
  H627     1.0000 0.26419  0.52971  0.85670  Biso   1.000  H
  H628     1.0000 0.25869  0.55590  0.89919  Biso   1.000  H
  H629     1.0000 0.33480  0.54799  0.85409  Biso   1.000  H
  H630     1.0000 0.32900  0.57240  0.89748  Biso   1.000  H
  C344     1.0000 0.66471  0.43809  0.15318  Biso   1.000  C
  C345     1.0000 0.63886  0.43502  0.11776  Biso   1.000  C
  C346     1.0000 0.69240  0.40871  0.16251  Biso   1.000  C
  H631     1.0000 0.66331  0.46051  0.17109  Biso   1.000  H
  C347     1.0000 0.60750  0.46647  0.10985  Biso   1.000  C
  C348     1.0000 0.64169  0.40276  0.09094  Biso   1.000  C
  C349     1.0000 0.69500  0.37613  0.13565  Biso   1.000  C
  C350     1.0000 0.71844  0.41201  0.20249  Biso   1.000  C
  N85      1.0000 0.62176  0.49374  0.07578  Biso   1.000  N
  H632     1.0000 0.58140  0.45441  0.10091  Biso   1.000  H
  H633     1.0000 0.60259  0.48109  0.13681  Biso   1.000  H
  C351     1.0000 0.67033  0.37338  0.09943  Biso   1.000  C
  H634     1.0000 0.62420  0.40060  0.06671  Biso   1.000  H
  H635     1.0000 0.71371  0.35581  0.14211  Biso   1.000  H
  N86      1.0000 0.76216  0.41578  0.19313  Biso   1.000  N
  H636     1.0000 0.70941  0.43499  0.21931  Biso   1.000  H
  H637     1.0000 0.71411  0.38851  0.22050  Biso   1.000  H
  H638     1.0000 0.62280  0.48089  0.05021  Biso   1.000  H
  H639     1.0000 0.64750  0.50209  0.08219  Biso   1.000  H
  C352     1.0000 0.59410  0.52831  0.07183  Biso   1.000  C
  C353     1.0000 0.67186  0.33785  0.07115  Biso   1.000  C
  H640     1.0000 0.77129  0.39090  0.18911  Biso   1.000  H
  H641     1.0000 0.77370  0.42419  0.21809  Biso   1.000  H
  C354     1.0000 0.78209  0.43960  0.15800  Biso   1.000  C
  H642     1.0000 0.77141  0.39511  0.17750  Biso   1.000  H
  H643     1.0000 0.77699  0.41779  0.21780  Biso   1.000  H
  C355     1.0000 0.76381  0.45321  0.16730  Biso   1.000  C
  C356     1.0000 0.60610  0.54974  0.03159  Biso   1.000  C
  H644     1.0000 0.59709  0.54550  0.09721  Biso   1.000  H
  H645     1.0000 0.56531  0.51969  0.06990  Biso   1.000  H
  N87      1.0000 0.69784  0.34392  0.03143  Biso   1.000  N
  H646     1.0000 0.64380  0.33090  0.06221  Biso   1.000  H
  H647     1.0000 0.68300  0.31560  0.08791  Biso   1.000  H
  C357     1.0000 0.80300  0.47301  0.17634  Biso   1.000  C
  H648     1.0000 0.80181  0.42319  0.14211  Biso   1.000  H
  H649     1.0000 0.76100  0.44871  0.13751  Biso   1.000  H
  H650     1.0000 0.76170  0.44720  0.13619  Biso   1.000  H
  H651     1.0000 0.74079  0.47041  0.17531  Biso   1.000  H
  N88      1.0000 0.57869  0.58387  0.02441  Biso   1.000  N
  H652     1.0000 0.63470  0.55891  0.03419  Biso   1.000  H
  H653     1.0000 0.60451  0.53190  0.00669  Biso   1.000  H
  H654     1.0000 0.69371  0.32360  0.01309  Biso   1.000  H
  H655     1.0000 0.68959  0.36611  0.01788  Biso   1.000  H
  C358     1.0000 0.74225  0.34702  0.04085  Biso   1.000  C
  N89      1.0000 0.80999  0.50565  0.14607  Biso   1.000  N
  H656     1.0000 0.82969  0.46419  0.18769  Biso   1.000  H
  H657     1.0000 0.78679  0.48279  0.20101  Biso   1.000  H
  H658     1.0000 0.82559  0.45400  0.17389  Biso   1.000  H
  H659     1.0000 0.80270  0.48311  0.20619  Biso   1.000  H
  H660     1.0000 0.58980  0.60551  0.03690  Biso   1.000  H
  H661     1.0000 0.55411  0.57929  0.03709  Biso   1.000  H
  C359     1.0000 0.57240  0.59132  0.97732  Biso   1.000  C
  H662     1.0000 0.75141  0.32430  0.05800  Biso   1.000  H
  H663     1.0000 0.74790  0.37099  0.05761  Biso   1.000  H
  C360     1.0000 0.76503  0.34830  0.99801  Biso   1.000  C
  H664     1.0000 0.81699  0.49581  0.11989  Biso   1.000  H
  H665     1.0000 0.78640  0.51940  0.14279  Biso   1.000  H
  C361     1.0000 0.84248  0.53234  0.16103  Biso   1.000  C
  C362     1.0000 0.61208  0.59123  0.95345  Biso   1.000  C
  H666     1.0000 0.55429  0.57091  0.96529  Biso   1.000  H
  H667     1.0000 0.55881  0.61689  0.97340  Biso   1.000  H
  N90      1.0000 0.80963  0.34868  0.00579  Biso   1.000  N
  H668     1.0000 0.75770  0.32521  0.98051  Biso   1.000  H
  H669     1.0000 0.75700  0.37201  0.98179  Biso   1.000  H
  C363     1.0000 0.84864  0.56577  0.13011  Biso   1.000  C
  H670     1.0000 0.86839  0.51759  0.16399  Biso   1.000  H
  H671     1.0000 0.83509  0.54279  0.18969  Biso   1.000  H
  C364     1.0000 0.63785  0.62384  0.95506  Biso   1.000  C
  C365     1.0000 0.62381  0.55902  0.92930  Biso   1.000  C
  H672     1.0000 0.81580  0.33020  0.02580  Biso   1.000  H
  H673     1.0000 0.81680  0.37230  0.01679  Biso   1.000  H
  C366     1.0000 0.83442  0.34106  0.96600  Biso   1.000  C
  C367     1.0000 0.88161  0.56580  0.10248  Biso   1.000  C
  C368     1.0000 0.82184  0.59707  0.13008  Biso   1.000  C
  C369     1.0000 0.67497  0.62393  0.93325  Biso   1.000  C
  H674     1.0000 0.62991  0.64609  0.97121  Biso   1.000  H
  C370     1.0000 0.66117  0.55812  0.90800  Biso   1.000  C
  H675     1.0000 0.60601  0.53721  0.92721  Biso   1.000  H
  C371     1.0000 0.83185  0.37426  0.93396  Biso   1.000  C
  H676     1.0000 0.82459  0.31680  0.95220  Biso   1.000  H
  H677     1.0000 0.86330  0.33709  0.97420  Biso   1.000  H
  C372     1.0000 0.88888  0.59724  0.07533  Biso   1.000  C
  H678     1.0000 0.89959  0.54399  0.10200  Biso   1.000  H
  H679     1.0000 0.79891  0.59689  0.14871  Biso   1.000  H
  C373     1.0000 0.82834  0.62878  0.10293  Biso   1.000  C
  C374     1.0000 0.68697  0.59067  0.90993  Biso   1.000  C
  C375     1.0000 0.70083  0.66025  0.93325  Biso   1.000  C
  C376     1.0000 0.67323  0.52331  0.88114  Biso   1.000  C
  C377     1.0000 0.80499  0.37373  0.89929  Biso   1.000  C
  C378     1.0000 0.85847  0.40597  0.93908  Biso   1.000  C
  C379     1.0000 0.86195  0.62913  0.07601  Biso   1.000  C
  C380     1.0000 0.92585  0.59678  0.04674  Biso   1.000  C
  C381     1.0000 0.79900  0.66329  0.10564  Biso   1.000  C
  H680     1.0000 0.71249  0.59029  0.89549  Biso   1.000  H
  N91      1.0000 0.73783  0.65678  0.96204  Biso   1.000  N
  H681     1.0000 0.68401  0.68259  0.94300  Biso   1.000  H
  H682     1.0000 0.70989  0.66571  0.90350  Biso   1.000  H
  N92      1.0000 0.67155  0.48655  0.90720  Biso   1.000  N
  H683     1.0000 0.65449  0.52101  0.85621  Biso   1.000  H
  H684     1.0000 0.70129  0.52711  0.87001  Biso   1.000  H
  C382     1.0000 0.80395  0.40413  0.86985  Biso   1.000  C
  H685     1.0000 0.78710  0.35219  0.89572  Biso   1.000  H
  H686     1.0000 0.87709  0.40641  0.96240  Biso   1.000  H
  C383     1.0000 0.85753  0.43671  0.91000  Biso   1.000  C
  H687     1.0000 0.86681  0.65100  0.05790  Biso   1.000  H
  N93      1.0000 0.91626  0.58656  0.00087  Biso   1.000  N
  H688     1.0000 0.93891  0.62279  0.04751  Biso   1.000  H
  H689     1.0000 0.94569  0.57759  0.05819  Biso   1.000  H
  N94      1.0000 0.76097  0.65608  0.08019  Biso   1.000  N
  H690     1.0000 0.79171  0.66799  0.13610  Biso   1.000  H
  H691     1.0000 0.81280  0.68700  0.09460  Biso   1.000  H
  C384     1.0000 0.72845  0.65357  0.00843  Biso   1.000  C
  H692     1.0000 0.75239  0.63541  0.95391  Biso   1.000  H
  H693     1.0000 0.75401  0.67809  0.95789  Biso   1.000  H
  H694     1.0000 0.68990  0.48831  0.92910  Biso   1.000  H
  H695     1.0000 0.64630  0.48431  0.91900  Biso   1.000  H
  C385     1.0000 0.68050  0.45087  0.88150  Biso   1.000  C
  C386     1.0000 0.83033  0.43575  0.87545  Biso   1.000  C
  C387     1.0000 0.77547  0.40427  0.83183  Biso   1.000  C
  C388     1.0000 0.88567  0.47088  0.91530  Biso   1.000  C
  H696     1.0000 0.90240  0.60679  0.98871  Biso   1.000  H
  H697     1.0000 0.94010  0.58361  0.98620  Biso   1.000  H
  C389     1.0000 0.89144  0.55000  0.99595  Biso   1.000  C
  C390     1.0000 0.76848  0.65608  0.03281  Biso   1.000  C
  H698     1.0000 0.75019  0.63260  0.08801  Biso   1.000  H
  H699     1.0000 0.74231  0.67491  0.08659  Biso   1.000  H
  H700     1.0000 0.71481  0.62840  0.01451  Biso   1.000  H
  H701     1.0000 0.70999  0.67500  0.01731  Biso   1.000  H
  H702     1.0000 0.66520  0.45201  0.85409  Biso   1.000  H
  H703     1.0000 0.67100  0.42760  0.89748  Biso   1.000  H
  C391     1.0000 0.72580  0.44682  0.87201  Biso   1.000  C
  H704     1.0000 0.82969  0.45680  0.85560  Biso   1.000  H
  N95      1.0000 0.73172  0.41143  0.84467  Biso   1.000  N
  H705     1.0000 0.77739  0.37881  0.81691  Biso   1.000  H
  H706     1.0000 0.78420  0.42480  0.81141  Biso   1.000  H
  N96      1.0000 0.86751  0.49972  0.94545  Biso   1.000  N
  H707     1.0000 0.91229  0.46179  0.92669  Biso   1.000  H
  H708     1.0000 0.89050  0.48331  0.88700  Biso   1.000  H
  C392     1.0000 0.89257  0.53604  0.95027  Biso   1.000  C
  H709     1.0000 0.90240  0.52950  0.01509  Biso   1.000  H
  H710     1.0000 0.86281  0.55520  0.00450  Biso   1.000  H
  H711     1.0000 0.78591  0.63351  0.02509  Biso   1.000  H
  H712     1.0000 0.78310  0.68031  0.02461  Biso   1.000  H
  H713     1.0000 0.73581  0.47029  0.85670  Biso   1.000  H
  H714     1.0000 0.74131  0.44410  0.89919  Biso   1.000  H
  H715     1.0000 0.71640  0.41400  0.82041  Biso   1.000  H
  H716     1.0000 0.72241  0.39020  0.85930  Biso   1.000  H
  H717     1.0000 0.86449  0.48839  0.97169  Biso   1.000  H
  H718     1.0000 0.84220  0.50641  0.93580  Biso   1.000  H
  H719     1.0000 0.88180  0.55669  0.93100  Biso   1.000  H
  H720     1.0000 0.92121  0.53061  0.94181  Biso   1.000  H
  C393     1.0000 0.32814  0.16217  0.57115  Biso   1.000  C
  N97      1.0000 0.30216  0.15606  0.53143  Biso   1.000  N
  C394     1.0000 0.32967  0.12660  0.59943  Biso   1.000  C
  H721     1.0000 0.35620  0.16911  0.56221  Biso   1.000  H
  H722     1.0000 0.31700  0.18441  0.58791  Biso   1.000  H
  C395     1.0000 0.25775  0.15297  0.54085  Biso   1.000  C
  H723     1.0000 0.30629  0.17641  0.51309  Biso   1.000  H
  H724     1.0000 0.31041  0.13390  0.51788  Biso   1.000  H
  C396     1.0000 0.30500  0.12386  0.63565  Biso   1.000  C
  C397     1.0000 0.35831  0.09726  0.59094  Biso   1.000  C
  C398     1.0000 0.23497  0.15171  0.49801  Biso   1.000  C
  H725     1.0000 0.24859  0.17571  0.55800  Biso   1.000  H
  H726     1.0000 0.25210  0.12900  0.55761  Biso   1.000  H
  C399     1.0000 0.30760  0.09130  0.66251  Biso   1.000  C
  H727     1.0000 0.28629  0.14421  0.64211  Biso   1.000  H
  H728     1.0000 0.37580  0.09939  0.56671  Biso   1.000  H
  C400     1.0000 0.36114  0.06499  0.61776  Biso   1.000  C
  N98      1.0000 0.19037  0.15133  0.50579  Biso   1.000  N
  H729     1.0000 0.24230  0.17481  0.48051  Biso   1.000  H
  H730     1.0000 0.24300  0.12800  0.48179  Biso   1.000  H
  C401     1.0000 0.33529  0.06193  0.65318  Biso   1.000  C
  C402     1.0000 0.28156  0.08800  0.70249  Biso   1.000  C
  C403     1.0000 0.39250  0.03355  0.60985  Biso   1.000  C
  C404     1.0000 0.16558  0.15892  0.46600  Biso   1.000  C
  H731     1.0000 0.18420  0.16979  0.52580  Biso   1.000  H
  H732     1.0000 0.18320  0.12771  0.51679  Biso   1.000  H
  H733     1.0000 0.33669  0.03950  0.67109  Biso   1.000  H
  N99      1.0000 0.23784  0.08424  0.69313  Biso   1.000  N
  H734     1.0000 0.29059  0.06499  0.71931  Biso   1.000  H
  H735     1.0000 0.28589  0.11151  0.72050  Biso   1.000  H
  N100     1.0000 0.37824  0.00625  0.57578  Biso   1.000  N
  H736     1.0000 0.41860  0.04561  0.60091  Biso   1.000  H
  H737     1.0000 0.39741  0.01889  0.63681  Biso   1.000  H
  C405     1.0000 0.16815  0.12573  0.43396  Biso   1.000  C
  H738     1.0000 0.17541  0.18319  0.45220  Biso   1.000  H
  H739     1.0000 0.13670  0.16290  0.47420  Biso   1.000  H
  H740     1.0000 0.22871  0.10911  0.68911  Biso   1.000  H
  H741     1.0000 0.22630  0.07580  0.71809  Biso   1.000  H
  C406     1.0000 0.21791  0.06041  0.65800  Biso   1.000  C
  H742     1.0000 0.22859  0.10491  0.67750  Biso   1.000  H
  H743     1.0000 0.22301  0.08219  0.71780  Biso   1.000  H
  C407     1.0000 0.23619  0.04680  0.66730  Biso   1.000  C
  C408     1.0000 0.40590  0.97171  0.57183  Biso   1.000  C
  H744     1.0000 0.37720  0.01910  0.55021  Biso   1.000  H
  H745     1.0000 0.35250  0.99790  0.58219  Biso   1.000  H
  C409     1.0000 0.19501  0.12628  0.39929  Biso   1.000  C
  C410     1.0000 0.14153  0.09405  0.43908  Biso   1.000  C
  C411     1.0000 0.19700  0.02701  0.67634  Biso   1.000  C
  H746     1.0000 0.19819  0.07679  0.64211  Biso   1.000  H
  H747     1.0000 0.23900  0.05130  0.63751  Biso   1.000  H
  H748     1.0000 0.23830  0.05279  0.63619  Biso   1.000  H
  H749     1.0000 0.25921  0.02961  0.67531  Biso   1.000  H
  C412     1.0000 0.39390  0.95025  0.53159  Biso   1.000  C
  H750     1.0000 0.40291  0.95451  0.59721  Biso   1.000  H
  H751     1.0000 0.43469  0.98029  0.56990  Biso   1.000  H
  C413     1.0000 0.19605  0.09586  0.36985  Biso   1.000  C
  H752     1.0000 0.21290  0.14780  0.39572  Biso   1.000  H
  C414     1.0000 0.14247  0.06330  0.41000  Biso   1.000  C
  H753     1.0000 0.12291  0.09361  0.46240  Biso   1.000  H
  N101     1.0000 0.19001  0.99434  0.64607  Biso   1.000  N
  H754     1.0000 0.17031  0.03580  0.68769  Biso   1.000  H
  H755     1.0000 0.21321  0.01720  0.70101  Biso   1.000  H
  H756     1.0000 0.17441  0.04599  0.67389  Biso   1.000  H
  H757     1.0000 0.19730  0.01691  0.70619  Biso   1.000  H
  N102     1.0000 0.42131  0.91611  0.52441  Biso   1.000  N
  H758     1.0000 0.36530  0.94111  0.53419  Biso   1.000  H
  H759     1.0000 0.39549  0.96809  0.50669  Biso   1.000  H
  C415     1.0000 0.22453  0.09574  0.33183  Biso   1.000  C
  C416     1.0000 0.16967  0.06426  0.37545  Biso   1.000  C
  C417     1.0000 0.11433  0.02914  0.41530  Biso   1.000  C
  C418     1.0000 0.15752  0.96765  0.66103  Biso   1.000  C
  H760     1.0000 0.18301  0.00420  0.61989  Biso   1.000  H
  H761     1.0000 0.21360  0.98061  0.64279  Biso   1.000  H
  C419     1.0000 0.42760  0.90870  0.47732  Biso   1.000  C
  H762     1.0000 0.41020  0.89451  0.53690  Biso   1.000  H
  H763     1.0000 0.44589  0.92070  0.53709  Biso   1.000  H
  N103     1.0000 0.26828  0.08856  0.34467  Biso   1.000  N
  H764     1.0000 0.22261  0.12120  0.31691  Biso   1.000  H
  H765     1.0000 0.21580  0.07521  0.31141  Biso   1.000  H
  H766     1.0000 0.17031  0.04321  0.35560  Biso   1.000  H
  N104     1.0000 0.13249  0.00026  0.44545  Biso   1.000  N
  H767     1.0000 0.08771  0.03819  0.42669  Biso   1.000  H
  H768     1.0000 0.10950  0.01670  0.38700  Biso   1.000  H
  C420     1.0000 0.15136  0.93425  0.63011  Biso   1.000  C
  H769     1.0000 0.13161  0.98239  0.66399  Biso   1.000  H
  H770     1.0000 0.16491  0.95720  0.68969  Biso   1.000  H
  C421     1.0000 0.38792  0.90876  0.45345  Biso   1.000  C
  H771     1.0000 0.44571  0.92911  0.46529  Biso   1.000  H
  H772     1.0000 0.44119  0.88309  0.47340  Biso   1.000  H
  H773     1.0000 0.28360  0.08599  0.32041  Biso   1.000  H
  H774     1.0000 0.27759  0.10981  0.35930  Biso   1.000  H
  C422     1.0000 0.27420  0.05320  0.37201  Biso   1.000  C
  H775     1.0000 0.13551  0.01159  0.47169  Biso   1.000  H
  H776     1.0000 0.15780  0.99361  0.43580  Biso   1.000  H
  C423     1.0000 0.10743  0.96394  0.45027  Biso   1.000  C
  C424     1.0000 0.11839  0.93422  0.60248  Biso   1.000  C
  C425     1.0000 0.17816  0.90292  0.63008  Biso   1.000  C
  C426     1.0000 0.37619  0.94096  0.42930  Biso   1.000  C
  C427     1.0000 0.36215  0.87614  0.45506  Biso   1.000  C
  C428     1.0000 0.31950  0.04914  0.38150  Biso   1.000  C
  H777     1.0000 0.26419  0.02969  0.35670  Biso   1.000  H
  H778     1.0000 0.25869  0.05591  0.39919  Biso   1.000  H
  C429     1.0000 0.10856  0.95001  0.49595  Biso   1.000  C
  H779     1.0000 0.11820  0.94330  0.43100  Biso   1.000  H
  H780     1.0000 0.07879  0.96940  0.44181  Biso   1.000  H
  C430     1.0000 0.11112  0.90277  0.57533  Biso   1.000  C
  H781     1.0000 0.10041  0.95600  0.60200  Biso   1.000  H
  C431     1.0000 0.17166  0.87124  0.60293  Biso   1.000  C
  H782     1.0000 0.20109  0.90309  0.64871  Biso   1.000  H
  C432     1.0000 0.33883  0.94187  0.40800  Biso   1.000  C
  H783     1.0000 0.39399  0.96280  0.42721  Biso   1.000  H
  C433     1.0000 0.32503  0.87608  0.43325  Biso   1.000  C
  H784     1.0000 0.37009  0.85389  0.47121  Biso   1.000  H
  N105     1.0000 0.32845  0.01343  0.40720  Biso   1.000  N
  H785     1.0000 0.33480  0.04800  0.35409  Biso   1.000  H
  H786     1.0000 0.32900  0.07241  0.39748  Biso   1.000  H
  N106     1.0000 0.08374  0.91343  0.50087  Biso   1.000  N
  H787     1.0000 0.09760  0.97051  0.51509  Biso   1.000  H
  H788     1.0000 0.13719  0.94479  0.50450  Biso   1.000  H
  C434     1.0000 0.07415  0.90321  0.54674  Biso   1.000  C
  C435     1.0000 0.13805  0.87086  0.57601  Biso   1.000  C
  C436     1.0000 0.20100  0.83670  0.60564  Biso   1.000  C
  C437     1.0000 0.32677  0.97667  0.38114  Biso   1.000  C
  C438     1.0000 0.31303  0.90934  0.40993  Biso   1.000  C
  C439     1.0000 0.29917  0.83976  0.43325  Biso   1.000  C
  H789     1.0000 0.31010  0.01171  0.42910  Biso   1.000  H
  H790     1.0000 0.35370  0.01571  0.41900  Biso   1.000  H
  H791     1.0000 0.09760  0.89319  0.48871  Biso   1.000  H
  H792     1.0000 0.05990  0.91641  0.48620  Biso   1.000  H
  H793     1.0000 0.06109  0.87719  0.54751  Biso   1.000  H
  H794     1.0000 0.05431  0.92239  0.55819  Biso   1.000  H
  H795     1.0000 0.13319  0.84899  0.55790  Biso   1.000  H
  N107     1.0000 0.23903  0.84391  0.58019  Biso   1.000  N
  H796     1.0000 0.20829  0.83200  0.63610  Biso   1.000  H
  H797     1.0000 0.18720  0.81299  0.59460  Biso   1.000  H
  H798     1.0000 0.34551  0.97901  0.35621  Biso   1.000  H
  H799     1.0000 0.29871  0.97290  0.37001  Biso   1.000  H
  H800     1.0000 0.28751  0.90969  0.39549  Biso   1.000  H
  N108     1.0000 0.26217  0.84321  0.46204  Biso   1.000  N
  H801     1.0000 0.31599  0.81740  0.44300  Biso   1.000  H
  H802     1.0000 0.29011  0.83430  0.40350  Biso   1.000  H
  C440     1.0000 0.23152  0.84394  0.53281  Biso   1.000  C
  H803     1.0000 0.24981  0.86741  0.58801  Biso   1.000  H
  H804     1.0000 0.25769  0.82510  0.58659  Biso   1.000  H
  H805     1.0000 0.24761  0.86461  0.45391  Biso   1.000  H
  H806     1.0000 0.24599  0.82189  0.45789  Biso   1.000  H
  C441     1.0000 0.27155  0.84642  0.50843  Biso   1.000  C
  H807     1.0000 0.21409  0.86651  0.52509  Biso   1.000  H
  H808     1.0000 0.21690  0.81970  0.52461  Biso   1.000  H
  H809     1.0000 0.28519  0.87159  0.51451  Biso   1.000  H
  H810     1.0000 0.29001  0.82499  0.51731  Biso   1.000  H
  N109     1.0000 0.17132  0.33388  0.27441  Biso   1.000  N
  H811     1.0000 0.16021  0.35551  0.28690  Biso   1.000  H
  H812     1.0000 0.19590  0.32929  0.28709  Biso   1.000  H
  C442     1.0000 0.17761  0.34132  0.22732  Biso   1.000  C
  C443     1.0000 0.14391  0.29975  0.28159  Biso   1.000  C
  C444     1.0000 0.13792  0.34124  0.20345  Biso   1.000  C
  H813     1.0000 0.19571  0.32091  0.21529  Biso   1.000  H
  H814     1.0000 0.19120  0.36690  0.22340  Biso   1.000  H
  H815     1.0000 0.11530  0.30891  0.28419  Biso   1.000  H
  H816     1.0000 0.14550  0.28191  0.25669  Biso   1.000  H
  C445     1.0000 0.15588  0.27829  0.32183  Biso   1.000  C
  C446     1.0000 0.11213  0.37385  0.20506  Biso   1.000  C
  C447     1.0000 0.12620  0.30903  0.17930  Biso   1.000  C
  N110     1.0000 0.12822  0.24374  0.32578  Biso   1.000  N
  H817     1.0000 0.15291  0.29551  0.34721  Biso   1.000  H
  H818     1.0000 0.18469  0.26970  0.31990  Biso   1.000  H
  C448     1.0000 0.07504  0.37391  0.18325  Biso   1.000  C
  H819     1.0000 0.12010  0.39610  0.22121  Biso   1.000  H
  C449     1.0000 0.08881  0.30813  0.15800  Biso   1.000  C
  H820     1.0000 0.14400  0.28719  0.17721  Biso   1.000  H
  H821     1.0000 0.12721  0.23090  0.30021  Biso   1.000  H
  H822     1.0000 0.10251  0.25209  0.33219  Biso   1.000  H
  C450     1.0000 0.14250  0.21647  0.35985  Biso   1.000  C
  C451     1.0000 0.06304  0.34068  0.15993  Biso   1.000  C
  C452     1.0000 0.04918  0.41026  0.18325  Biso   1.000  C
  C453     1.0000 0.07675  0.27332  0.13114  Biso   1.000  C
  C454     1.0000 0.11112  0.18503  0.36776  Biso   1.000  C
  H823     1.0000 0.16861  0.20439  0.35091  Biso   1.000  H
  H824     1.0000 0.14739  0.23110  0.38681  Biso   1.000  H
  H825     1.0000 0.03749  0.34030  0.14549  Biso   1.000  H
  N111     1.0000 0.01218  0.40679  0.21204  Biso   1.000  N
  H826     1.0000 0.06600  0.43260  0.19300  Biso   1.000  H
  H827     1.0000 0.04011  0.41569  0.15350  Biso   1.000  H
  N112     1.0000 0.07846  0.23656  0.15720  Biso   1.000  N
  H828     1.0000 0.09549  0.27099  0.10621  Biso   1.000  H
  H829     1.0000 0.04869  0.27709  0.12001  Biso   1.000  H
  C455     1.0000 0.10828  0.15276  0.34094  Biso   1.000  C
  C456     1.0000 0.08529  0.18809  0.40318  Biso   1.000  C
  C457     1.0000 0.02155  0.40357  0.25843  Biso   1.000  C
  H830     1.0000 0.99759  0.38541  0.20391  Biso   1.000  H
  H831     1.0000 0.99600  0.42810  0.20789  Biso   1.000  H
  H832     1.0000 0.06011  0.23831  0.17910  Biso   1.000  H
  H833     1.0000 0.10370  0.23431  0.16900  Biso   1.000  H
  C458     1.0000 0.06951  0.20085  0.13150  Biso   1.000  C
  C459     1.0000 0.07965  0.12339  0.34943  Biso   1.000  C
  H834     1.0000 0.12581  0.15060  0.31671  Biso   1.000  H
  C460     1.0000 0.05761  0.15872  0.41251  Biso   1.000  C
  H835     1.0000 0.08670  0.21049  0.42109  Biso   1.000  H
  H836     1.0000 0.03520  0.37841  0.26451  Biso   1.000  H
  H837     1.0000 0.03999  0.42501  0.26731  Biso   1.000  H
  C461     1.0000 0.98153  0.40606  0.28281  Biso   1.000  C
  H838     1.0000 0.08481  0.20199  0.10409  Biso   1.000  H
  H839     1.0000 0.07901  0.17761  0.14748  Biso   1.000  H
  C462     1.0000 0.02421  0.19682  0.12201  Biso   1.000  C
  C463     1.0000 0.05498  0.12614  0.38565  Biso   1.000  C
  C464     1.0000 0.07815  0.08783  0.32115  Biso   1.000  C
  C465     1.0000 0.03157  0.16199  0.45249  Biso   1.000  C
  N113     1.0000 0.98904  0.40608  0.33019  Biso   1.000  N
  H840     1.0000 0.96410  0.38349  0.27509  Biso   1.000  H
  H841     1.0000 0.96691  0.43029  0.27461  Biso   1.000  H
  N114     1.0000 0.01829  0.16144  0.09467  Biso   1.000  N
  H842     1.0000 0.01420  0.22030  0.10670  Biso   1.000  H
  H843     1.0000 0.00870  0.19411  0.14919  Biso   1.000  H
  H844     1.0000 0.03630  0.10581  0.39211  Biso   1.000  H
  N115     1.0000 0.05214  0.09393  0.28143  Biso   1.000  N
  H845     1.0000 0.10621  0.08091  0.31221  Biso   1.000  H
  H846     1.0000 0.06701  0.06561  0.33791  Biso   1.000  H
  H847     1.0000 0.04060  0.18500  0.46931  Biso   1.000  H
  H848     1.0000 0.03590  0.13849  0.47050  Biso   1.000  H
  N116     1.0000 0.98785  0.16576  0.44313  Biso   1.000  N
  H849     1.0000 0.00769  0.42489  0.33659  Biso   1.000  H
  H850     1.0000 0.99979  0.38261  0.33801  Biso   1.000  H
  C466     1.0000 0.95097  0.41330  0.35564  Biso   1.000  C
  H851     1.0000 0.03361  0.16400  0.07041  Biso   1.000  H
  H852     1.0000 0.02760  0.14021  0.10930  Biso   1.000  H
  C467     1.0000 0.97454  0.15428  0.08183  Biso   1.000  C
  H853     1.0000 0.05629  0.07361  0.26309  Biso   1.000  H
  H854     1.0000 0.06041  0.11609  0.26788  Biso   1.000  H
  C468     1.0000 0.00775  0.09702  0.29085  Biso   1.000  C
  H855     1.0000 0.97869  0.14091  0.43911  Biso   1.000  H
  H856     1.0000 0.97631  0.17419  0.46809  Biso   1.000  H
  C469     1.0000 0.96792  0.18961  0.40800  Biso   1.000  C
  H857     1.0000 0.97860  0.14511  0.42750  Biso   1.000  H
  H858     1.0000 0.97301  0.16780  0.46780  Biso   1.000  H
  C470     1.0000 0.98620  0.20319  0.41730  Biso   1.000  C
  C471     1.0000 0.92164  0.37876  0.35293  Biso   1.000  C
  H859     1.0000 0.95830  0.41800  0.38610  Biso   1.000  H
  H860     1.0000 0.93720  0.43701  0.34460  Biso   1.000  H
  C472     1.0000 0.94603  0.15414  0.11985  Biso   1.000  C
  H861     1.0000 0.97259  0.12879  0.06691  Biso   1.000  H
  H862     1.0000 0.96581  0.17481  0.06141  Biso   1.000  H
  H863     1.0000 0.00211  0.12100  0.30761  Biso   1.000  H
  C473     1.0000 0.98498  0.09828  0.24801  Biso   1.000  C
  H864     1.0000 0.99860  0.07431  0.30800  Biso   1.000  H
  C474     1.0000 0.94700  0.22301  0.42634  Biso   1.000  C
  H865     1.0000 0.94819  0.17320  0.39211  Biso   1.000  H
  H866     1.0000 0.98901  0.19869  0.38751  Biso   1.000  H
  H867     1.0000 0.98831  0.19720  0.38619  Biso   1.000  H
  H868     1.0000 0.00919  0.22039  0.42531  Biso   1.000  H
  C475     1.0000 0.92817  0.34708  0.38008  Biso   1.000  C
  C476     1.0000 0.88805  0.37914  0.32601  Biso   1.000  C
  C477     1.0000 0.94499  0.12374  0.14929  Biso   1.000  C
  C478     1.0000 0.91968  0.18573  0.12545  Biso   1.000  C
  N117     1.0000 0.94038  0.09866  0.25579  Biso   1.000  N
  H869     1.0000 0.99231  0.07521  0.23051  Biso   1.000  H
  H870     1.0000 0.99301  0.12199  0.23179  Biso   1.000  H
  N118     1.0000 0.94001  0.25566  0.39607  Biso   1.000  N
  H871     1.0000 0.92029  0.21420  0.43769  Biso   1.000  H
  H872     1.0000 0.96321  0.23280  0.45101  Biso   1.000  H
  H873     1.0000 0.92441  0.20401  0.42389  Biso   1.000  H
  H874     1.0000 0.94731  0.23309  0.45619  Biso   1.000  H
  C479     1.0000 0.90136  0.31575  0.38011  Biso   1.000  C
  H875     1.0000 0.95109  0.34690  0.39871  Biso   1.000  H
  C480     1.0000 0.86113  0.34725  0.32533  Biso   1.000  C
  H876     1.0000 0.88320  0.40100  0.30790  Biso   1.000  H
  H877     1.0000 0.96291  0.10219  0.14572  Biso   1.000  H
  C481     1.0000 0.91815  0.12427  0.18396  Biso   1.000  C
  C482     1.0000 0.89248  0.18669  0.16000  Biso   1.000  C
  H878     1.0000 0.92029  0.20681  0.10560  Biso   1.000  H
  H879     1.0000 0.93421  0.08021  0.27580  Biso   1.000  H
  H880     1.0000 0.93321  0.12231  0.26679  Biso   1.000  H
  C483     1.0000 0.91559  0.09107  0.21600  Biso   1.000  C
  H881     1.0000 0.93299  0.24579  0.36989  Biso   1.000  H
  H882     1.0000 0.96361  0.26941  0.39279  Biso   1.000  H
  C484     1.0000 0.90750  0.28234  0.41103  Biso   1.000  C
  C485     1.0000 0.86839  0.31578  0.35248  Biso   1.000  C
  C486     1.0000 0.82416  0.34678  0.29674  Biso   1.000  C
  C487     1.0000 0.89153  0.15595  0.18908  Biso   1.000  C
  C488     1.0000 0.86433  0.22088  0.16530  Biso   1.000  C
  H883     1.0000 0.92539  0.06680  0.20220  Biso   1.000  H
  H884     1.0000 0.88671  0.08710  0.22420  Biso   1.000  H
  H885     1.0000 0.88161  0.26760  0.41399  Biso   1.000  H
  H886     1.0000 0.91489  0.29280  0.43969  Biso   1.000  H
  H887     1.0000 0.85041  0.29399  0.35200  Biso   1.000  H
  N119     1.0000 0.83375  0.33656  0.25087  Biso   1.000  N
  H888     1.0000 0.81109  0.37280  0.29751  Biso   1.000  H
  H889     1.0000 0.80429  0.32760  0.30819  Biso   1.000  H
  H890     1.0000 0.87291  0.15641  0.21240  Biso   1.000  H
  N120     1.0000 0.88250  0.24973  0.19545  Biso   1.000  N
  H891     1.0000 0.83771  0.21180  0.17669  Biso   1.000  H
  H892     1.0000 0.85951  0.23329  0.13700  Biso   1.000  H
  H893     1.0000 0.84761  0.35680  0.23871  Biso   1.000  H
  H894     1.0000 0.80990  0.33359  0.23620  Biso   1.000  H
  C489     1.0000 0.85856  0.30001  0.24595  Biso   1.000  C
  H895     1.0000 0.88549  0.23840  0.22169  Biso   1.000  H
  H896     1.0000 0.90781  0.25639  0.18580  Biso   1.000  H
  C490     1.0000 0.85744  0.28605  0.20027  Biso   1.000  C
  H897     1.0000 0.84761  0.27951  0.26509  Biso   1.000  H
  H898     1.0000 0.88720  0.30521  0.25450  Biso   1.000  H
  H899     1.0000 0.86821  0.30670  0.18100  Biso   1.000  H
  H900     1.0000 0.82880  0.28059  0.19181  Biso   1.000  H
  C491     1.0000 0.67186  0.83783  0.57115  Biso   1.000  C
  N121     1.0000 0.69784  0.84394  0.53143  Biso   1.000  N
  C492     1.0000 0.67033  0.87340  0.59943  Biso   1.000  C
  H901     1.0000 0.64380  0.83089  0.56221  Biso   1.000  H
  H902     1.0000 0.68300  0.81559  0.58791  Biso   1.000  H
  H903     1.0000 0.69371  0.82359  0.51309  Biso   1.000  H
  H904     1.0000 0.68959  0.86610  0.51788  Biso   1.000  H
  C493     1.0000 0.74225  0.84703  0.54085  Biso   1.000  C
  C494     1.0000 0.69500  0.87614  0.63565  Biso   1.000  C
  C495     1.0000 0.64169  0.90274  0.59094  Biso   1.000  C
  C496     1.0000 0.76503  0.84829  0.49801  Biso   1.000  C
  H905     1.0000 0.75141  0.82429  0.55800  Biso   1.000  H
  H906     1.0000 0.74790  0.87100  0.55761  Biso   1.000  H
  C497     1.0000 0.69240  0.90870  0.66251  Biso   1.000  C
  H907     1.0000 0.71371  0.85579  0.64211  Biso   1.000  H
  H908     1.0000 0.62420  0.90061  0.56671  Biso   1.000  H
  C498     1.0000 0.63886  0.93501  0.61776  Biso   1.000  C
  N122     1.0000 0.80963  0.84867  0.50579  Biso   1.000  N
  H909     1.0000 0.75770  0.82519  0.48051  Biso   1.000  H
  H910     1.0000 0.75700  0.87200  0.48179  Biso   1.000  H
  C499     1.0000 0.66471  0.93807  0.65318  Biso   1.000  C
  C500     1.0000 0.71844  0.91200  0.70249  Biso   1.000  C
  C501     1.0000 0.60750  0.96645  0.60985  Biso   1.000  C
  H911     1.0000 0.81580  0.83021  0.52580  Biso   1.000  H
  H912     1.0000 0.81680  0.87229  0.51679  Biso   1.000  H
  C502     1.0000 0.83442  0.84108  0.46600  Biso   1.000  C
  H913     1.0000 0.66331  0.96050  0.67109  Biso   1.000  H
  N123     1.0000 0.76216  0.91576  0.69313  Biso   1.000  N
  H914     1.0000 0.70941  0.93501  0.71931  Biso   1.000  H
  H915     1.0000 0.71411  0.88849  0.72050  Biso   1.000  H
  N124     1.0000 0.62176  0.99375  0.57578  Biso   1.000  N
  H916     1.0000 0.58140  0.95439  0.60091  Biso   1.000  H
  H917     1.0000 0.60259  0.98111  0.63681  Biso   1.000  H
  C503     1.0000 0.83185  0.87427  0.43396  Biso   1.000  C
  H918     1.0000 0.82459  0.81681  0.45220  Biso   1.000  H
  H919     1.0000 0.86330  0.83710  0.47420  Biso   1.000  H
  H920     1.0000 0.77129  0.89089  0.68911  Biso   1.000  H
  H921     1.0000 0.77370  0.92420  0.71809  Biso   1.000  H
  C504     1.0000 0.78209  0.93959  0.65800  Biso   1.000  C
  H922     1.0000 0.77141  0.89509  0.67750  Biso   1.000  H
  H923     1.0000 0.77699  0.91781  0.71780  Biso   1.000  H
  C505     1.0000 0.76381  0.95320  0.66730  Biso   1.000  C
  H924     1.0000 0.62280  0.98090  0.55021  Biso   1.000  H
  H925     1.0000 0.64750  0.00210  0.58219  Biso   1.000  H
  C506     1.0000 0.59410  0.02829  0.57183  Biso   1.000  C
  C507     1.0000 0.80499  0.87372  0.39929  Biso   1.000  C
  C508     1.0000 0.85847  0.90595  0.43908  Biso   1.000  C
  C509     1.0000 0.80300  0.97299  0.67634  Biso   1.000  C
  H926     1.0000 0.80181  0.92321  0.64211  Biso   1.000  H
  H927     1.0000 0.76100  0.94870  0.63751  Biso   1.000  H
  H928     1.0000 0.76170  0.94721  0.63619  Biso   1.000  H
  H929     1.0000 0.74079  0.97039  0.67531  Biso   1.000  H
  C510     1.0000 0.60610  0.04975  0.53159  Biso   1.000  C
  H930     1.0000 0.59709  0.04549  0.59721  Biso   1.000  H
  H931     1.0000 0.56531  0.01971  0.56990  Biso   1.000  H
  C511     1.0000 0.80395  0.90414  0.36985  Biso   1.000  C
  H932     1.0000 0.78710  0.85220  0.39572  Biso   1.000  H
  H933     1.0000 0.87709  0.90639  0.46240  Biso   1.000  H
  C512     1.0000 0.85753  0.93670  0.41000  Biso   1.000  C
  H934     1.0000 0.82969  0.96420  0.68769  Biso   1.000  H
  H935     1.0000 0.78679  0.98280  0.70101  Biso   1.000  H
  H936     1.0000 0.82559  0.95401  0.67389  Biso   1.000  H
  H937     1.0000 0.80270  0.98309  0.70619  Biso   1.000  H
  N125     1.0000 0.80999  0.00566  0.64607  Biso   1.000  N
  N126     1.0000 0.57869  0.08389  0.52441  Biso   1.000  N
  H938     1.0000 0.63470  0.05889  0.53419  Biso   1.000  H
  H939     1.0000 0.60451  0.03191  0.50669  Biso   1.000  H
  C513     1.0000 0.83033  0.93574  0.37545  Biso   1.000  C
  C514     1.0000 0.77547  0.90426  0.33183  Biso   1.000  C
  C515     1.0000 0.88567  0.97086  0.41530  Biso   1.000  C
  H940     1.0000 0.81699  0.99580  0.61989  Biso   1.000  H
  H941     1.0000 0.78640  0.01939  0.64279  Biso   1.000  H
  C516     1.0000 0.84248  0.03235  0.66103  Biso   1.000  C
  H942     1.0000 0.58980  0.10549  0.53690  Biso   1.000  H
  H943     1.0000 0.55411  0.07930  0.53709  Biso   1.000  H
  C517     1.0000 0.57240  0.09130  0.47732  Biso   1.000  C
  H944     1.0000 0.82969  0.95679  0.35560  Biso   1.000  H
  N127     1.0000 0.73172  0.91144  0.34467  Biso   1.000  N
  H945     1.0000 0.77739  0.87880  0.31691  Biso   1.000  H
  H946     1.0000 0.78420  0.92479  0.31141  Biso   1.000  H
  N128     1.0000 0.86751  0.99974  0.44545  Biso   1.000  N
  H947     1.0000 0.91229  0.96181  0.42669  Biso   1.000  H
  H948     1.0000 0.89050  0.98330  0.38700  Biso   1.000  H
  C518     1.0000 0.84864  0.06575  0.63011  Biso   1.000  C
  H949     1.0000 0.86839  0.01761  0.66399  Biso   1.000  H
  H950     1.0000 0.83509  0.04280  0.68969  Biso   1.000  H
  C519     1.0000 0.61208  0.09124  0.45345  Biso   1.000  C
  H951     1.0000 0.55429  0.07089  0.46529  Biso   1.000  H
  H952     1.0000 0.55881  0.11691  0.47340  Biso   1.000  H
  H953     1.0000 0.71640  0.91401  0.32041  Biso   1.000  H
  H954     1.0000 0.72241  0.89019  0.35930  Biso   1.000  H
  C520     1.0000 0.72580  0.94680  0.37201  Biso   1.000  C
  H955     1.0000 0.86449  0.98841  0.47169  Biso   1.000  H
  H956     1.0000 0.84220  0.00639  0.43580  Biso   1.000  H
  C521     1.0000 0.89257  0.03606  0.45027  Biso   1.000  C
  C522     1.0000 0.88161  0.06578  0.60248  Biso   1.000  C
  C523     1.0000 0.82184  0.09708  0.63008  Biso   1.000  C
  C524     1.0000 0.63785  0.12386  0.45506  Biso   1.000  C
  C525     1.0000 0.62381  0.05904  0.42930  Biso   1.000  C
  C526     1.0000 0.68050  0.95086  0.38150  Biso   1.000  C
  H957     1.0000 0.73581  0.97031  0.35670  Biso   1.000  H
  H958     1.0000 0.74131  0.94409  0.39919  Biso   1.000  H
  C527     1.0000 0.89144  0.04999  0.49595  Biso   1.000  C
  H959     1.0000 0.88180  0.05670  0.43100  Biso   1.000  H
  H960     1.0000 0.92121  0.03060  0.44181  Biso   1.000  H
  C528     1.0000 0.88888  0.09723  0.57533  Biso   1.000  C
  H961     1.0000 0.89959  0.04400  0.60200  Biso   1.000  H
  H962     1.0000 0.79891  0.09691  0.64871  Biso   1.000  H
  C529     1.0000 0.82834  0.12876  0.60293  Biso   1.000  C
  C530     1.0000 0.67497  0.12392  0.43325  Biso   1.000  C
  H963     1.0000 0.62991  0.14611  0.47121  Biso   1.000  H
  C531     1.0000 0.66117  0.05813  0.40800  Biso   1.000  C
  H964     1.0000 0.60601  0.03720  0.42721  Biso   1.000  H
  N129     1.0000 0.67155  0.98657  0.40720  Biso   1.000  N
  H965     1.0000 0.66520  0.95200  0.35409  Biso   1.000  H
  H966     1.0000 0.67100  0.92759  0.39748  Biso   1.000  H
  N130     1.0000 0.91626  0.08657  0.50087  Biso   1.000  N
  H967     1.0000 0.90240  0.02949  0.51509  Biso   1.000  H
  H968     1.0000 0.86281  0.05521  0.50450  Biso   1.000  H
  C532     1.0000 0.86195  0.12914  0.57601  Biso   1.000  C
  C533     1.0000 0.92585  0.09679  0.54674  Biso   1.000  C
  C534     1.0000 0.79900  0.16330  0.60564  Biso   1.000  C
  C535     1.0000 0.68697  0.09066  0.40993  Biso   1.000  C
  C536     1.0000 0.70083  0.16024  0.43325  Biso   1.000  C
  C537     1.0000 0.67323  0.02333  0.38114  Biso   1.000  C
  H969     1.0000 0.68990  0.98829  0.42910  Biso   1.000  H
  H970     1.0000 0.64630  0.98429  0.41900  Biso   1.000  H
  H971     1.0000 0.90240  0.10681  0.48871  Biso   1.000  H
  H972     1.0000 0.94010  0.08359  0.48620  Biso   1.000  H
  H973     1.0000 0.86681  0.15101  0.55790  Biso   1.000  H
  H974     1.0000 0.93891  0.12281  0.54751  Biso   1.000  H
  H975     1.0000 0.94569  0.07761  0.55819  Biso   1.000  H
  N131     1.0000 0.76097  0.15609  0.58019  Biso   1.000  N
  H976     1.0000 0.79171  0.16800  0.63610  Biso   1.000  H
  H977     1.0000 0.81280  0.18701  0.59460  Biso   1.000  H
  H978     1.0000 0.71249  0.09031  0.39549  Biso   1.000  H
  N132     1.0000 0.73783  0.15679  0.46204  Biso   1.000  N
  H979     1.0000 0.68401  0.18260  0.44300  Biso   1.000  H
  H980     1.0000 0.70989  0.16570  0.40350  Biso   1.000  H
  H981     1.0000 0.65449  0.02099  0.35621  Biso   1.000  H
  H982     1.0000 0.70129  0.02710  0.37001  Biso   1.000  H
  H983     1.0000 0.75019  0.13259  0.58801  Biso   1.000  H
  H984     1.0000 0.74231  0.17490  0.58659  Biso   1.000  H
  C538     1.0000 0.76848  0.15606  0.53281  Biso   1.000  C
  H985     1.0000 0.75239  0.13539  0.45391  Biso   1.000  H
  H986     1.0000 0.75401  0.17811  0.45789  Biso   1.000  H
  C539     1.0000 0.72845  0.15358  0.50843  Biso   1.000  C
  H987     1.0000 0.78591  0.13349  0.52509  Biso   1.000  H
  H988     1.0000 0.78310  0.18030  0.52461  Biso   1.000  H
  H989     1.0000 0.71481  0.12841  0.51451  Biso   1.000  H
  H990     1.0000 0.70999  0.17501  0.51731  Biso   1.000  H
  N133     1.0000 0.82868  0.66612  0.27441  Biso   1.000  N
  C540     1.0000 0.82239  0.65868  0.22732  Biso   1.000  C
  H991     1.0000 0.83979  0.64449  0.28690  Biso   1.000  H
  H992     1.0000 0.80410  0.67071  0.28709  Biso   1.000  H
  C541     1.0000 0.85609  0.70025  0.28159  Biso   1.000  C
  C542     1.0000 0.86208  0.65876  0.20345  Biso   1.000  C
  H993     1.0000 0.80429  0.67909  0.21529  Biso   1.000  H
  H994     1.0000 0.80880  0.63310  0.22340  Biso   1.000  H
  H995     1.0000 0.88470  0.69109  0.28419  Biso   1.000  H
  H996     1.0000 0.85450  0.71809  0.25669  Biso   1.000  H
  C543     1.0000 0.84412  0.72171  0.32183  Biso   1.000  C
  C544     1.0000 0.88787  0.62615  0.20506  Biso   1.000  C
  C545     1.0000 0.87380  0.69097  0.17930  Biso   1.000  C
  N134     1.0000 0.87178  0.75626  0.32578  Biso   1.000  N
  H997     1.0000 0.84709  0.70449  0.34721  Biso   1.000  H
  H998     1.0000 0.81531  0.73030  0.31990  Biso   1.000  H
  C546     1.0000 0.92496  0.62609  0.18325  Biso   1.000  C
  H999     1.0000 0.87990  0.60390  0.22121  Biso   1.000  H
  C547     1.0000 0.91119  0.69187  0.15800  Biso   1.000  C
  H1000    1.0000 0.85600  0.71281  0.17721  Biso   1.000  H
  H1001    1.0000 0.87279  0.76910  0.30021  Biso   1.000  H
  H1002    1.0000 0.89749  0.74791  0.33219  Biso   1.000  H
  C548     1.0000 0.85750  0.78353  0.35985  Biso   1.000  C
  C549     1.0000 0.93696  0.65932  0.15993  Biso   1.000  C
  C550     1.0000 0.95082  0.58974  0.18325  Biso   1.000  C
  C551     1.0000 0.92325  0.72668  0.13114  Biso   1.000  C
  C552     1.0000 0.88888  0.81497  0.36776  Biso   1.000  C
  H1003    1.0000 0.83139  0.79561  0.35091  Biso   1.000  H
  H1004    1.0000 0.85261  0.76890  0.38681  Biso   1.000  H
  H1005    1.0000 0.96251  0.65970  0.14549  Biso   1.000  H
  N135     1.0000 0.98782  0.59321  0.21204  Biso   1.000  N
  H1006    1.0000 0.93400  0.56740  0.19300  Biso   1.000  H
  H1007    1.0000 0.95989  0.58431  0.15350  Biso   1.000  H
  N136     1.0000 0.92154  0.76344  0.15720  Biso   1.000  N
  H1008    1.0000 0.90451  0.72901  0.10621  Biso   1.000  H
  H1009    1.0000 0.95131  0.72291  0.12001  Biso   1.000  H
  C553     1.0000 0.89172  0.84724  0.34094  Biso   1.000  C
  C554     1.0000 0.91471  0.81191  0.40318  Biso   1.000  C
  C555     1.0000 0.97845  0.59643  0.25843  Biso   1.000  C
  H1010    1.0000 0.00241  0.61459  0.20391  Biso   1.000  H
  H1011    1.0000 0.00400  0.57190  0.20789  Biso   1.000  H
  H1012    1.0000 0.93989  0.76169  0.17910  Biso   1.000  H
  H1013    1.0000 0.89630  0.76569  0.16900  Biso   1.000  H
  C556     1.0000 0.93049  0.79915  0.13150  Biso   1.000  C
  C557     1.0000 0.92035  0.87661  0.34943  Biso   1.000  C
  H1014    1.0000 0.87419  0.84940  0.31671  Biso   1.000  H
  C558     1.0000 0.94239  0.84128  0.41251  Biso   1.000  C
  H1015    1.0000 0.91330  0.78951  0.42109  Biso   1.000  H
  H1016    1.0000 0.96480  0.62159  0.26451  Biso   1.000  H
  H1017    1.0000 0.96001  0.57499  0.26731  Biso   1.000  H
  C559     1.0000 0.01847  0.59394  0.28281  Biso   1.000  C
  H1018    1.0000 0.91519  0.79801  0.10409  Biso   1.000  H
  H1019    1.0000 0.92099  0.82239  0.14748  Biso   1.000  H
  C560     1.0000 0.97579  0.80318  0.12201  Biso   1.000  C
  C561     1.0000 0.94502  0.87386  0.38565  Biso   1.000  C
  C562     1.0000 0.92185  0.91217  0.32115  Biso   1.000  C
  C563     1.0000 0.96843  0.83801  0.45249  Biso   1.000  C
  N137     1.0000 0.01096  0.59392  0.33019  Biso   1.000  N
  H1020    1.0000 0.03590  0.61651  0.27509  Biso   1.000  H
  H1021    1.0000 0.03309  0.56971  0.27461  Biso   1.000  H
  N138     1.0000 0.98171  0.83856  0.09467  Biso   1.000  N
  H1022    1.0000 0.98580  0.77970  0.10670  Biso   1.000  H
  H1023    1.0000 0.99130  0.80589  0.14919  Biso   1.000  H
  H1024    1.0000 0.96370  0.89419  0.39211  Biso   1.000  H
  N139     1.0000 0.94786  0.90607  0.28143  Biso   1.000  N
  H1025    1.0000 0.89379  0.91909  0.31221  Biso   1.000  H
  H1026    1.0000 0.93299  0.93439  0.33791  Biso   1.000  H
  H1027    1.0000 0.95940  0.81500  0.46931  Biso   1.000  H
  H1028    1.0000 0.96410  0.86151  0.47050  Biso   1.000  H
  N140     1.0000 0.01215  0.83424  0.44313  Biso   1.000  N
  H1029    1.0000 0.99231  0.57511  0.33659  Biso   1.000  H
  H1030    1.0000 0.00021  0.61739  0.33801  Biso   1.000  H
  C564     1.0000 0.04903  0.58670  0.35564  Biso   1.000  C
  H1031    1.0000 0.96639  0.83600  0.07041  Biso   1.000  H
  H1032    1.0000 0.97240  0.85979  0.10930  Biso   1.000  H
  C565     1.0000 0.02546  0.84572  0.08183  Biso   1.000  C
  H1033    1.0000 0.94371  0.92639  0.26309  Biso   1.000  H
  H1034    1.0000 0.93959  0.88391  0.26788  Biso   1.000  H
  C566     1.0000 0.99225  0.90298  0.29085  Biso   1.000  C
  H1035    1.0000 0.02131  0.85909  0.43911  Biso   1.000  H
  H1036    1.0000 0.02369  0.82581  0.46809  Biso   1.000  H
  C567     1.0000 0.03208  0.81039  0.40800  Biso   1.000  C
  H1037    1.0000 0.02140  0.85489  0.42750  Biso   1.000  H
  H1038    1.0000 0.02699  0.83220  0.46780  Biso   1.000  H
  C568     1.0000 0.01380  0.79681  0.41730  Biso   1.000  C
  C569     1.0000 0.07836  0.62124  0.35293  Biso   1.000  C
  H1039    1.0000 0.04170  0.58200  0.38610  Biso   1.000  H
  H1040    1.0000 0.06280  0.56299  0.34460  Biso   1.000  H
  C570     1.0000 0.05397  0.84586  0.11985  Biso   1.000  C
  H1041    1.0000 0.02741  0.87121  0.06691  Biso   1.000  H
  H1042    1.0000 0.03419  0.82519  0.06141  Biso   1.000  H
  H1043    1.0000 0.99789  0.87900  0.30761  Biso   1.000  H
  C571     1.0000 0.01502  0.90172  0.24801  Biso   1.000  C
  H1044    1.0000 0.00140  0.92569  0.30800  Biso   1.000  H
  C572     1.0000 0.05300  0.77699  0.42634  Biso   1.000  C
  H1045    1.0000 0.05181  0.82680  0.39211  Biso   1.000  H
  H1046    1.0000 0.01099  0.80131  0.38751  Biso   1.000  H
  H1047    1.0000 0.01169  0.80280  0.38619  Biso   1.000  H
  H1048    1.0000 0.99081  0.77961  0.42531  Biso   1.000  H
  C573     1.0000 0.07183  0.65292  0.38008  Biso   1.000  C
  C574     1.0000 0.11195  0.62086  0.32601  Biso   1.000  C
  C575     1.0000 0.05501  0.87626  0.14929  Biso   1.000  C
  C576     1.0000 0.08032  0.81427  0.12545  Biso   1.000  C
  N141     1.0000 0.05962  0.90134  0.25579  Biso   1.000  N
  H1049    1.0000 0.00769  0.92479  0.23051  Biso   1.000  H
  H1050    1.0000 0.00699  0.87801  0.23179  Biso   1.000  H
  N142     1.0000 0.05999  0.74434  0.39607  Biso   1.000  N
  H1051    1.0000 0.07971  0.78580  0.43769  Biso   1.000  H
  H1052    1.0000 0.03679  0.76720  0.45101  Biso   1.000  H
  H1053    1.0000 0.07559  0.79599  0.42389  Biso   1.000  H
  H1054    1.0000 0.05269  0.76691  0.45619  Biso   1.000  H
  C577     1.0000 0.09864  0.68425  0.38011  Biso   1.000  C
  H1055    1.0000 0.04891  0.65310  0.39871  Biso   1.000  H
  C578     1.0000 0.13887  0.65275  0.32533  Biso   1.000  C
  H1056    1.0000 0.11680  0.59900  0.30790  Biso   1.000  H
  H1057    1.0000 0.03709  0.89781  0.14572  Biso   1.000  H
  C579     1.0000 0.08185  0.87573  0.18396  Biso   1.000  C
  C580     1.0000 0.10752  0.81331  0.16000  Biso   1.000  C
  H1058    1.0000 0.07971  0.79319  0.10560  Biso   1.000  H
  C581     1.0000 0.08441  0.90893  0.21600  Biso   1.000  C
  H1059    1.0000 0.06579  0.91979  0.27580  Biso   1.000  H
  H1060    1.0000 0.06679  0.87769  0.26679  Biso   1.000  H
  C582     1.0000 0.09250  0.71766  0.41103  Biso   1.000  C
  H1061    1.0000 0.06701  0.75421  0.36989  Biso   1.000  H
  H1062    1.0000 0.03639  0.73059  0.39279  Biso   1.000  H
  C583     1.0000 0.13161  0.68422  0.35248  Biso   1.000  C
  C584     1.0000 0.17584  0.65322  0.29674  Biso   1.000  C
  C585     1.0000 0.10847  0.84405  0.18908  Biso   1.000  C
  C586     1.0000 0.13567  0.77912  0.16530  Biso   1.000  C
  H1063    1.0000 0.07461  0.93320  0.20220  Biso   1.000  H
  H1064    1.0000 0.11329  0.91290  0.22420  Biso   1.000  H
  H1065    1.0000 0.11839  0.73240  0.41399  Biso   1.000  H
  H1066    1.0000 0.08511  0.70720  0.43969  Biso   1.000  H
  H1067    1.0000 0.14959  0.70601  0.35200  Biso   1.000  H
  N143     1.0000 0.16625  0.66344  0.25087  Biso   1.000  N
  H1068    1.0000 0.18891  0.62720  0.29751  Biso   1.000  H
  H1069    1.0000 0.19571  0.67240  0.30819  Biso   1.000  H
  H1070    1.0000 0.12709  0.84359  0.21240  Biso   1.000  H
  N144     1.0000 0.11750  0.75027  0.19545  Biso   1.000  N
  H1071    1.0000 0.16229  0.78820  0.17669  Biso   1.000  H
  H1072    1.0000 0.14049  0.76671  0.13700  Biso   1.000  H
  H1073    1.0000 0.15239  0.64320  0.23871  Biso   1.000  H
  H1074    1.0000 0.19010  0.66641  0.23620  Biso   1.000  H
  C587     1.0000 0.14144  0.69999  0.24595  Biso   1.000  C
  H1075    1.0000 0.11451  0.76160  0.22169  Biso   1.000  H
  H1076    1.0000 0.09219  0.74361  0.18580  Biso   1.000  H
  C588     1.0000 0.14256  0.71395  0.20027  Biso   1.000  C
  H1077    1.0000 0.15239  0.72049  0.26509  Biso   1.000  H
  H1078    1.0000 0.11280  0.69479  0.25450  Biso   1.000  H
  H1079    1.0000 0.13179  0.69330  0.18100  Biso   1.000  H
  H1080    1.0000 0.17120  0.71941  0.19181  Biso   1.000  H
  C589     1.0000 0.06951  0.70087  0.63150  Biso   1.000  C
  C590     1.0000 0.02421  0.69681  0.62201  Biso   1.000  C
  N145     1.0000 0.07846  0.73655  0.65720  Biso   1.000  N
  H1081    1.0000 0.08481  0.70201  0.60409  Biso   1.000  H
  H1082    1.0000 0.07901  0.67760  0.64748  Biso   1.000  H
  N146     1.0000 0.01829  0.66142  0.59467  Biso   1.000  N
  H1083    1.0000 0.01420  0.72031  0.60670  Biso   1.000  H
  H1084    1.0000 0.00870  0.69409  0.64919  Biso   1.000  H
  H1085    1.0000 0.06011  0.73830  0.67910  Biso   1.000  H
  H1086    1.0000 0.10370  0.73430  0.66900  Biso   1.000  H
  C591     1.0000 0.07675  0.77331  0.63114  Biso   1.000  C
  H1087    1.0000 0.03361  0.66399  0.57041  Biso   1.000  H
  H1088    1.0000 0.02760  0.64019  0.60930  Biso   1.000  H
  C592     1.0000 0.97454  0.65427  0.58183  Biso   1.000  C
  C593     1.0000 0.08881  0.80814  0.65800  Biso   1.000  C
  H1089    1.0000 0.09549  0.77100  0.60621  Biso   1.000  H
  H1090    1.0000 0.04869  0.77710  0.62001  Biso   1.000  H
  C594     1.0000 0.94603  0.65415  0.61985  Biso   1.000  C
  H1091    1.0000 0.97259  0.62881  0.56691  Biso   1.000  H
  H1092    1.0000 0.96581  0.67479  0.56141  Biso   1.000  H
  C595     1.0000 0.06304  0.84067  0.65993  Biso   1.000  C
  C596     1.0000 0.12620  0.80902  0.67930  Biso   1.000  C
  C597     1.0000 0.94499  0.62373  0.64929  Biso   1.000  C
  C598     1.0000 0.91968  0.68574  0.62545  Biso   1.000  C
  H1093    1.0000 0.03749  0.84029  0.64549  Biso   1.000  H
  C599     1.0000 0.07504  0.87392  0.68325  Biso   1.000  C
  C600     1.0000 0.13792  0.84122  0.70345  Biso   1.000  C
  H1094    1.0000 0.14400  0.78721  0.67721  Biso   1.000  H
  H1095    1.0000 0.96291  0.60221  0.64572  Biso   1.000  H
  C601     1.0000 0.91815  0.62428  0.68396  Biso   1.000  C
  C602     1.0000 0.89248  0.68671  0.66000  Biso   1.000  C
  H1096    1.0000 0.92029  0.70679  0.60560  Biso   1.000  H
  C603     1.0000 0.11213  0.87384  0.70506  Biso   1.000  C
  C604     1.0000 0.04918  0.91025  0.68325  Biso   1.000  C
  C605     1.0000 0.17761  0.84131  0.72732  Biso   1.000  C
  C606     1.0000 0.89153  0.65596  0.68908  Biso   1.000  C
  C607     1.0000 0.91559  0.59108  0.71600  Biso   1.000  C
  C608     1.0000 0.86433  0.72087  0.66530  Biso   1.000  C
  H1097    1.0000 0.12010  0.89611  0.72121  Biso   1.000  H
  N147     1.0000 0.01218  0.90680  0.71204  Biso   1.000  N
  H1098    1.0000 0.06600  0.93261  0.69300  Biso   1.000  H
  H1099    1.0000 0.04011  0.91571  0.65350  Biso   1.000  H
  N148     1.0000 0.17132  0.83389  0.77441  Biso   1.000  N
  H1100    1.0000 0.19571  0.82090  0.71529  Biso   1.000  H
  H1101    1.0000 0.19120  0.86689  0.72340  Biso   1.000  H
  H1102    1.0000 0.87291  0.65640  0.71240  Biso   1.000  H
  N149     1.0000 0.94038  0.59867  0.75579  Biso   1.000  N
  H1103    1.0000 0.92539  0.56679  0.70220  Biso   1.000  H
  H1104    1.0000 0.88671  0.58711  0.72420  Biso   1.000  H
  N150     1.0000 0.88250  0.74974  0.69545  Biso   1.000  N
  H1105    1.0000 0.83771  0.71179  0.67669  Biso   1.000  H
  H1106    1.0000 0.85951  0.73331  0.63700  Biso   1.000  H
  C609     1.0000 0.02155  0.90359  0.75843  Biso   1.000  C
  H1107    1.0000 0.99759  0.88540  0.70391  Biso   1.000  H
  H1108    1.0000 0.99600  0.92809  0.70789  Biso   1.000  H
  H1109    1.0000 0.16021  0.85550  0.78690  Biso   1.000  H
  H1110    1.0000 0.19590  0.82931  0.78709  Biso   1.000  H
  C610     1.0000 0.14391  0.79976  0.78159  Biso   1.000  C
  H1111    1.0000 0.93421  0.58019  0.77580  Biso   1.000  H
  H1112    1.0000 0.93321  0.62230  0.76679  Biso   1.000  H
  C611     1.0000 0.98498  0.59829  0.74801  Biso   1.000  C
  H1113    1.0000 0.88549  0.73839  0.72169  Biso   1.000  H
  H1114    1.0000 0.90781  0.75640  0.68580  Biso   1.000  H
  C612     1.0000 0.85744  0.78604  0.70027  Biso   1.000  C
  H1115    1.0000 0.03520  0.87839  0.76451  Biso   1.000  H
  H1116    1.0000 0.03999  0.92499  0.76731  Biso   1.000  H
  C613     1.0000 0.98153  0.90607  0.78281  Biso   1.000  C
  H1117    1.0000 0.11530  0.80890  0.78419  Biso   1.000  H
  H1118    1.0000 0.14550  0.78189  0.75669  Biso   1.000  H
  C614     1.0000 0.15588  0.77830  0.82183  Biso   1.000  C
  C615     1.0000 0.00775  0.59704  0.79085  Biso   1.000  C
  H1119    1.0000 0.99231  0.57520  0.73051  Biso   1.000  H
  H1120    1.0000 0.99301  0.62200  0.73179  Biso   1.000  H
  C616     1.0000 0.85856  0.79999  0.74595  Biso   1.000  C
  H1121    1.0000 0.86821  0.80671  0.68100  Biso   1.000  H
  H1122    1.0000 0.82880  0.78061  0.69181  Biso   1.000  H
  N151     1.0000 0.98904  0.90610  0.83019  Biso   1.000  N
  H1123    1.0000 0.96410  0.88350  0.77509  Biso   1.000  H
  H1124    1.0000 0.96691  0.93030  0.77461  Biso   1.000  H
  N152     1.0000 0.12822  0.74376  0.82578  Biso   1.000  N
  H1125    1.0000 0.15291  0.79550  0.84721  Biso   1.000  H
  H1126    1.0000 0.18469  0.76969  0.81990  Biso   1.000  H
  N153     1.0000 0.05214  0.59394  0.78143  Biso   1.000  N
  H1127    1.0000 0.00211  0.62101  0.80761  Biso   1.000  H
  H1128    1.0000 0.99860  0.57429  0.80800  Biso   1.000  H
  N154     1.0000 0.83375  0.83658  0.75087  Biso   1.000  N
  H1129    1.0000 0.84761  0.77950  0.76509  Biso   1.000  H
  H1130    1.0000 0.88720  0.80519  0.75450  Biso   1.000  H
  H1131    1.0000 0.00769  0.92490  0.83659  Biso   1.000  H
  H1132    1.0000 0.99979  0.88260  0.83801  Biso   1.000  H
  C617     1.0000 0.95097  0.91328  0.85564  Biso   1.000  C
  H1133    1.0000 0.12721  0.73091  0.80021  Biso   1.000  H
  H1134    1.0000 0.10251  0.75211  0.83219  Biso   1.000  H
  C618     1.0000 0.14250  0.71646  0.85985  Biso   1.000  C
  H1135    1.0000 0.05629  0.57359  0.76309  Biso   1.000  H
  H1136    1.0000 0.06041  0.61611  0.76788  Biso   1.000  H
  C619     1.0000 0.07815  0.58784  0.82115  Biso   1.000  C
  H1137    1.0000 0.84761  0.85681  0.73871  Biso   1.000  H
  H1138    1.0000 0.80990  0.83360  0.73620  Biso   1.000  H
  C620     1.0000 0.82416  0.84677  0.79674  Biso   1.000  C
  C621     1.0000 0.92164  0.87877  0.85293  Biso   1.000  C
  H1139    1.0000 0.95830  0.91801  0.88610  Biso   1.000  H
  H1140    1.0000 0.93720  0.93699  0.84460  Biso   1.000  H
  C622     1.0000 0.11112  0.68501  0.86776  Biso   1.000  C
  H1141    1.0000 0.16861  0.70440  0.85091  Biso   1.000  H
  H1142    1.0000 0.14739  0.73109  0.88681  Biso   1.000  H
  C623     1.0000 0.07965  0.62338  0.84943  Biso   1.000  C
  H1143    1.0000 0.10621  0.58089  0.81221  Biso   1.000  H
  H1144    1.0000 0.06701  0.56559  0.83791  Biso   1.000  H
  C624     1.0000 0.86113  0.84724  0.82533  Biso   1.000  C
  H1145    1.0000 0.81109  0.87281  0.79751  Biso   1.000  H
  H1146    1.0000 0.80429  0.82759  0.80819  Biso   1.000  H
  C625     1.0000 0.88805  0.87915  0.82601  Biso   1.000  C
  C626     1.0000 0.92817  0.84709  0.88008  Biso   1.000  C
  C627     1.0000 0.10828  0.65275  0.84094  Biso   1.000  C
  C628     1.0000 0.08529  0.68808  0.90318  Biso   1.000  C
  C629     1.0000 0.05498  0.62612  0.88565  Biso   1.000  C
  C630     1.0000 0.86839  0.81579  0.85248  Biso   1.000  C
  H1147    1.0000 0.88320  0.90099  0.80790  Biso   1.000  H
  C631     1.0000 0.90136  0.81576  0.88011  Biso   1.000  C
  H1148    1.0000 0.95109  0.84689  0.89871  Biso   1.000  H
  H1149    1.0000 0.12581  0.65059  0.81671  Biso   1.000  H
  C632     1.0000 0.05761  0.65871  0.91251  Biso   1.000  C
  H1150    1.0000 0.08670  0.71050  0.92109  Biso   1.000  H
  H1151    1.0000 0.03630  0.60580  0.89211  Biso   1.000  H
  H1152    1.0000 0.85041  0.79401  0.85200  Biso   1.000  H
  C633     1.0000 0.90750  0.78236  0.91103  Biso   1.000  C
  C634     1.0000 0.03157  0.66200  0.95249  Biso   1.000  C
  N155     1.0000 0.94001  0.75567  0.89607  Biso   1.000  N
  H1153    1.0000 0.88161  0.76761  0.91399  Biso   1.000  H
  H1154    1.0000 0.91489  0.79281  0.93969  Biso   1.000  H
  H1155    1.0000 0.04060  0.68501  0.96931  Biso   1.000  H
  H1156    1.0000 0.03590  0.63850  0.97050  Biso   1.000  H
  N156     1.0000 0.98785  0.66577  0.94313  Biso   1.000  N
  H1157    1.0000 0.93299  0.74580  0.86989  Biso   1.000  H
  H1158    1.0000 0.96361  0.76939  0.89279  Biso   1.000  H
  C635     1.0000 0.94700  0.72300  0.92634  Biso   1.000  C
  H1159    1.0000 0.97869  0.64089  0.93911  Biso   1.000  H
  H1160    1.0000 0.97631  0.67421  0.96809  Biso   1.000  H
  C636     1.0000 0.96792  0.68960  0.90800  Biso   1.000  C
  H1161    1.0000 0.97860  0.64510  0.92750  Biso   1.000  H
  H1162    1.0000 0.97301  0.66779  0.96780  Biso   1.000  H
  C637     1.0000 0.98620  0.70320  0.91730  Biso   1.000  C
  H1163    1.0000 0.92029  0.71421  0.93769  Biso   1.000  H
  H1164    1.0000 0.96321  0.73281  0.95101  Biso   1.000  H
  H1165    1.0000 0.92441  0.70399  0.92389  Biso   1.000  H
  H1166    1.0000 0.94731  0.73310  0.95619  Biso   1.000  H
  H1167    1.0000 0.94819  0.67319  0.89211  Biso   1.000  H
  H1168    1.0000 0.98901  0.69871  0.88751  Biso   1.000  H
  H1169    1.0000 0.98831  0.69719  0.88619  Biso   1.000  H
  H1170    1.0000 0.00919  0.72040  0.92531  Biso   1.000  H
  C638     1.0000 0.93049  0.29913  0.63150  Biso   1.000  C
  N157     1.0000 0.92154  0.26345  0.65720  Biso   1.000  N
  H1171    1.0000 0.91519  0.29799  0.60409  Biso   1.000  H
  H1172    1.0000 0.92099  0.32240  0.64748  Biso   1.000  H
  C639     1.0000 0.97579  0.30319  0.62201  Biso   1.000  C
  C640     1.0000 0.92325  0.22669  0.63114  Biso   1.000  C
  H1173    1.0000 0.93989  0.26170  0.67910  Biso   1.000  H
  H1174    1.0000 0.89630  0.26570  0.66900  Biso   1.000  H
  N158     1.0000 0.98171  0.33858  0.59467  Biso   1.000  N
  H1175    1.0000 0.98580  0.27969  0.60670  Biso   1.000  H
  H1176    1.0000 0.99130  0.30591  0.64919  Biso   1.000  H
  C641     1.0000 0.91119  0.19186  0.65800  Biso   1.000  C
  H1177    1.0000 0.90451  0.22900  0.60621  Biso   1.000  H
  H1178    1.0000 0.95131  0.22290  0.62001  Biso   1.000  H
  H1179    1.0000 0.96639  0.33601  0.57041  Biso   1.000  H
  H1180    1.0000 0.97240  0.35981  0.60930  Biso   1.000  H
  C642     1.0000 0.02546  0.34573  0.58183  Biso   1.000  C
  C643     1.0000 0.87380  0.19098  0.67930  Biso   1.000  C
  C644     1.0000 0.93696  0.15933  0.65993  Biso   1.000  C
  C645     1.0000 0.05397  0.34585  0.61985  Biso   1.000  C
  H1181    1.0000 0.02741  0.37119  0.56691  Biso   1.000  H
  H1182    1.0000 0.03419  0.32521  0.56141  Biso   1.000  H
  C646     1.0000 0.86208  0.15878  0.70345  Biso   1.000  C
  H1183    1.0000 0.85600  0.21279  0.67721  Biso   1.000  H
  C647     1.0000 0.92496  0.12608  0.68325  Biso   1.000  C
  H1184    1.0000 0.96251  0.15971  0.64549  Biso   1.000  H
  C648     1.0000 0.05501  0.37627  0.64929  Biso   1.000  C
  C649     1.0000 0.08032  0.31426  0.62545  Biso   1.000  C
  C650     1.0000 0.82239  0.15869  0.72732  Biso   1.000  C
  C651     1.0000 0.88787  0.12616  0.70506  Biso   1.000  C
  C652     1.0000 0.95082  0.08975  0.68325  Biso   1.000  C
  H1185    1.0000 0.03709  0.39779  0.64572  Biso   1.000  H
  C653     1.0000 0.08185  0.37572  0.68396  Biso   1.000  C
  C654     1.0000 0.10752  0.31329  0.66000  Biso   1.000  C
  H1186    1.0000 0.07971  0.29321  0.60560  Biso   1.000  H
  N159     1.0000 0.82868  0.16611  0.77441  Biso   1.000  N
  H1187    1.0000 0.80429  0.17910  0.71529  Biso   1.000  H
  H1188    1.0000 0.80880  0.13311  0.72340  Biso   1.000  H
  H1189    1.0000 0.87990  0.10389  0.72121  Biso   1.000  H
  N160     1.0000 0.98782  0.09320  0.71204  Biso   1.000  N
  H1190    1.0000 0.93400  0.06739  0.69300  Biso   1.000  H
  H1191    1.0000 0.95989  0.08429  0.65350  Biso   1.000  H
  C655     1.0000 0.10847  0.34404  0.68908  Biso   1.000  C
  C656     1.0000 0.08441  0.40892  0.71600  Biso   1.000  C
  C657     1.0000 0.13567  0.27913  0.66530  Biso   1.000  C
  H1192    1.0000 0.83979  0.14450  0.78690  Biso   1.000  H
  H1193    1.0000 0.80410  0.17069  0.78709  Biso   1.000  H
  C658     1.0000 0.85609  0.20024  0.78159  Biso   1.000  C
  C659     1.0000 0.97845  0.09641  0.75843  Biso   1.000  C
  H1194    1.0000 0.00241  0.11460  0.70391  Biso   1.000  H
  H1195    1.0000 0.00400  0.07191  0.70789  Biso   1.000  H
  H1196    1.0000 0.12709  0.34360  0.71240  Biso   1.000  H
  N161     1.0000 0.05962  0.40133  0.75579  Biso   1.000  N
  H1197    1.0000 0.07461  0.43321  0.70220  Biso   1.000  H
  H1198    1.0000 0.11329  0.41289  0.72420  Biso   1.000  H
  N162     1.0000 0.11750  0.25026  0.69545  Biso   1.000  N
  H1199    1.0000 0.16229  0.28821  0.67669  Biso   1.000  H
  H1200    1.0000 0.14049  0.26669  0.63700  Biso   1.000  H
  H1201    1.0000 0.88470  0.19110  0.78419  Biso   1.000  H
  H1202    1.0000 0.85450  0.21811  0.75669  Biso   1.000  H
  C660     1.0000 0.84412  0.22170  0.82183  Biso   1.000  C
  H1203    1.0000 0.96480  0.12161  0.76451  Biso   1.000  H
  H1204    1.0000 0.96001  0.07501  0.76731  Biso   1.000  H
  C661     1.0000 0.01847  0.09393  0.78281  Biso   1.000  C
  C662     1.0000 0.01502  0.40171  0.74801  Biso   1.000  C
  H1205    1.0000 0.06579  0.41981  0.77580  Biso   1.000  H
  H1206    1.0000 0.06679  0.37770  0.76679  Biso   1.000  H
  H1207    1.0000 0.11451  0.26161  0.72169  Biso   1.000  H
  H1208    1.0000 0.09219  0.24360  0.68580  Biso   1.000  H
  C663     1.0000 0.14256  0.21396  0.70027  Biso   1.000  C
  N163     1.0000 0.87178  0.25624  0.82578  Biso   1.000  N
  H1209    1.0000 0.84709  0.20450  0.84721  Biso   1.000  H
  H1210    1.0000 0.81531  0.23031  0.81990  Biso   1.000  H
  N164     1.0000 0.01096  0.09390  0.83019  Biso   1.000  N
  H1211    1.0000 0.03590  0.11650  0.77509  Biso   1.000  H
  H1212    1.0000 0.03309  0.06970  0.77461  Biso   1.000  H
  C664     1.0000 0.99225  0.40296  0.79085  Biso   1.000  C
  H1213    1.0000 0.00769  0.42480  0.73051  Biso   1.000  H
  H1214    1.0000 0.00699  0.37800  0.73179  Biso   1.000  H
  C665     1.0000 0.14144  0.20001  0.74595  Biso   1.000  C
  H1215    1.0000 0.13179  0.19329  0.68100  Biso   1.000  H
  H1216    1.0000 0.17120  0.21939  0.69181  Biso   1.000  H
  H1217    1.0000 0.87279  0.26909  0.80021  Biso   1.000  H
  H1218    1.0000 0.89749  0.24789  0.83219  Biso   1.000  H
  C666     1.0000 0.85750  0.28354  0.85985  Biso   1.000  C
  H1219    1.0000 0.99231  0.07510  0.83659  Biso   1.000  H
  H1220    1.0000 0.00021  0.11740  0.83801  Biso   1.000  H
  C667     1.0000 0.04903  0.08672  0.85564  Biso   1.000  C
  N165     1.0000 0.94786  0.40606  0.78143  Biso   1.000  N
  H1221    1.0000 0.99789  0.37899  0.80761  Biso   1.000  H
  H1222    1.0000 0.00140  0.42571  0.80800  Biso   1.000  H
  N166     1.0000 0.16625  0.16342  0.75087  Biso   1.000  N
  H1223    1.0000 0.15239  0.22050  0.76509  Biso   1.000  H
  H1224    1.0000 0.11280  0.19481  0.75450  Biso   1.000  H
  C668     1.0000 0.88888  0.31499  0.86776  Biso   1.000  C
  H1225    1.0000 0.83139  0.29560  0.85091  Biso   1.000  H
  H1226    1.0000 0.85261  0.26891  0.88681  Biso   1.000  H
  C669     1.0000 0.07836  0.12123  0.85293  Biso   1.000  C
  H1227    1.0000 0.04170  0.08199  0.88610  Biso   1.000  H
  H1228    1.0000 0.06280  0.06301  0.84460  Biso   1.000  H
  C670     1.0000 0.92185  0.41216  0.82115  Biso   1.000  C
  H1229    1.0000 0.94371  0.42641  0.76309  Biso   1.000  H
  H1230    1.0000 0.93959  0.38389  0.76788  Biso   1.000  H
  C671     1.0000 0.17584  0.15323  0.79674  Biso   1.000  C
  H1231    1.0000 0.15239  0.14319  0.73871  Biso   1.000  H
  H1232    1.0000 0.19010  0.16640  0.73620  Biso   1.000  H
  C672     1.0000 0.89172  0.34725  0.84094  Biso   1.000  C
  C673     1.0000 0.91471  0.31192  0.90318  Biso   1.000  C
  C674     1.0000 0.07183  0.15291  0.88008  Biso   1.000  C
  C675     1.0000 0.11195  0.12085  0.82601  Biso   1.000  C
  C676     1.0000 0.92035  0.37662  0.84943  Biso   1.000  C
  H1233    1.0000 0.89379  0.41911  0.81221  Biso   1.000  H
  H1234    1.0000 0.93299  0.43441  0.83791  Biso   1.000  H
  C677     1.0000 0.13887  0.15276  0.82533  Biso   1.000  C
  H1235    1.0000 0.18891  0.12719  0.79751  Biso   1.000  H
  H1236    1.0000 0.19571  0.17241  0.80819  Biso   1.000  H
  H1237    1.0000 0.87419  0.34941  0.81671  Biso   1.000  H
  C678     1.0000 0.94239  0.34129  0.91251  Biso   1.000  C
  H1238    1.0000 0.91330  0.28950  0.92109  Biso   1.000  H
  C679     1.0000 0.09864  0.18424  0.88011  Biso   1.000  C
  H1239    1.0000 0.04891  0.15311  0.89871  Biso   1.000  H
  H1240    1.0000 0.11680  0.09901  0.80790  Biso   1.000  H
  C680     1.0000 0.94502  0.37388  0.88565  Biso   1.000  C
  C681     1.0000 0.13161  0.18421  0.85248  Biso   1.000  C
  C682     1.0000 0.96843  0.33800  0.95249  Biso   1.000  C
  C683     1.0000 0.09250  0.21764  0.91103  Biso   1.000  C
  H1241    1.0000 0.96370  0.39420  0.89211  Biso   1.000  H
  H1242    1.0000 0.14959  0.20599  0.85200  Biso   1.000  H
  H1243    1.0000 0.95940  0.31499  0.96931  Biso   1.000  H
  H1244    1.0000 0.96410  0.36150  0.97050  Biso   1.000  H
  N167     1.0000 0.01215  0.33423  0.94313  Biso   1.000  N
  N168     1.0000 0.05999  0.24433  0.89607  Biso   1.000  N
  H1245    1.0000 0.11839  0.23239  0.91399  Biso   1.000  H
  H1246    1.0000 0.08511  0.20719  0.93969  Biso   1.000  H
  H1247    1.0000 0.02131  0.35911  0.93911  Biso   1.000  H
  H1248    1.0000 0.02369  0.32579  0.96809  Biso   1.000  H
  C684     1.0000 0.03208  0.31040  0.90800  Biso   1.000  C
  H1249    1.0000 0.02140  0.35490  0.92750  Biso   1.000  H
  H1250    1.0000 0.02699  0.33221  0.96780  Biso   1.000  H
  C685     1.0000 0.01380  0.29680  0.91730  Biso   1.000  C
  C686     1.0000 0.05300  0.27700  0.92634  Biso   1.000  C
  H1251    1.0000 0.06701  0.25420  0.86989  Biso   1.000  H
  H1252    1.0000 0.03639  0.23061  0.89279  Biso   1.000  H
  H1253    1.0000 0.05181  0.32681  0.89211  Biso   1.000  H
  H1254    1.0000 0.01099  0.30129  0.88751  Biso   1.000  H
  H1255    1.0000 0.01169  0.30281  0.88619  Biso   1.000  H
  H1256    1.0000 0.99081  0.27960  0.92531  Biso   1.000  H
  H1257    1.0000 0.07971  0.28579  0.93769  Biso   1.000  H
  H1258    1.0000 0.03679  0.26719  0.95101  Biso   1.000  H
  H1259    1.0000 0.07559  0.29601  0.92389  Biso   1.000  H
  H1260    1.0000 0.05269  0.26690  0.95619  Biso   1.000  H
  N169     1.0000 0.73786  0.08424  0.19313  Biso   1.000  N
  C687     1.0000 0.78157  0.08800  0.20249  Biso   1.000  C
  H1261    1.0000 0.72870  0.10911  0.18911  Biso   1.000  H
  H1262    1.0000 0.72629  0.07580  0.21809  Biso   1.000  H
  C688     1.0000 0.71789  0.06041  0.15800  Biso   1.000  C
  H1263    1.0000 0.72861  0.10491  0.17750  Biso   1.000  H
  H1264    1.0000 0.72299  0.08219  0.21780  Biso   1.000  H
  C689     1.0000 0.73621  0.04680  0.16730  Biso   1.000  C
  C690     1.0000 0.80761  0.09130  0.16251  Biso   1.000  C
  H1265    1.0000 0.79061  0.06499  0.21931  Biso   1.000  H
  H1266    1.0000 0.78591  0.11151  0.22050  Biso   1.000  H
  C691     1.0000 0.69701  0.02701  0.17634  Biso   1.000  C
  H1267    1.0000 0.69820  0.07679  0.14211  Biso   1.000  H
  H1268    1.0000 0.73899  0.05130  0.13751  Biso   1.000  H
  H1269    1.0000 0.73828  0.05279  0.13619  Biso   1.000  H
  H1270    1.0000 0.75920  0.02961  0.17531  Biso   1.000  H
  C692     1.0000 0.80499  0.12386  0.13565  Biso   1.000  C
  C693     1.0000 0.83530  0.06193  0.15318  Biso   1.000  C
  H1271    1.0000 0.67030  0.03580  0.18769  Biso   1.000  H
  H1272    1.0000 0.71319  0.01720  0.20101  Biso   1.000  H
  H1273    1.0000 0.67439  0.04599  0.17389  Biso   1.000  H
  H1274    1.0000 0.69729  0.01691  0.20619  Biso   1.000  H
  N170     1.0000 0.69002  0.99434  0.14607  Biso   1.000  N
  C694     1.0000 0.82965  0.12660  0.09943  Biso   1.000  C
  H1275    1.0000 0.78631  0.14421  0.14211  Biso   1.000  H
  C695     1.0000 0.86113  0.06499  0.11776  Biso   1.000  C
  H1276    1.0000 0.83671  0.03950  0.17109  Biso   1.000  H
  H1277    1.0000 0.68300  0.00420  0.11989  Biso   1.000  H
  H1278    1.0000 0.71359  0.98061  0.14279  Biso   1.000  H
  C696     1.0000 0.65751  0.96765  0.16103  Biso   1.000  C
  C697     1.0000 0.82816  0.16217  0.07115  Biso   1.000  C
  C698     1.0000 0.85829  0.09726  0.09094  Biso   1.000  C
  C699     1.0000 0.89248  0.03355  0.10985  Biso   1.000  C
  C700     1.0000 0.65137  0.93425  0.13011  Biso   1.000  C
  H1279    1.0000 0.63159  0.98239  0.16399  Biso   1.000  H
  H1280    1.0000 0.66490  0.95720  0.18969  Biso   1.000  H
  N171     1.0000 0.80215  0.15606  0.03143  Biso   1.000  N
  H1281    1.0000 0.85621  0.16911  0.06221  Biso   1.000  H
  H1282    1.0000 0.81699  0.18441  0.08791  Biso   1.000  H
  H1283    1.0000 0.87581  0.09939  0.06671  Biso   1.000  H
  N172     1.0000 0.87822  0.00625  0.07578  Biso   1.000  N
  H1284    1.0000 0.91861  0.04561  0.10091  Biso   1.000  H
  H1285    1.0000 0.89740  0.01889  0.13681  Biso   1.000  H
  C701     1.0000 0.61840  0.93422  0.10248  Biso   1.000  C
  C702     1.0000 0.67815  0.90292  0.13008  Biso   1.000  C
  C703     1.0000 0.75773  0.15297  0.04085  Biso   1.000  C
  H1286    1.0000 0.80630  0.17641  0.01309  Biso   1.000  H
  H1287    1.0000 0.81039  0.13390  0.01788  Biso   1.000  H
  H1288    1.0000 0.87719  0.01910  0.05021  Biso   1.000  H
  H1289    1.0000 0.85249  0.99790  0.08219  Biso   1.000  H
  C704     1.0000 0.90588  0.97171  0.07183  Biso   1.000  C
  C705     1.0000 0.61114  0.90277  0.07533  Biso   1.000  C
  H1290    1.0000 0.60039  0.95600  0.10200  Biso   1.000  H
  C706     1.0000 0.67164  0.87124  0.10293  Biso   1.000  C
  H1291    1.0000 0.70110  0.90309  0.14871  Biso   1.000  H
  C707     1.0000 0.73499  0.15171  0.99801  Biso   1.000  C
  H1292    1.0000 0.74860  0.17571  0.05800  Biso   1.000  H
  H1293    1.0000 0.75211  0.12900  0.05761  Biso   1.000  H
  C708     1.0000 0.89389  0.95025  0.03159  Biso   1.000  C
  H1294    1.0000 0.90289  0.95451  0.09721  Biso   1.000  H
  H1295    1.0000 0.93470  0.98029  0.06990  Biso   1.000  H
  C709     1.0000 0.57417  0.90321  0.04674  Biso   1.000  C
  C710     1.0000 0.63806  0.87086  0.07601  Biso   1.000  C
  C711     1.0000 0.70098  0.83670  0.10564  Biso   1.000  C
  N173     1.0000 0.69039  0.15133  0.00579  Biso   1.000  N
  H1296    1.0000 0.74231  0.17481  0.98051  Biso   1.000  H
  H1297    1.0000 0.74299  0.12800  0.98179  Biso   1.000  H
  N174     1.0000 0.92133  0.91611  0.02441  Biso   1.000  N
  H1298    1.0000 0.86531  0.94111  0.03419  Biso   1.000  H
  H1299    1.0000 0.89550  0.96809  0.00669  Biso   1.000  H
  N175     1.0000 0.58375  0.91343  0.00087  Biso   1.000  N
  H1300    1.0000 0.56110  0.87719  0.04751  Biso   1.000  H
  H1301    1.0000 0.55429  0.92239  0.05819  Biso   1.000  H
  H1302    1.0000 0.63321  0.84899  0.05790  Biso   1.000  H
  N176     1.0000 0.73905  0.84391  0.08019  Biso   1.000  N
  H1303    1.0000 0.70831  0.83200  0.13610  Biso   1.000  H
  H1304    1.0000 0.68721  0.81299  0.09460  Biso   1.000  H
  H1305    1.0000 0.68419  0.16979  0.02580  Biso   1.000  H
  H1306    1.0000 0.68321  0.12771  0.01679  Biso   1.000  H
  C712     1.0000 0.66560  0.15892  0.96600  Biso   1.000  C
  C713     1.0000 0.92762  0.90870  0.97732  Biso   1.000  C
  H1307    1.0000 0.91019  0.89451  0.03690  Biso   1.000  H
  H1308    1.0000 0.94590  0.92070  0.03709  Biso   1.000  H
  C714     1.0000 0.60857  0.95001  0.99595  Biso   1.000  C
  H1309    1.0000 0.59761  0.89319  0.98871  Biso   1.000  H
  H1310    1.0000 0.55991  0.91641  0.98620  Biso   1.000  H
  H1311    1.0000 0.74979  0.86741  0.08801  Biso   1.000  H
  H1312    1.0000 0.75770  0.82510  0.08659  Biso   1.000  H
  C715     1.0000 0.73154  0.84394  0.03281  Biso   1.000  C
  C716     1.0000 0.66816  0.12573  0.93396  Biso   1.000  C
  H1313    1.0000 0.67540  0.18319  0.95220  Biso   1.000  H
  H1314    1.0000 0.63669  0.16290  0.97420  Biso   1.000  H
  C717     1.0000 0.88793  0.90876  0.95345  Biso   1.000  C
  H1315    1.0000 0.94569  0.92911  0.96529  Biso   1.000  H
  H1316    1.0000 0.94120  0.88309  0.97340  Biso   1.000  H
  C718     1.0000 0.60741  0.96394  0.95027  Biso   1.000  C
  H1317    1.0000 0.59761  0.97051  0.01509  Biso   1.000  H
  H1318    1.0000 0.63721  0.94479  0.00450  Biso   1.000  H
  C719     1.0000 0.77156  0.84642  0.00843  Biso   1.000  C
  H1319    1.0000 0.71411  0.86651  0.02509  Biso   1.000  H
  H1320    1.0000 0.71688  0.81970  0.02461  Biso   1.000  H
  C720     1.0000 0.69500  0.12628  0.89929  Biso   1.000  C
  C721     1.0000 0.64154  0.09405  0.93908  Biso   1.000  C
  C722     1.0000 0.87621  0.94096  0.92930  Biso   1.000  C
  C723     1.0000 0.86214  0.87614  0.95506  Biso   1.000  C
  N177     1.0000 0.63248  0.00026  0.94545  Biso   1.000  N
  H1321    1.0000 0.61819  0.94330  0.93100  Biso   1.000  H
  H1322    1.0000 0.57881  0.96940  0.94181  Biso   1.000  H
  N178     1.0000 0.76216  0.84321  0.96204  Biso   1.000  N
  H1323    1.0000 0.78521  0.87159  0.01451  Biso   1.000  H
  H1324    1.0000 0.79000  0.82499  0.01731  Biso   1.000  H
  C724     1.0000 0.69603  0.09586  0.86985  Biso   1.000  C
  H1325    1.0000 0.71289  0.14780  0.89572  Biso   1.000  H
  H1326    1.0000 0.62289  0.09361  0.96240  Biso   1.000  H
  C725     1.0000 0.64249  0.06330  0.91000  Biso   1.000  C
  C726     1.0000 0.83881  0.94187  0.90800  Biso   1.000  C
  H1327    1.0000 0.89401  0.96280  0.92721  Biso   1.000  H
  C727     1.0000 0.82505  0.87608  0.93325  Biso   1.000  C
  H1328    1.0000 0.87010  0.85389  0.97121  Biso   1.000  H
  C728     1.0000 0.61431  0.02914  0.91530  Biso   1.000  C
  H1329    1.0000 0.65781  0.99361  0.93580  Biso   1.000  H
  H1330    1.0000 0.63550  0.01159  0.97169  Biso   1.000  H
  C729     1.0000 0.79919  0.83976  0.93325  Biso   1.000  C
  H1331    1.0000 0.74760  0.86461  0.95391  Biso   1.000  H
  H1332    1.0000 0.74601  0.82189  0.95789  Biso   1.000  H
  C730     1.0000 0.66969  0.06426  0.87545  Biso   1.000  C
  C731     1.0000 0.72452  0.09574  0.83183  Biso   1.000  C
  C732     1.0000 0.82675  0.97667  0.88114  Biso   1.000  C
  C733     1.0000 0.81302  0.90934  0.90993  Biso   1.000  C
  H1333    1.0000 0.58769  0.03819  0.92669  Biso   1.000  H
  H1334    1.0000 0.60949  0.01670  0.88700  Biso   1.000  H
  H1335    1.0000 0.81601  0.81740  0.94300  Biso   1.000  H
  H1336    1.0000 0.79009  0.83430  0.90350  Biso   1.000  H
  H1337    1.0000 0.67030  0.04321  0.85560  Biso   1.000  H
  N179     1.0000 0.76829  0.08856  0.84467  Biso   1.000  N
  H1338    1.0000 0.72259  0.12120  0.81691  Biso   1.000  H
  H1339    1.0000 0.71579  0.07521  0.81141  Biso   1.000  H
  N180     1.0000 0.82846  0.01343  0.90720  Biso   1.000  N
  H1340    1.0000 0.84550  0.97901  0.85621  Biso   1.000  H
  H1341    1.0000 0.79870  0.97290  0.87001  Biso   1.000  H
  H1342    1.0000 0.78750  0.90969  0.89549  Biso   1.000  H
  H1343    1.0000 0.78359  0.08599  0.82041  Biso   1.000  H
  H1344    1.0000 0.77760  0.10981  0.85930  Biso   1.000  H
  C734     1.0000 0.77419  0.05320  0.87201  Biso   1.000  C
  C735     1.0000 0.81952  0.04914  0.88150  Biso   1.000  C
  H1345    1.0000 0.81009  0.01171  0.92910  Biso   1.000  H
  H1346    1.0000 0.85371  0.01571  0.91900  Biso   1.000  H
  H1347    1.0000 0.76420  0.02969  0.85670  Biso   1.000  H
  H1348    1.0000 0.75871  0.05591  0.89919  Biso   1.000  H
  H1349    1.0000 0.83481  0.04800  0.85409  Biso   1.000  H
  H1350    1.0000 0.82901  0.07241  0.89748  Biso   1.000  H
  N181     1.0000 0.26214  0.91576  0.19313  Biso   1.000  N
  C736     1.0000 0.21843  0.91200  0.20249  Biso   1.000  C
  H1351    1.0000 0.27130  0.89089  0.18911  Biso   1.000  H
  H1352    1.0000 0.27371  0.92420  0.21809  Biso   1.000  H
  C737     1.0000 0.28211  0.93959  0.15800  Biso   1.000  C
  H1353    1.0000 0.27139  0.89509  0.17750  Biso   1.000  H
  H1354    1.0000 0.27701  0.91781  0.21780  Biso   1.000  H
  C738     1.0000 0.26379  0.95320  0.16730  Biso   1.000  C
  C739     1.0000 0.19239  0.90870  0.16251  Biso   1.000  C
  H1355    1.0000 0.20939  0.93501  0.21931  Biso   1.000  H
  H1356    1.0000 0.21409  0.88849  0.22050  Biso   1.000  H
  C740     1.0000 0.30299  0.97299  0.17634  Biso   1.000  C
  H1357    1.0000 0.30180  0.92321  0.14211  Biso   1.000  H
  H1358    1.0000 0.26101  0.94870  0.13751  Biso   1.000  H
  H1359    1.0000 0.26172  0.94721  0.13619  Biso   1.000  H
  H1360    1.0000 0.24080  0.97039  0.17531  Biso   1.000  H
  C741     1.0000 0.19501  0.87614  0.13565  Biso   1.000  C
  C742     1.0000 0.16470  0.93807  0.15318  Biso   1.000  C
  H1361    1.0000 0.32970  0.96420  0.18769  Biso   1.000  H
  H1362    1.0000 0.28681  0.98280  0.20101  Biso   1.000  H
  H1363    1.0000 0.32561  0.95401  0.17389  Biso   1.000  H
  H1364    1.0000 0.30271  0.98309  0.20619  Biso   1.000  H
  N182     1.0000 0.30998  0.00566  0.14607  Biso   1.000  N
  C743     1.0000 0.17035  0.87340  0.09943  Biso   1.000  C
  H1365    1.0000 0.21369  0.85579  0.14211  Biso   1.000  H
  C744     1.0000 0.13887  0.93501  0.11776  Biso   1.000  C
  H1366    1.0000 0.16329  0.96050  0.17109  Biso   1.000  H
  H1367    1.0000 0.31700  0.99580  0.11989  Biso   1.000  H
  H1368    1.0000 0.28641  0.01939  0.14279  Biso   1.000  H
  C745     1.0000 0.34249  0.03235  0.16103  Biso   1.000  C
  C746     1.0000 0.17184  0.83783  0.07115  Biso   1.000  C
  C747     1.0000 0.14171  0.90274  0.09094  Biso   1.000  C
  C748     1.0000 0.10752  0.96645  0.10985  Biso   1.000  C
  C749     1.0000 0.34863  0.06575  0.13011  Biso   1.000  C
  H1369    1.0000 0.36841  0.01761  0.16399  Biso   1.000  H
  H1370    1.0000 0.33510  0.04280  0.18969  Biso   1.000  H
  N183     1.0000 0.19785  0.84394  0.03143  Biso   1.000  N
  H1371    1.0000 0.14379  0.83089  0.06221  Biso   1.000  H
  H1372    1.0000 0.18301  0.81559  0.08791  Biso   1.000  H
  H1373    1.0000 0.12419  0.90061  0.06671  Biso   1.000  H
  N184     1.0000 0.12178  0.99375  0.07578  Biso   1.000  N
  H1374    1.0000 0.08139  0.95439  0.10091  Biso   1.000  H
  H1375    1.0000 0.10260  0.98111  0.13681  Biso   1.000  H
  C750     1.0000 0.38160  0.06578  0.10248  Biso   1.000  C
  C751     1.0000 0.32185  0.09708  0.13008  Biso   1.000  C
  H1376    1.0000 0.19370  0.82359  0.01309  Biso   1.000  H
  H1377    1.0000 0.18961  0.86610  0.01788  Biso   1.000  H
  C752     1.0000 0.24227  0.84703  0.04085  Biso   1.000  C
  H1378    1.0000 0.12281  0.98090  0.05021  Biso   1.000  H
  H1379    1.0000 0.14751  0.00210  0.08219  Biso   1.000  H
  C753     1.0000 0.09412  0.02829  0.07183  Biso   1.000  C
  C754     1.0000 0.38886  0.09723  0.07533  Biso   1.000  C
  H1380    1.0000 0.39961  0.04400  0.10200  Biso   1.000  H
  H1381    1.0000 0.29890  0.09691  0.14871  Biso   1.000  H
  C755     1.0000 0.32836  0.12876  0.10293  Biso   1.000  C
  H1382    1.0000 0.25140  0.82429  0.05800  Biso   1.000  H
  H1383    1.0000 0.24789  0.87100  0.05761  Biso   1.000  H
  C756     1.0000 0.26501  0.84829  0.99801  Biso   1.000  C
  C757     1.0000 0.10611  0.04975  0.03159  Biso   1.000  C
  H1384    1.0000 0.09711  0.04549  0.09721  Biso   1.000  H
  H1385    1.0000 0.06530  0.01971  0.06990  Biso   1.000  H
  C758     1.0000 0.36194  0.12914  0.07601  Biso   1.000  C
  C759     1.0000 0.42583  0.09679  0.04674  Biso   1.000  C
  C760     1.0000 0.29902  0.16330  0.10564  Biso   1.000  C
  N185     1.0000 0.30961  0.84867  0.00579  Biso   1.000  N
  H1386    1.0000 0.25769  0.82519  0.98051  Biso   1.000  H
  H1387    1.0000 0.25701  0.87200  0.98179  Biso   1.000  H
  N186     1.0000 0.07867  0.08389  0.02441  Biso   1.000  N
  H1388    1.0000 0.13469  0.05889  0.03419  Biso   1.000  H
  H1389    1.0000 0.10450  0.03191  0.00669  Biso   1.000  H
  H1390    1.0000 0.36679  0.15101  0.05790  Biso   1.000  H
  N187     1.0000 0.41625  0.08657  0.00087  Biso   1.000  N
  H1391    1.0000 0.43890  0.12281  0.04751  Biso   1.000  H
  H1392    1.0000 0.44571  0.07761  0.05819  Biso   1.000  H
  N188     1.0000 0.26095  0.15609  0.08019  Biso   1.000  N
  H1393    1.0000 0.29169  0.16800  0.13610  Biso   1.000  H
  H1394    1.0000 0.31279  0.18701  0.09460  Biso   1.000  H
  H1395    1.0000 0.31581  0.83021  0.02580  Biso   1.000  H
  H1396    1.0000 0.31679  0.87229  0.01679  Biso   1.000  H
  C761     1.0000 0.33440  0.84108  0.96600  Biso   1.000  C
  C762     1.0000 0.07238  0.09130  0.97732  Biso   1.000  C
  H1397    1.0000 0.08981  0.10549  0.03690  Biso   1.000  H
  H1398    1.0000 0.05410  0.07930  0.03709  Biso   1.000  H
  C763     1.0000 0.39143  0.04999  0.99595  Biso   1.000  C
  H1399    1.0000 0.40239  0.10681  0.98871  Biso   1.000  H
  H1400    1.0000 0.44009  0.08359  0.98620  Biso   1.000  H
  H1401    1.0000 0.25021  0.13259  0.08801  Biso   1.000  H
  H1402    1.0000 0.24230  0.17490  0.08659  Biso   1.000  H
  C764     1.0000 0.26846  0.15606  0.03281  Biso   1.000  C
  C765     1.0000 0.33184  0.87427  0.93396  Biso   1.000  C
  H1403    1.0000 0.32460  0.81681  0.95220  Biso   1.000  H
  H1404    1.0000 0.36331  0.83710  0.97420  Biso   1.000  H
  C766     1.0000 0.11207  0.09124  0.95345  Biso   1.000  C
  H1405    1.0000 0.05431  0.07089  0.96529  Biso   1.000  H
  H1406    1.0000 0.05880  0.11691  0.97340  Biso   1.000  H
  C767     1.0000 0.39259  0.03606  0.95027  Biso   1.000  C
  H1407    1.0000 0.40239  0.02949  0.01509  Biso   1.000  H
  H1408    1.0000 0.36279  0.05521  0.00450  Biso   1.000  H
  C768     1.0000 0.22844  0.15358  0.00843  Biso   1.000  C
  H1409    1.0000 0.28589  0.13349  0.02509  Biso   1.000  H
  H1410    1.0000 0.28312  0.18030  0.02461  Biso   1.000  H
  C769     1.0000 0.30500  0.87372  0.89929  Biso   1.000  C
  C770     1.0000 0.35846  0.90595  0.93908  Biso   1.000  C
  C771     1.0000 0.13786  0.12386  0.95506  Biso   1.000  C
  C772     1.0000 0.12379  0.05904  0.92930  Biso   1.000  C
  N189     1.0000 0.36752  0.99974  0.94545  Biso   1.000  N
  H1411    1.0000 0.38181  0.05670  0.93100  Biso   1.000  H
  H1412    1.0000 0.42119  0.03060  0.94181  Biso   1.000  H
  N190     1.0000 0.23784  0.15679  0.96204  Biso   1.000  N
  H1413    1.0000 0.21479  0.12841  0.01451  Biso   1.000  H
  H1414    1.0000 0.21000  0.17501  0.01731  Biso   1.000  H
  C773     1.0000 0.30397  0.90414  0.86985  Biso   1.000  C
  H1415    1.0000 0.28711  0.85220  0.89572  Biso   1.000  H
  H1416    1.0000 0.37711  0.90639  0.96240  Biso   1.000  H
  C774     1.0000 0.35751  0.93670  0.91000  Biso   1.000  C
  C775     1.0000 0.17495  0.12392  0.93325  Biso   1.000  C
  H1417    1.0000 0.12990  0.14611  0.97121  Biso   1.000  H
  C776     1.0000 0.16119  0.05813  0.90800  Biso   1.000  C
  H1418    1.0000 0.10599  0.03720  0.92721  Biso   1.000  H
  C777     1.0000 0.38569  0.97086  0.91530  Biso   1.000  C
  H1419    1.0000 0.36450  0.98841  0.97169  Biso   1.000  H
  H1420    1.0000 0.34219  0.00639  0.93580  Biso   1.000  H
  C778     1.0000 0.20081  0.16024  0.93325  Biso   1.000  C
  H1421    1.0000 0.25240  0.13539  0.95391  Biso   1.000  H
  H1422    1.0000 0.25399  0.17811  0.95789  Biso   1.000  H
  C779     1.0000 0.33031  0.93574  0.87545  Biso   1.000  C
  C780     1.0000 0.27548  0.90426  0.83183  Biso   1.000  C
  C781     1.0000 0.18698  0.09066  0.90993  Biso   1.000  C
  C782     1.0000 0.17325  0.02333  0.88114  Biso   1.000  C
  H1423    1.0000 0.41231  0.96181  0.92669  Biso   1.000  H
  H1424    1.0000 0.39051  0.98330  0.88700  Biso   1.000  H
  H1425    1.0000 0.18399  0.18260  0.94300  Biso   1.000  H
  H1426    1.0000 0.20991  0.16570  0.90350  Biso   1.000  H
  H1427    1.0000 0.32970  0.95679  0.85560  Biso   1.000  H
  N191     1.0000 0.23171  0.91144  0.84467  Biso   1.000  N
  H1428    1.0000 0.27741  0.87880  0.81691  Biso   1.000  H
  H1429    1.0000 0.28421  0.92479  0.81141  Biso   1.000  H
  H1430    1.0000 0.21250  0.09031  0.89549  Biso   1.000  H
  N192     1.0000 0.17154  0.98657  0.90720  Biso   1.000  N
  H1431    1.0000 0.15450  0.02099  0.85621  Biso   1.000  H
  H1432    1.0000 0.20130  0.02710  0.87001  Biso   1.000  H
  H1433    1.0000 0.21641  0.91401  0.82041  Biso   1.000  H
  H1434    1.0000 0.22240  0.89019  0.85930  Biso   1.000  H
  C783     1.0000 0.22581  0.94680  0.87201  Biso   1.000  C
  C784     1.0000 0.18048  0.95086  0.88150  Biso   1.000  C
  H1435    1.0000 0.18991  0.98829  0.92910  Biso   1.000  H
  H1436    1.0000 0.14629  0.98429  0.91900  Biso   1.000  H
  H1437    1.0000 0.23580  0.97031  0.85670  Biso   1.000  H
  H1438    1.0000 0.24129  0.94409  0.89919  Biso   1.000  H
  H1439    1.0000 0.16519  0.95200  0.85409  Biso   1.000  H
  H1440    1.0000 0.17099  0.92759  0.89748  Biso   1.000  H
  Ne1      1.0000 0.49983  0.25169  0.27052  Biso   1.000  Ne
  He1      1.0000 0.45374  0.18776  0.37829  Biso   1.000  He
  He2      1.0000 0.60811  0.30679  0.30494  Biso   1.000  He
  He3      1.0000 0.41620  0.31175  0.24347  Biso   1.000  He
  He4      1.0000 0.52798  0.19171  0.19747  Biso   1.000  He
  Ar1      1.0000 0.50262  0.25122  0.27479  Biso   1.000  Ar
  Ne2      1.0000 0.00017  0.24831  0.27052  Biso   1.000  Ne
  He5      1.0000 0.02828  0.30084  0.33641  Biso   1.000  He
  He6      1.0000 0.89353  0.19363  0.30431  Biso   1.000  He
  He7      1.0000 0.05902  0.19754  0.25748  Biso   1.000  He
  He8      1.0000 0.95426  0.32352  0.16358  Biso   1.000  He
  Ar2      1.0000 0.99738  0.24878  0.27479  Biso   1.000  Ar
  Ne3      1.0000 0.25017  0.50169  0.02052  Biso   1.000  Ne
  He9      1.0000 0.27792  0.44940  0.08560  Biso   1.000  He
  He10     1.0000 0.14217  0.55671  0.05484  Biso   1.000  He
  He11     1.0000 0.33320  0.56149  0.99370  Biso   1.000  He
  He12     1.0000 0.20419  0.42641  0.91344  Biso   1.000  He
  Ar3      1.0000 0.24738  0.50122  0.02478  Biso   1.000  Ar
  Ne4      1.0000 0.24983  0.49831  0.52052  Biso   1.000  Ne
  He13     1.0000 0.21781  0.55332  0.59557  Biso   1.000  He
  He14     1.0000 0.37243  0.43952  0.56026  Biso   1.000  He
  He15     1.0000 0.19632  0.44907  0.51003  Biso   1.000  He
  He16     1.0000 0.28641  0.56595  0.42774  Biso   1.000  He
  Ar4      1.0000 0.24808  0.52321  0.52698  Biso   1.000  Ar
  Ne5      1.0000 0.25017  0.00169  0.52052  Biso   1.000  Ne
  He17     1.0000 0.28121  0.94732  0.59327  Biso   1.000  He
  He18     1.0000 0.18456  0.04584  0.53908  Biso   1.000  He
  He19     1.0000 0.37329  0.07833  0.47715  Biso   1.000  He
  He20     1.0000 0.22541  0.94513  0.45838  Biso   1.000  He
  Ar5      1.0000 0.23793  0.99795  0.51764  Biso   1.000  Ar
  Ne6      1.0000 0.50017  0.74831  0.27052  Biso   1.000  Ne
  He21     1.0000 0.52826  0.80082  0.33644  Biso   1.000  He
  He22     1.0000 0.39351  0.69363  0.30434  Biso   1.000  He
  He23     1.0000 0.55904  0.69756  0.25750  Biso   1.000  He
  He24     1.0000 0.45428  0.82351  0.16358  Biso   1.000  He
  Ar6      1.0000 0.49738  0.74878  0.27479  Biso   1.000  Ar
  Ne7      1.0000 0.50017  0.24831  0.77052  Biso   1.000  Ne
  He25     1.0000 0.52826  0.30083  0.83641  Biso   1.000  He
  He26     1.0000 0.39351  0.19364  0.80432  Biso   1.000  He
  He27     1.0000 0.55902  0.19755  0.75749  Biso   1.000  He
  He28     1.0000 0.45426  0.32352  0.66358  Biso   1.000  He
  Ar7      1.0000 0.49738  0.24878  0.77479  Biso   1.000  Ar
  Ne8      1.0000 0.74983  0.49831  0.02052  Biso   1.000  Ne
  He29     1.0000 0.72350  0.54970  0.08230  Biso   1.000  He
  He30     1.0000 0.81043  0.45546  0.03723  Biso   1.000  He
  He31     1.0000 0.66661  0.43842  0.99362  Biso   1.000  He
  He32     1.0000 0.77837  0.55869  0.94624  Biso   1.000  He
  Ar8      1.0000 0.75262  0.49878  0.02478  Biso   1.000  Ar
  Ne9      1.0000 0.75017  0.50169  0.52052  Biso   1.000  Ne
  He33     1.0000 0.77790  0.44940  0.58560  Biso   1.000  He
  He34     1.0000 0.64218  0.55672  0.55483  Biso   1.000  He
  He35     1.0000 0.83319  0.56149  0.49370  Biso   1.000  He
  He36     1.0000 0.70419  0.42640  0.41344  Biso   1.000  He
  Ar9      1.0000 0.74738  0.50122  0.52479  Biso   1.000  Ar
  Ne10     1.0000 0.75017  0.00169  0.02052  Biso   1.000  Ne
  He37     1.0000 0.78211  0.94674  0.09539  Biso   1.000  He
  He38     1.0000 0.67257  0.04891  0.04353  Biso   1.000  He
  He39     1.0000 0.82329  0.05747  0.99906  Biso   1.000  He
  He40     1.0000 0.71787  0.93765  0.93516  Biso   1.000  He
  Ar10     1.0000 0.75044  0.97651  0.02588  Biso   1.000  Ar
  Ne11     1.0000 0.49983  0.75169  0.77052  Biso   1.000  Ne
  He41     1.0000 0.45373  0.68774  0.87829  Biso   1.000  He
  He42     1.0000 0.60811  0.80678  0.80493  Biso   1.000  He
  He43     1.0000 0.41621  0.81177  0.74346  Biso   1.000  He
  He44     1.0000 0.52799  0.69170  0.69748  Biso   1.000  He
  Ar11     1.0000 0.50262  0.75122  0.77479  Biso   1.000  Ar
  Ne12     1.0000 0.00017  0.74831  0.77052  Biso   1.000  Ne
  He45     1.0000 0.03777  0.80686  0.85851  Biso   1.000  He
  He46     1.0000 0.92742  0.70234  0.79174  Biso   1.000  He
  He47     1.0000 0.07502  0.69188  0.74796  Biso   1.000  He
  He48     1.0000 0.95999  0.79887  0.62176  Biso   1.000  He
  Ar12     1.0000 0.99997  0.77362  0.77553  Biso   1.000  Ar
  Ne13     1.0000 0.24983  0.99831  0.02052  Biso   1.000  Ne
  He49     1.0000 0.22351  0.04970  0.08233  Biso   1.000  He
  He50     1.0000 0.31046  0.95545  0.03722  Biso   1.000  He
  He51     1.0000 0.16663  0.93843  0.99363  Biso   1.000  He
  He52     1.0000 0.27837  0.05868  0.94624  Biso   1.000  He
  Ar13     1.0000 0.25262  0.99878  0.02479  Biso   1.000  Ar
  Ne14     1.0000 0.99983  0.75169  0.27052  Biso   1.000  Ne
  He53     1.0000 0.96799  0.69679  0.34510  Biso   1.000  He
  He54     1.0000 0.12178  0.81030  0.31000  Biso   1.000  He
  He55     1.0000 0.94747  0.80064  0.26054  Biso   1.000  He
  He56     1.0000 0.03593  0.68445  0.17850  Biso   1.000  He
  Ar14     1.0000 0.99948  0.72647  0.27588  Biso   1.000  Ar
  Ne15     1.0000 0.99983  0.25169  0.77052  Biso   1.000  Ne
  He57     1.0000 0.96800  0.19680  0.84510  Biso   1.000  He
  He58     1.0000 0.12178  0.31031  0.81001  Biso   1.000  He
  He59     1.0000 0.94744  0.30063  0.76055  Biso   1.000  He
  He60     1.0000 0.03592  0.18446  0.67850  Biso   1.000  He
  Ar15     1.0000 0.99967  0.22647  0.77579  Biso   1.000  Ar
  Ne16     1.0000 0.74983  0.99831  0.52052  Biso   1.000  Ne
  He61     1.0000 0.71780  0.05331  0.59558  Biso   1.000  He
  He62     1.0000 0.87246  0.93952  0.56026  Biso   1.000  He
  He63     1.0000 0.62502  0.92119  0.47654  Biso   1.000  He
  He64     1.0000 0.78639  0.06593  0.42773  Biso   1.000  He
  Ar16     1.0000 0.74940  0.02358  0.52582  Biso   1.000  Ar
