data_image0
_cell_length_a       20.228
_cell_length_b       20.228
_cell_length_c       32.016
_cell_angle_alpha    90
_cell_angle_beta     90
_cell_angle_gamma    90

_symmetry_space_group_name_H-M    "P 1"
_symmetry_int_tables_number       1

loop_
  _symmetry_equiv_pos_as_xyz
  'x, y, z'

loop_
  _atom_site_label
  _atom_site_occupancy
  _atom_site_fract_x
  _atom_site_fract_y
  _atom_site_fract_z
  _atom_site_thermal_displace_type
  _atom_site_B_iso_or_equiv
  _atom_site_type_symbol
  C1       1.0000 0.57257  0.51938  0.48310  Biso   1.000  C
  N1       1.0000 0.62537  0.48799  0.51181  Biso   1.000  N
  C2       1.0000 0.57198  0.59447  0.48641  Biso   1.000  C
  H1       1.0000 0.58157  0.50648  0.45380  Biso   1.000  H
  H2       1.0000 0.52848  0.50198  0.49069  Biso   1.000  H
  H3       1.0000 0.61440  0.49511  0.53901  Biso   1.000  H
  H4       1.0000 0.62690  0.44359  0.50740  Biso   1.000  H
  C3       1.0000 0.69330  0.51829  0.50281  Biso   1.000  C
  C4       1.0000 0.55799  0.62409  0.52389  Biso   1.000  C
  C5       1.0000 0.58730  0.63308  0.45171  Biso   1.000  C
  C6       1.0000 0.74990  0.47909  0.52171  Biso   1.000  C
  H5       1.0000 0.69967  0.52101  0.47220  Biso   1.000  H
  H6       1.0000 0.69438  0.56387  0.51409  Biso   1.000  H
  C7       1.0000 0.55809  0.69107  0.52749  Biso   1.000  C
  H7       1.0000 0.54830  0.59749  0.54760  Biso   1.000  H
  H8       1.0000 0.59788  0.61257  0.42591  Biso   1.000  H
  C8       1.0000 0.58730  0.69928  0.45480  Biso   1.000  C
  N2       1.0000 0.75801  0.49041  0.56759  Biso   1.000  N
  H9       1.0000 0.74199  0.43138  0.51671  Biso   1.000  H
  H10      1.0000 0.79138  0.49140  0.50731  Biso   1.000  H
  C9       1.0000 0.57277  0.73037  0.49291  Biso   1.000  C
  C10      1.0000 0.54711  0.72380  0.57009  Biso   1.000  C
  C11      1.0000 0.59719  0.73898  0.41529  Biso   1.000  C
  H11      1.0000 0.78950  0.46258  0.57771  Biso   1.000  H
  H12      1.0000 0.71930  0.48107  0.58090  Biso   1.000  H
  C12      1.0000 0.77788  0.56160  0.57690  Biso   1.000  C
  H13      1.0000 0.57297  0.77729  0.49510  Biso   1.000  H
  N3       1.0000 0.47899  0.74150  0.57840  Biso   1.000  N
  H14      1.0000 0.56239  0.69320  0.59220  Biso   1.000  H
  H15      1.0000 0.57460  0.76409  0.57171  Biso   1.000  H
  N4       1.0000 0.66408  0.77269  0.41439  Biso   1.000  N
  H16      1.0000 0.56199  0.77289  0.41320  Biso   1.000  H
  H17      1.0000 0.59329  0.70936  0.39080  Biso   1.000  H
  C13      1.0000 0.80838  0.56758  0.62041  Biso   1.000  C
  H18      1.0000 0.73848  0.59037  0.57499  Biso   1.000  H
  H19      1.0000 0.81016  0.57668  0.55569  Biso   1.000  H
  H20      1.0000 0.45229  0.70867  0.56881  Biso   1.000  H
  H21      1.0000 0.46910  0.77887  0.56391  Biso   1.000  H
  C14      1.0000 0.46391  0.75287  0.62369  Biso   1.000  C
  H22      1.0000 0.66630  0.79800  0.39099  Biso   1.000  H
  H23      1.0000 0.66660  0.80047  0.43669  Biso   1.000  H
  C15      1.0000 0.72068  0.73077  0.41520  Biso   1.000  C
  C16      1.0000 0.87671  0.55908  0.62569  Biso   1.000  C
  C17      1.0000 0.76879  0.58320  0.65511  Biso   1.000  C
  C18      1.0000 0.50148  0.80779  0.64349  Biso   1.000  C
  H24      1.0000 0.41611  0.76226  0.62650  Biso   1.000  H
  H25      1.0000 0.47321  0.71169  0.63921  Biso   1.000  H
  C19      1.0000 0.78658  0.78030  0.42141  Biso   1.000  C
  H26      1.0000 0.72419  0.70561  0.38881  Biso   1.000  H
  H27      1.0000 0.71747  0.69898  0.43869  Biso   1.000  H
  C20      1.0000 0.90790  0.57119  0.66420  Biso   1.000  C
  H28      1.0000 0.90256  0.54479  0.60260  Biso   1.000  H
  H29      1.0000 0.72237  0.58839  0.65189  Biso   1.000  H
  C21      1.0000 0.79850  0.59121  0.69459  Biso   1.000  C
  N5       1.0000 0.47449  0.87448  0.63271  Biso   1.000  N
  H30      1.0000 0.54820  0.80537  0.63450  Biso   1.000  H
  H31      1.0000 0.50030  0.80220  0.67419  Biso   1.000  H
  N6       1.0000 0.84378  0.74080  0.42291  Biso   1.000  N
  H32      1.0000 0.78960  0.81170  0.39771  Biso   1.000  H
  H33      1.0000 0.78218  0.80606  0.44750  Biso   1.000  H
  C22      1.0000 0.86687  0.58557  0.69799  Biso   1.000  C
  C23      1.0000 0.98107  0.56699  0.66689  Biso   1.000  C
  C24      1.0000 0.76127  0.60827  0.73142  Biso   1.000  C
  H34      1.0000 0.43000  0.87468  0.63699  Biso   1.000  H
  H35      1.0000 0.48191  0.88269  0.60520  Biso   1.000  H
  C25      1.0000 0.50559  0.92797  0.65830  Biso   1.000  C
  H36      1.0000 0.84610  0.71688  0.39889  Biso   1.000  H
  H37      1.0000 0.83928  0.71159  0.44440  Biso   1.000  H
  C26      1.0000 0.90538  0.77516  0.42819  Biso   1.000  C
  H38      1.0000 0.88669  0.59200  0.72461  Biso   1.000  H
  H39      1.0000 0.99609  0.52511  0.65389  Biso   1.000  H
  H40      1.0000 0.99456  0.56649  0.69659  Biso   1.000  H
  N7       1.0000 0.01458  0.62527  0.64471  Biso   1.000  N
  N8       1.0000 0.72098  0.66477  0.73851  Biso   1.000  N
  H41      1.0000 0.73210  0.56990  0.73660  Biso   1.000  H
  H42      1.0000 0.79390  0.60836  0.75450  Biso   1.000  H
  N9       1.0000 0.74689  0.68509  0.71780  Biso   1.000  N
  H43      1.0000 0.78787  0.60490  0.75731  Biso   1.000  H
  H44      1.0000 0.72019  0.58197  0.73420  Biso   1.000  H
  C27      1.0000 0.57989  0.92876  0.65820  Biso   1.000  C
  H45      1.0000 0.49031  0.92327  0.68759  Biso   1.000  H
  H46      1.0000 0.48957  0.97128  0.64789  Biso   1.000  H
  C28      1.0000 0.91378  0.81358  0.46830  Biso   1.000  C
  H47      1.0000 0.91067  0.80631  0.40461  Biso   1.000  H
  H48      1.0000 0.94167  0.74249  0.42629  Biso   1.000  H
  C29      1.0000 0.98596  0.69038  0.65420  Biso   1.000  C
  H49      1.0000 0.05809  0.62577  0.65189  Biso   1.000  H
  H50      1.0000 0.01226  0.61850  0.61660  Biso   1.000  H
  H51      1.0000 0.70037  0.66047  0.76371  Biso   1.000  H
  H52      1.0000 0.68919  0.66690  0.71839  Biso   1.000  H
  C30      1.0000 0.75939  0.72721  0.73819  Biso   1.000  C
  C31      1.0000 0.72830  0.72370  0.75672  Biso   1.000  C
  H53      1.0000 0.78540  0.73047  0.71211  Biso   1.000  H
  H54      1.0000 0.78367  0.70289  0.70590  Biso   1.000  H
  H55      1.0000 0.71337  0.68667  0.69890  Biso   1.000  H
  C32      1.0000 0.61321  0.91739  0.69472  Biso   1.000  C
  C33      1.0000 0.61351  0.94260  0.62019  Biso   1.000  C
  C34      1.0000 0.91680  0.88259  0.46711  Biso   1.000  C
  C35      1.0000 0.92199  0.78199  0.50568  Biso   1.000  C
  H56      1.0000 0.98240  0.69537  0.68481  Biso   1.000  H
  H57      1.0000 0.94078  0.69251  0.64240  Biso   1.000  H
  C36      1.0000 0.02650  0.74748  0.63681  Biso   1.000  C
  C37      1.0000 0.70991  0.78718  0.74150  Biso   1.000  C
  H58      1.0000 0.79059  0.72790  0.76209  Biso   1.000  H
  C38      1.0000 0.76987  0.78416  0.75850  Biso   1.000  C
  H59      1.0000 0.68089  0.73586  0.75568  Biso   1.000  H
  H60      1.0000 0.73576  0.69626  0.78189  Biso   1.000  H
  C39      1.0000 0.68499  0.91818  0.69290  Biso   1.000  C
  H61      1.0000 0.59037  0.90919  0.72011  Biso   1.000  H
  C40      1.0000 0.68168  0.94176  0.61950  Biso   1.000  C
  H62      1.0000 0.58918  0.95219  0.59551  Biso   1.000  H
  C41      1.0000 0.92639  0.91937  0.50359  Biso   1.000  C
  H63      1.0000 0.91220  0.90479  0.44109  Biso   1.000  H
  C42      1.0000 0.93306  0.81531  0.54320  Biso   1.000  C
  H64      1.0000 0.92006  0.73507  0.50618  Biso   1.000  H
  N10      1.0000 0.00949  0.76261  0.59239  Biso   1.000  N
  H65      1.0000 0.01859  0.78728  0.65411  Biso   1.000  H
  H66      1.0000 0.07396  0.73631  0.63871  Biso   1.000  H
  N11      1.0000 0.75440  0.84650  0.73751  Biso   1.000  N
  H67      1.0000 0.67678  0.78599  0.71880  Biso   1.000  H
  H68      1.0000 0.68667  0.78718  0.76880  Biso   1.000  H
  H69      1.0000 0.77497  0.79499  0.78851  Biso   1.000  H
  H70      1.0000 0.81417  0.77086  0.74841  Biso   1.000  H
  C43      1.0000 0.71777  0.92940  0.65539  Biso   1.000  C
  C44      1.0000 0.72009  0.90859  0.73242  Biso   1.000  C
  C45      1.0000 0.71841  0.94997  0.57840  Biso   1.000  C
  C46      1.0000 0.93539  0.88709  0.53979  Biso   1.000  C
  C47      1.0000 0.93099  0.99328  0.50091  Biso   1.000  C
  C48      1.0000 0.94186  0.78317  0.58399  Biso   1.000  C
  H71      1.0000 0.03708  0.79509  0.58330  Biso   1.000  H
  H72      1.0000 0.01809  0.72597  0.57681  Biso   1.000  H
  H73      1.0000 0.78040  0.84907  0.76059  Biso   1.000  H
  H74      1.0000 0.78149  0.84037  0.71511  Biso   1.000  H
  H75      1.0000 0.79637  0.86237  0.73551  Biso   1.000  H
  H76      1.0000 0.74629  0.82979  0.71161  Biso   1.000  H
  H77      1.0000 0.76468  0.92837  0.65430  Biso   1.000  H
  H78      1.0000 0.75267  0.94478  0.73551  Biso   1.000  H
  H79      1.0000 0.68781  0.91289  0.75550  Biso   1.000  H
  H80      1.0000 0.69008  0.93479  0.55510  Biso   1.000  H
  H81      1.0000 0.75890  0.92258  0.57871  Biso   1.000  H
  N12      1.0000 0.73700  0.02348  0.57190  Biso   1.000  N
  H82      1.0000 0.94369  0.91220  0.56431  Biso   1.000  H
  N13      1.0000 0.87606  0.02640  0.52399  Biso   1.000  N
  H83      1.0000 0.97380  0.00786  0.51271  Biso   1.000  H
  H84      1.0000 0.92960  0.00687  0.47120  Biso   1.000  H
  H85      1.0000 0.92767  0.81417  0.60620  Biso   1.000  H
  H86      1.0000 0.91279  0.74397  0.58539  Biso   1.000  H
  H87      1.0000 0.70308  0.04919  0.58108  Biso   1.000  H
  H88      1.0000 0.77319  0.03297  0.58761  Biso   1.000  H
  C49      1.0000 0.75119  0.04039  0.52799  Biso   1.000  C
  H89      1.0000 0.88076  0.01829  0.55179  Biso   1.000  H
  H90      1.0000 0.87908  0.07089  0.52011  Biso   1.000  H
  C50      1.0000 0.80947  0.00356  0.51031  Biso   1.000  C
  H91      1.0000 0.75979  0.08849  0.52611  Biso   1.000  H
  H92      1.0000 0.71169  0.03060  0.51090  Biso   1.000  H
  H93      1.0000 0.80497  0.95630  0.51771  Biso   1.000  H
  H94      1.0000 0.80749  0.00667  0.47939  Biso   1.000  H
  C51      1.0000 0.45121  0.52427  0.39761  Biso   1.000  C
  N14      1.0000 0.39257  0.48858  0.37769  Biso   1.000  N
  C52      1.0000 0.44097  0.59828  0.39621  Biso   1.000  C
  H95      1.0000 0.45600  0.50989  0.42701  Biso   1.000  H
  H96      1.0000 0.49229  0.51261  0.38259  Biso   1.000  H
  C53      1.0000 0.32752  0.50667  0.39680  Biso   1.000  C
  H97      1.0000 0.39149  0.49837  0.34989  Biso   1.000  H
  H98      1.0000 0.39870  0.44419  0.38018  Biso   1.000  H
  C54      1.0000 0.45121  0.63209  0.35901  Biso   1.000  C
  C55      1.0000 0.41981  0.63051  0.43260  Biso   1.000  C
  C56      1.0000 0.27017  0.46881  0.37909  Biso   1.000  C
  H99      1.0000 0.31971  0.55448  0.39249  Biso   1.000  H
  H100     1.0000 0.32979  0.49857  0.42729  Biso   1.000  H
  C57      1.0000 0.44340  0.70017  0.35760  Biso   1.000  C
  H101     1.0000 0.46347  0.60861  0.33449  Biso   1.000  H
  H102     1.0000 0.41037  0.60619  0.45730  Biso   1.000  H
  C58      1.0000 0.41279  0.69977  0.43169  Biso   1.000  C
  N15      1.0000 0.25341  0.48299  0.33471  Biso   1.000  N
  H103     1.0000 0.27981  0.42100  0.38172  Biso   1.000  H
  H104     1.0000 0.23072  0.47820  0.39640  Biso   1.000  H
  C59      1.0000 0.42461  0.73576  0.39349  Biso   1.000  C
  C60      1.0000 0.45580  0.73720  0.31709  Biso   1.000  C
  C61      1.0000 0.38867  0.73621  0.47030  Biso   1.000  C
  H105     1.0000 0.21881  0.45699  0.32690  Biso   1.000  H
  H106     1.0000 0.28861  0.47251  0.31831  Biso   1.000  H
  C62      1.0000 0.23552  0.55389  0.32790  Biso   1.000  C
  H107     1.0000 0.41991  0.78248  0.39271  Biso   1.000  H
  N16      1.0000 0.52818  0.75277  0.31241  Biso   1.000  N
  H108     1.0000 0.44087  0.70991  0.29329  Biso   1.000  H
  H109     1.0000 0.42990  0.77867  0.31700  Biso   1.000  H
  N17      1.0000 0.31738  0.75410  0.46461  Biso   1.000  N
  H110     1.0000 0.39391  0.70768  0.49519  Biso   1.000  H
  H111     1.0000 0.41532  0.77670  0.47451  Biso   1.000  H
  C63      1.0000 0.19859  0.56328  0.28529  Biso   1.000  C
  H112     1.0000 0.27610  0.58117  0.32809  Biso   1.000  H
  H113     1.0000 0.20669  0.56921  0.35101  Biso   1.000  H
  H114     1.0000 0.55211  0.71688  0.32050  Biso   1.000  H
  H115     1.0000 0.53861  0.78658  0.32999  Biso   1.000  H
  C64      1.0000 0.54869  0.77190  0.26808  Biso   1.000  C
  H116     1.0000 0.29627  0.72108  0.45071  Biso   1.000  H
  H117     1.0000 0.31432  0.79158  0.44899  Biso   1.000  H
  C65      1.0000 0.28441  0.76508  0.50650  Biso   1.000  C
  C66      1.0000 0.12972  0.56031  0.28551  Biso   1.000  C
  C67      1.0000 0.23161  0.57588  0.24919  Biso   1.000  C
  H118     1.0000 0.59630  0.78337  0.26821  Biso   1.000  H
  H119     1.0000 0.54311  0.73299  0.24969  Biso   1.000  H
  C68      1.0000 0.51058  0.82910  0.24959  Biso   1.000  C
  C69      1.0000 0.21648  0.79538  0.50141  Biso   1.000  C
  H120     1.0000 0.28040  0.72227  0.52130  Biso   1.000  H
  H121     1.0000 0.31219  0.79469  0.52380  Biso   1.000  H
  C70      1.0000 0.09408  0.57129  0.24660  Biso   1.000  C
  H122     1.0000 0.10639  0.55117  0.31059  Biso   1.000  H
  C71      1.0000 0.19730  0.58528  0.21161  Biso   1.000  C
  H123     1.0000 0.27848  0.57851  0.24950  Biso   1.000  H
  N18      1.0000 0.52689  0.89386  0.26921  Biso   1.000  N
  H124     1.0000 0.51997  0.83167  0.21930  Biso   1.000  H
  H125     1.0000 0.46268  0.82060  0.25300  Biso   1.000  H
  N19      1.0000 0.16260  0.74540  0.49319  Biso   1.000  N
  H126     1.0000 0.20531  0.82040  0.52699  Biso   1.000  H
  H127     1.0000 0.21782  0.82717  0.47789  Biso   1.000  H
  C72      1.0000 0.13120  0.58320  0.21239  Biso   1.000  C
  C73      1.0000 0.02091  0.57099  0.24619  Biso   1.000  C
  C74      1.0000 0.23601  0.59210  0.16942  Biso   1.000  C
  H128     1.0000 0.51839  0.89159  0.29710  Biso   1.000  H
  H129     1.0000 0.57079  0.90197  0.26599  Biso   1.000  H
  C75      1.0000 0.48868  0.95007  0.25109  Biso   1.000  C
  H130     1.0000 0.17159  0.72410  0.46880  Biso   1.000  H
  H131     1.0000 0.16299  0.71480  0.51399  Biso   1.000  H
  C76      1.0000 0.09601  0.77417  0.49050  Biso   1.000  C
  H132     1.0000 0.10861  0.59067  0.18681  Biso   1.000  H
  H133     1.0000 0.00509  0.52778  0.25681  Biso   1.000  H
  H134     1.0000 0.00549  0.57559  0.21699  Biso   1.000  H
  N20      1.0000 0.98991  0.62567  0.27230  Biso   1.000  N
  N21      1.0000 0.26701  0.65830  0.16329  Biso   1.000  N
  H135     1.0000 0.27091  0.55789  0.16838  Biso   1.000  H
  H136     1.0000 0.20511  0.58360  0.14599  Biso   1.000  H
  C77      1.0000 0.41551  0.93909  0.25340  Biso   1.000  C
  H137     1.0000 0.50178  0.95620  0.22161  Biso   1.000  H
  H138     1.0000 0.49990  0.99110  0.26640  Biso   1.000  H
  C78      1.0000 0.08859  0.81511  0.45049  Biso   1.000  C
  H139     1.0000 0.08810  0.80280  0.51509  Biso   1.000  H
  H140     1.0000 0.06269  0.73848  0.49079  Biso   1.000  H
  C79      1.0000 0.02081  0.69251  0.26209  Biso   1.000  C
  H141     1.0000 0.99590  0.61657  0.29991  Biso   1.000  H
  H142     1.0000 0.94572  0.62730  0.26730  Biso   1.000  H
  H143     1.0000 0.29039  0.66917  0.18650  Biso   1.000  H
  H144     1.0000 0.29578  0.65627  0.14149  Biso   1.000  H
  C80      1.0000 0.21792  0.70981  0.15499  Biso   1.000  C
  C81      1.0000 0.38031  0.92100  0.22020  Biso   1.000  C
  C82      1.0000 0.38091  0.94819  0.29179  Biso   1.000  C
  C83      1.0000 0.08019  0.78337  0.41279  Biso   1.000  C
  C84      1.0000 0.08439  0.88209  0.45159  Biso   1.000  C
  H145     1.0000 0.06610  0.69419  0.27380  Biso   1.000  H
  H146     1.0000 0.02422  0.69730  0.23142  Biso   1.000  H
  C85      1.0000 0.98062  0.74951  0.27961  Biso   1.000  C
  C86      1.0000 0.24689  0.77650  0.14899  Biso   1.000  C
  H147     1.0000 0.18647  0.71159  0.17869  Biso   1.000  H
  H148     1.0000 0.19251  0.69770  0.12969  Biso   1.000  H
  C87      1.0000 0.31071  0.90978  0.21989  Biso   1.000  C
  H149     1.0000 0.40330  0.91507  0.19472  Biso   1.000  H
  C88      1.0000 0.31387  0.93786  0.29401  Biso   1.000  C
  H150     1.0000 0.40449  0.96159  0.31609  Biso   1.000  H
  C89      1.0000 0.06807  0.81926  0.37491  Biso   1.000  C
  H151     1.0000 0.08261  0.73650  0.41189  Biso   1.000  H
  C90      1.0000 0.07158  0.91878  0.41651  Biso   1.000  C
  H152     1.0000 0.09062  0.90429  0.47751  Biso   1.000  H
  N22      1.0000 0.99120  0.76636  0.32509  Biso   1.000  N
  H153     1.0000 0.99051  0.78940  0.26281  Biso   1.000  H
  H154     1.0000 0.93321  0.73917  0.27561  Biso   1.000  H
  N23      1.0000 0.26018  0.81189  0.18859  Biso   1.000  N
  H155     1.0000 0.21628  0.80329  0.13181  Biso   1.000  H
  H156     1.0000 0.28891  0.77200  0.13331  Biso   1.000  H
  C91      1.0000 0.27492  0.88728  0.18091  Biso   1.000  C
  C92      1.0000 0.27778  0.91779  0.25740  Biso   1.000  C
  C93      1.0000 0.28001  0.94616  0.33449  Biso   1.000  C
  C94      1.0000 0.06308  0.78530  0.33299  Biso   1.000  C
  C95      1.0000 0.06308  0.88946  0.37890  Biso   1.000  C
  C96      1.0000 0.07000  0.99600  0.41810  Biso   1.000  C
  H157     1.0000 0.98018  0.73097  0.34120  Biso   1.000  H
  H158     1.0000 0.96441  0.80067  0.33230  Biso   1.000  H
  H159     1.0000 0.29548  0.79311  0.20159  Biso   1.000  H
  H160     1.0000 0.22459  0.80789  0.20580  Biso   1.000  H
  H161     1.0000 0.30290  0.89327  0.15589  Biso   1.000  H
  H162     1.0000 0.23329  0.91230  0.17710  Biso   1.000  H
  H163     1.0000 0.23151  0.90998  0.25900  Biso   1.000  H
  H164     1.0000 0.30918  0.93089  0.35742  Biso   1.000  H
  H165     1.0000 0.23937  0.91887  0.33499  Biso   1.000  H
  N24      1.0000 0.26191  0.01888  0.34139  Biso   1.000  N
  H166     1.0000 0.09111  0.74520  0.33280  Biso   1.000  H
  H167     1.0000 0.07880  0.81531  0.31069  Biso   1.000  H
  H168     1.0000 0.05389  0.91566  0.35501  Biso   1.000  H
  N25      1.0000 0.12399  0.02259  0.39358  Biso   1.000  N
  H169     1.0000 0.02739  0.01226  0.40689  Biso   1.000  H
  H170     1.0000 0.07401  0.01117  0.44740  Biso   1.000  H
  H171     1.0000 0.29588  0.04459  0.33221  Biso   1.000  H
  H172     1.0000 0.22568  0.02867  0.32571  Biso   1.000  H
  C97      1.0000 0.24778  0.03589  0.38621  Biso   1.000  C
  C98      1.0000 0.18979  0.99476  0.40489  Biso   1.000  C
  H173     1.0000 0.12517  0.06718  0.39711  Biso   1.000  H
  H174     1.0000 0.11608  0.01429  0.36610  Biso   1.000  H
  H175     1.0000 0.23670  0.08350  0.38821  Biso   1.000  H
  H176     1.0000 0.28812  0.02808  0.40299  Biso   1.000  H
  H177     1.0000 0.19280  0.94868  0.39462  Biso   1.000  H
  H178     1.0000 0.19419  0.99367  0.43569  Biso   1.000  H
  C99      1.0000 0.36791  0.45121  0.60901  Biso   1.000  C
  C100     1.0000 0.29978  0.44340  0.60760  Biso   1.000  C
  C101     1.0000 0.40167  0.44097  0.64621  Biso   1.000  C
  H179     1.0000 0.39139  0.46347  0.58449  Biso   1.000  H
  C102     1.0000 0.26280  0.45580  0.56709  Biso   1.000  C
  C103     1.0000 0.26419  0.42461  0.64349  Biso   1.000  C
  C104     1.0000 0.47568  0.45121  0.64761  Biso   1.000  C
  C105     1.0000 0.36949  0.41981  0.68260  Biso   1.000  C
  N26      1.0000 0.24718  0.52818  0.56241  Biso   1.000  N
  H180     1.0000 0.29009  0.44087  0.54329  Biso   1.000  H
  H181     1.0000 0.22128  0.42990  0.56700  Biso   1.000  H
  C106     1.0000 0.30018  0.41279  0.68169  Biso   1.000  C
  H182     1.0000 0.21752  0.41991  0.64271  Biso   1.000  H
  N27      1.0000 0.51137  0.39257  0.62769  Biso   1.000  N
  H183     1.0000 0.49011  0.45600  0.67701  Biso   1.000  H
  H184     1.0000 0.48739  0.49229  0.63259  Biso   1.000  H
  H185     1.0000 0.39381  0.41037  0.70730  Biso   1.000  H
  C107     1.0000 0.22810  0.54869  0.51808  Biso   1.000  C
  H186     1.0000 0.28307  0.55211  0.57050  Biso   1.000  H
  H187     1.0000 0.21342  0.53861  0.57999  Biso   1.000  H
  C108     1.0000 0.26379  0.38867  0.72030  Biso   1.000  C
  C109     1.0000 0.49328  0.32752  0.64680  Biso   1.000  C
  H188     1.0000 0.50158  0.39149  0.59989  Biso   1.000  H
  H189     1.0000 0.55581  0.39870  0.63018  Biso   1.000  H
  C110     1.0000 0.17090  0.51058  0.49959  Biso   1.000  C
  H190     1.0000 0.21658  0.59630  0.51821  Biso   1.000  H
  H191     1.0000 0.26701  0.54311  0.49969  Biso   1.000  H
  N28      1.0000 0.24590  0.31738  0.71461  Biso   1.000  N
  H192     1.0000 0.29232  0.39391  0.74519  Biso   1.000  H
  H193     1.0000 0.22330  0.41532  0.72451  Biso   1.000  H
  C111     1.0000 0.53119  0.27017  0.62909  Biso   1.000  C
  H194     1.0000 0.44547  0.31971  0.64249  Biso   1.000  H
  H195     1.0000 0.50138  0.32979  0.67729  Biso   1.000  H
  N29      1.0000 0.10609  0.52689  0.51921  Biso   1.000  N
  H196     1.0000 0.16828  0.51997  0.46930  Biso   1.000  H
  H197     1.0000 0.17940  0.46268  0.50300  Biso   1.000  H
  H198     1.0000 0.27887  0.29627  0.70071  Biso   1.000  H
  H199     1.0000 0.20837  0.31432  0.69899  Biso   1.000  H
  C112     1.0000 0.23487  0.28441  0.75650  Biso   1.000  C
  N30      1.0000 0.51701  0.25341  0.58471  Biso   1.000  N
  H200     1.0000 0.57900  0.27981  0.63172  Biso   1.000  H
  H201     1.0000 0.52180  0.23072  0.64640  Biso   1.000  H
  C113     1.0000 0.04988  0.48868  0.50109  Biso   1.000  C
  H202     1.0000 0.10841  0.51839  0.54710  Biso   1.000  H
  H203     1.0000 0.09798  0.57079  0.51599  Biso   1.000  H
  C114     1.0000 0.20462  0.21648  0.75141  Biso   1.000  C
  H204     1.0000 0.27768  0.28040  0.77130  Biso   1.000  H
  H205     1.0000 0.20531  0.31219  0.77380  Biso   1.000  H
  C115     1.0000 0.44611  0.23552  0.57790  Biso   1.000  C
  H206     1.0000 0.54301  0.21881  0.57690  Biso   1.000  H
  H207     1.0000 0.52749  0.28861  0.56831  Biso   1.000  H
  C116     1.0000 0.06091  0.41551  0.50340  Biso   1.000  C
  H208     1.0000 0.04380  0.50178  0.47161  Biso   1.000  H
  H209     1.0000 0.00890  0.49990  0.51640  Biso   1.000  H
  N31      1.0000 0.25460  0.16260  0.74319  Biso   1.000  N
  H210     1.0000 0.17960  0.20531  0.77699  Biso   1.000  H
  H211     1.0000 0.17278  0.21782  0.72789  Biso   1.000  H
  C117     1.0000 0.43667  0.19859  0.53529  Biso   1.000  C
  H212     1.0000 0.41878  0.27610  0.57809  Biso   1.000  H
  H213     1.0000 0.43079  0.20669  0.60101  Biso   1.000  H
  C118     1.0000 0.07900  0.38031  0.47020  Biso   1.000  C
  C119     1.0000 0.05181  0.38091  0.54179  Biso   1.000  C
  C120     1.0000 0.22578  0.09601  0.74050  Biso   1.000  C
  H214     1.0000 0.27590  0.17159  0.71880  Biso   1.000  H
  H215     1.0000 0.28520  0.16299  0.76399  Biso   1.000  H
  C121     1.0000 0.42412  0.23161  0.49919  Biso   1.000  C
  C122     1.0000 0.43969  0.12972  0.53551  Biso   1.000  C
  C123     1.0000 0.09022  0.31071  0.46989  Biso   1.000  C
  H216     1.0000 0.08488  0.40330  0.44472  Biso   1.000  H
  C124     1.0000 0.06209  0.31387  0.54401  Biso   1.000  C
  H217     1.0000 0.03841  0.40449  0.56609  Biso   1.000  H
  C125     1.0000 0.18489  0.08859  0.70049  Biso   1.000  C
  H218     1.0000 0.19720  0.08810  0.76509  Biso   1.000  H
  H219     1.0000 0.26152  0.06269  0.74079  Biso   1.000  H
  C126     1.0000 0.41467  0.19730  0.46161  Biso   1.000  C
  H220     1.0000 0.42149  0.27848  0.49950  Biso   1.000  H
  C127     1.0000 0.42871  0.09408  0.49660  Biso   1.000  C
  H221     1.0000 0.44878  0.10639  0.56059  Biso   1.000  H
  C128     1.0000 0.11272  0.27492  0.43091  Biso   1.000  C
  C129     1.0000 0.08221  0.27778  0.50740  Biso   1.000  C
  C130     1.0000 0.05379  0.28001  0.58449  Biso   1.000  C
  C131     1.0000 0.11791  0.08439  0.70159  Biso   1.000  C
  C132     1.0000 0.21658  0.08019  0.66279  Biso   1.000  C
  C133     1.0000 0.40790  0.23601  0.41942  Biso   1.000  C
  C134     1.0000 0.41680  0.13120  0.46239  Biso   1.000  C
  C135     1.0000 0.42901  0.02091  0.49619  Biso   1.000  C
  N32      1.0000 0.18811  0.26018  0.43859  Biso   1.000  N
  H222     1.0000 0.10668  0.30290  0.40589  Biso   1.000  H
  H223     1.0000 0.08770  0.23329  0.42710  Biso   1.000  H
  H224     1.0000 0.08997  0.23151  0.50900  Biso   1.000  H
  H225     1.0000 0.06911  0.30918  0.60742  Biso   1.000  H
  H226     1.0000 0.08108  0.23937  0.58499  Biso   1.000  H
  N33      1.0000 0.98112  0.26191  0.59139  Biso   1.000  N
  C136     1.0000 0.08117  0.07158  0.66651  Biso   1.000  C
  H227     1.0000 0.09571  0.09062  0.72751  Biso   1.000  H
  C137     1.0000 0.18069  0.06807  0.62491  Biso   1.000  C
  H228     1.0000 0.26350  0.08261  0.66189  Biso   1.000  H
  N34      1.0000 0.34170  0.26701  0.41329  Biso   1.000  N
  H229     1.0000 0.44211  0.27091  0.41838  Biso   1.000  H
  H230     1.0000 0.41640  0.20511  0.39599  Biso   1.000  H
  H231     1.0000 0.40928  0.10861  0.43681  Biso   1.000  H
  H232     1.0000 0.47217  0.00509  0.50681  Biso   1.000  H
  H233     1.0000 0.42441  0.00549  0.46699  Biso   1.000  H
  N35      1.0000 0.37428  0.98991  0.52230  Biso   1.000  N
  C138     1.0000 0.22350  0.24689  0.39899  Biso   1.000  C
  H234     1.0000 0.20689  0.29548  0.45159  Biso   1.000  H
  H235     1.0000 0.19211  0.22459  0.45580  Biso   1.000  H
  H236     1.0000 0.95541  0.29588  0.58221  Biso   1.000  H
  H237     1.0000 0.97128  0.22568  0.57571  Biso   1.000  H
  C139     1.0000 0.96411  0.24778  0.63621  Biso   1.000  C
  C140     1.0000 0.00400  0.07000  0.66810  Biso   1.000  C
  C141     1.0000 0.11049  0.06308  0.62890  Biso   1.000  C
  C142     1.0000 0.21470  0.06308  0.58299  Biso   1.000  C
  C143     1.0000 0.29019  0.21792  0.40499  Biso   1.000  C
  H238     1.0000 0.33078  0.29039  0.43650  Biso   1.000  H
  H239     1.0000 0.34368  0.29578  0.39149  Biso   1.000  H
  C144     1.0000 0.30749  0.02081  0.51209  Biso   1.000  C
  H240     1.0000 0.38338  0.99590  0.54991  Biso   1.000  H
  H241     1.0000 0.37270  0.94572  0.51730  Biso   1.000  H
  H242     1.0000 0.19671  0.21628  0.38181  Biso   1.000  H
  H243     1.0000 0.22800  0.28891  0.38331  Biso   1.000  H
  C145     1.0000 0.00519  0.18979  0.65489  Biso   1.000  C
  H244     1.0000 0.91650  0.23670  0.63821  Biso   1.000  H
  H245     1.0000 0.97192  0.28812  0.65299  Biso   1.000  H
  N36      1.0000 0.97741  0.12399  0.64358  Biso   1.000  N
  H246     1.0000 0.98769  0.02739  0.65689  Biso   1.000  H
  H247     1.0000 0.98878  0.07401  0.69740  Biso   1.000  H
  H248     1.0000 0.08429  0.05389  0.60501  Biso   1.000  H
  N37      1.0000 0.23359  0.99120  0.57509  Biso   1.000  N
  H249     1.0000 0.25480  0.09111  0.58280  Biso   1.000  H
  H250     1.0000 0.18469  0.07880  0.56069  Biso   1.000  H
  H251     1.0000 0.28841  0.18647  0.42869  Biso   1.000  H
  H252     1.0000 0.30230  0.19251  0.37969  Biso   1.000  H
  H253     1.0000 0.30581  0.06610  0.52380  Biso   1.000  H
  H254     1.0000 0.30270  0.02422  0.48142  Biso   1.000  H
  C146     1.0000 0.25049  0.98062  0.52961  Biso   1.000  C
  H255     1.0000 0.05132  0.19280  0.64462  Biso   1.000  H
  H256     1.0000 0.00628  0.19419  0.68569  Biso   1.000  H
  H257     1.0000 0.93282  0.12517  0.64711  Biso   1.000  H
  H258     1.0000 0.98571  0.11608  0.61610  Biso   1.000  H
  H259     1.0000 0.26898  0.98018  0.59120  Biso   1.000  H
  H260     1.0000 0.19928  0.96441  0.58230  Biso   1.000  H
  H261     1.0000 0.21060  0.99051  0.51281  Biso   1.000  H
  H262     1.0000 0.26078  0.93321  0.52561  Biso   1.000  H
  N38      1.0000 0.66477  0.27902  0.48851  Biso   1.000  N
  C147     1.0000 0.60827  0.23868  0.48142  Biso   1.000  C
  H263     1.0000 0.66047  0.29958  0.51371  Biso   1.000  H
  H264     1.0000 0.66690  0.31081  0.46839  Biso   1.000  H
  C148     1.0000 0.72721  0.24061  0.48819  Biso   1.000  C
  C149     1.0000 0.72370  0.27170  0.50672  Biso   1.000  C
  C150     1.0000 0.59121  0.20150  0.44459  Biso   1.000  C
  H265     1.0000 0.56990  0.26790  0.48660  Biso   1.000  H
  H266     1.0000 0.60836  0.20610  0.50450  Biso   1.000  H
  N39      1.0000 0.68509  0.25311  0.46780  Biso   1.000  N
  H267     1.0000 0.60490  0.21208  0.50731  Biso   1.000  H
  H268     1.0000 0.58197  0.27981  0.48420  Biso   1.000  H
  H269     1.0000 0.73047  0.21460  0.46211  Biso   1.000  H
  H270     1.0000 0.70289  0.21628  0.45590  Biso   1.000  H
  C151     1.0000 0.78718  0.29009  0.49150  Biso   1.000  C
  H271     1.0000 0.72790  0.20941  0.51209  Biso   1.000  H
  C152     1.0000 0.78416  0.23008  0.50850  Biso   1.000  C
  H272     1.0000 0.73586  0.31911  0.50568  Biso   1.000  H
  H273     1.0000 0.69626  0.26419  0.53189  Biso   1.000  H
  C153     1.0000 0.58320  0.23121  0.40511  Biso   1.000  C
  C154     1.0000 0.58557  0.13308  0.44799  Biso   1.000  C
  H274     1.0000 0.68667  0.28658  0.44890  Biso   1.000  H
  N40      1.0000 0.84650  0.24560  0.48751  Biso   1.000  N
  H275     1.0000 0.78599  0.32322  0.46880  Biso   1.000  H
  H276     1.0000 0.78718  0.31328  0.51880  Biso   1.000  H
  H277     1.0000 0.79499  0.22499  0.53851  Biso   1.000  H
  H278     1.0000 0.77086  0.18578  0.49841  Biso   1.000  H
  C155     1.0000 0.56758  0.19162  0.37041  Biso   1.000  C
  H279     1.0000 0.58839  0.27759  0.40189  Biso   1.000  H
  C156     1.0000 0.57119  0.09210  0.41420  Biso   1.000  C
  H280     1.0000 0.59200  0.11331  0.47461  Biso   1.000  H
  H281     1.0000 0.84907  0.21960  0.51059  Biso   1.000  H
  H282     1.0000 0.84037  0.21851  0.46511  Biso   1.000  H
  C157     1.0000 0.90859  0.27991  0.48242  Biso   1.000  C
  H283     1.0000 0.86237  0.20358  0.48551  Biso   1.000  H
  H284     1.0000 0.82979  0.25371  0.46161  Biso   1.000  H
  C158     1.0000 0.56160  0.22212  0.32690  Biso   1.000  C
  C159     1.0000 0.55908  0.12329  0.37569  Biso   1.000  C
  C160     1.0000 0.56699  0.01888  0.41689  Biso   1.000  C
  C161     1.0000 0.91818  0.31501  0.44290  Biso   1.000  C
  H285     1.0000 0.94478  0.24728  0.48551  Biso   1.000  H
  H286     1.0000 0.91289  0.31219  0.50550  Biso   1.000  H
  N41      1.0000 0.49041  0.24199  0.31759  Biso   1.000  N
  H287     1.0000 0.59037  0.26152  0.32499  Biso   1.000  H
  H288     1.0000 0.57668  0.18979  0.30569  Biso   1.000  H
  H289     1.0000 0.54479  0.09739  0.35260  Biso   1.000  H
  H290     1.0000 0.52511  0.00391  0.40389  Biso   1.000  H
  H291     1.0000 0.56649  0.00539  0.44659  Biso   1.000  H
  N42      1.0000 0.62527  0.98542  0.39471  Biso   1.000  N
  C162     1.0000 0.92940  0.28218  0.40539  Biso   1.000  C
  C163     1.0000 0.91739  0.38679  0.44472  Biso   1.000  C
  C164     1.0000 0.47909  0.25010  0.27171  Biso   1.000  C
  H292     1.0000 0.46258  0.21050  0.32771  Biso   1.000  H
  H293     1.0000 0.48107  0.28070  0.33090  Biso   1.000  H
  C165     1.0000 0.69038  0.01399  0.40420  Biso   1.000  C
  H294     1.0000 0.62577  0.94191  0.40189  Biso   1.000  H
  H295     1.0000 0.61850  0.98769  0.36660  Biso   1.000  H
  C166     1.0000 0.94176  0.31827  0.36950  Biso   1.000  C
  H296     1.0000 0.92837  0.23532  0.40430  Biso   1.000  H
  C167     1.0000 0.92876  0.42011  0.40820  Biso   1.000  C
  H297     1.0000 0.90919  0.40958  0.47011  Biso   1.000  H
  H298     1.0000 0.43138  0.25801  0.26671  Biso   1.000  H
  H299     1.0000 0.49140  0.20857  0.25731  Biso   1.000  H
  C168     1.0000 0.51829  0.30670  0.25281  Biso   1.000  C
  H300     1.0000 0.69537  0.01760  0.43481  Biso   1.000  H
  H301     1.0000 0.69251  0.05918  0.39240  Biso   1.000  H
  C169     1.0000 0.74748  0.97350  0.38681  Biso   1.000  C
  C170     1.0000 0.94260  0.38649  0.37019  Biso   1.000  C
  C171     1.0000 0.94997  0.28159  0.32840  Biso   1.000  C
  C172     1.0000 0.92797  0.49441  0.40830  Biso   1.000  C
  N43      1.0000 0.48799  0.37458  0.26181  Biso   1.000  N
  H302     1.0000 0.52101  0.30028  0.22220  Biso   1.000  H
  H303     1.0000 0.56387  0.30562  0.26409  Biso   1.000  H
  N44      1.0000 0.76261  0.99051  0.34239  Biso   1.000  N
  H304     1.0000 0.78728  0.98141  0.40411  Biso   1.000  H
  H305     1.0000 0.73631  0.92599  0.38871  Biso   1.000  H
  H306     1.0000 0.95219  0.41077  0.34551  Biso   1.000  H
  H307     1.0000 0.93479  0.30992  0.30510  Biso   1.000  H
  H308     1.0000 0.92258  0.24110  0.32871  Biso   1.000  H
  N45      1.0000 0.02348  0.26300  0.32190  Biso   1.000  N
  N46      1.0000 0.87448  0.52551  0.38271  Biso   1.000  N
  H309     1.0000 0.92327  0.50969  0.43759  Biso   1.000  H
  H310     1.0000 0.97128  0.51038  0.39789  Biso   1.000  H
  H311     1.0000 0.49511  0.38560  0.28901  Biso   1.000  H
  H312     1.0000 0.44359  0.37310  0.25740  Biso   1.000  H
  C173     1.0000 0.51938  0.42738  0.23310  Biso   1.000  C
  C174     1.0000 0.78317  0.05809  0.33399  Biso   1.000  C
  H313     1.0000 0.79509  0.96292  0.33330  Biso   1.000  H
  H314     1.0000 0.72597  0.98191  0.32681  Biso   1.000  H
  H315     1.0000 0.04919  0.29692  0.33108  Biso   1.000  H
  H316     1.0000 0.03297  0.22681  0.33761  Biso   1.000  H
  C175     1.0000 0.04039  0.24881  0.27799  Biso   1.000  C
  C176     1.0000 0.80779  0.49847  0.39349  Biso   1.000  C
  H317     1.0000 0.87468  0.57000  0.38699  Biso   1.000  H
  H318     1.0000 0.88269  0.51809  0.35520  Biso   1.000  H
  C177     1.0000 0.59447  0.42797  0.23641  Biso   1.000  C
  H319     1.0000 0.50648  0.41838  0.20380  Biso   1.000  H
  H320     1.0000 0.50198  0.47148  0.24069  Biso   1.000  H
  C178     1.0000 0.81531  0.06689  0.29320  Biso   1.000  C
  H321     1.0000 0.81417  0.07228  0.35620  Biso   1.000  H
  H322     1.0000 0.74397  0.08721  0.33539  Biso   1.000  H
  C179     1.0000 0.00356  0.19048  0.26031  Biso   1.000  C
  H323     1.0000 0.08849  0.24021  0.27611  Biso   1.000  H
  H324     1.0000 0.03060  0.28831  0.26090  Biso   1.000  H
  C180     1.0000 0.75287  0.53609  0.37369  Biso   1.000  C
  H325     1.0000 0.80537  0.45180  0.38450  Biso   1.000  H
  H326     1.0000 0.80220  0.49970  0.42419  Biso   1.000  H
  C181     1.0000 0.62409  0.44201  0.27389  Biso   1.000  C
  C182     1.0000 0.63308  0.41270  0.20171  Biso   1.000  C
  C183     1.0000 0.88709  0.06461  0.28979  Biso   1.000  C
  C184     1.0000 0.78199  0.07801  0.25568  Biso   1.000  C
  N47      1.0000 0.02640  0.12389  0.27399  Biso   1.000  N
  H327     1.0000 0.95630  0.19498  0.26771  Biso   1.000  H
  H328     1.0000 0.00667  0.19251  0.22939  Biso   1.000  H
  N48      1.0000 0.74150  0.52101  0.32840  Biso   1.000  N
  H329     1.0000 0.76226  0.58389  0.37650  Biso   1.000  H
  H330     1.0000 0.71169  0.52679  0.38921  Biso   1.000  H
  C185     1.0000 0.69107  0.44191  0.27749  Biso   1.000  C
  H331     1.0000 0.59749  0.45170  0.29760  Biso   1.000  H
  H332     1.0000 0.61257  0.40212  0.17591  Biso   1.000  H
  C186     1.0000 0.69928  0.41270  0.20480  Biso   1.000  C
  H333     1.0000 0.91220  0.05631  0.31431  Biso   1.000  H
  C187     1.0000 0.91937  0.07361  0.25359  Biso   1.000  C
  C188     1.0000 0.81358  0.08622  0.21830  Biso   1.000  C
  H334     1.0000 0.73507  0.07989  0.25618  Biso   1.000  H
  C189     1.0000 0.99328  0.06901  0.25091  Biso   1.000  C
  H335     1.0000 0.01829  0.11919  0.30179  Biso   1.000  H
  H336     1.0000 0.07089  0.12092  0.27011  Biso   1.000  H
  C190     1.0000 0.72380  0.45289  0.32009  Biso   1.000  C
  H337     1.0000 0.70867  0.54771  0.31881  Biso   1.000  H
  H338     1.0000 0.77887  0.53090  0.31391  Biso   1.000  H
  C191     1.0000 0.73037  0.42718  0.24291  Biso   1.000  C
  C192     1.0000 0.73898  0.40281  0.16529  Biso   1.000  C
  C193     1.0000 0.88259  0.08320  0.21711  Biso   1.000  C
  C194     1.0000 0.77516  0.09462  0.17819  Biso   1.000  C
  H339     1.0000 0.00786  0.02620  0.26271  Biso   1.000  H
  H340     1.0000 0.00687  0.07040  0.22120  Biso   1.000  H
  H341     1.0000 0.69320  0.43761  0.34220  Biso   1.000  H
  H342     1.0000 0.76409  0.42540  0.32171  Biso   1.000  H
  H343     1.0000 0.77729  0.42698  0.24510  Biso   1.000  H
  N49      1.0000 0.77269  0.33587  0.16439  Biso   1.000  N
  H344     1.0000 0.77289  0.43801  0.16320  Biso   1.000  H
  H345     1.0000 0.70936  0.40671  0.14080  Biso   1.000  H
  H346     1.0000 0.90479  0.08780  0.19109  Biso   1.000  H
  N50      1.0000 0.74080  0.15622  0.17291  Biso   1.000  N
  H347     1.0000 0.80631  0.08928  0.15461  Biso   1.000  H
  H348     1.0000 0.74249  0.05829  0.17629  Biso   1.000  H
  H349     1.0000 0.79800  0.33370  0.14099  Biso   1.000  H
  H350     1.0000 0.80047  0.33340  0.18669  Biso   1.000  H
  C195     1.0000 0.73077  0.27932  0.16520  Biso   1.000  C
  C196     1.0000 0.78030  0.21342  0.17141  Biso   1.000  C
  H351     1.0000 0.71688  0.15390  0.14889  Biso   1.000  H
  H352     1.0000 0.71159  0.16072  0.19440  Biso   1.000  H
  H353     1.0000 0.70561  0.27581  0.13881  Biso   1.000  H
  H354     1.0000 0.69898  0.28248  0.18869  Biso   1.000  H
  H355     1.0000 0.81170  0.21040  0.14771  Biso   1.000  H
  H356     1.0000 0.80606  0.21782  0.19750  Biso   1.000  H
  C197     1.0000 0.36692  0.58730  0.70171  Biso   1.000  C
  C198     1.0000 0.30067  0.58730  0.70480  Biso   1.000  C
  C199     1.0000 0.40548  0.57198  0.73641  Biso   1.000  C
  H357     1.0000 0.38738  0.59788  0.67591  Biso   1.000  H
  C200     1.0000 0.26097  0.59719  0.66529  Biso   1.000  C
  C201     1.0000 0.26958  0.57277  0.74291  Biso   1.000  C
  C202     1.0000 0.37591  0.55799  0.77389  Biso   1.000  C
  C203     1.0000 0.48057  0.57257  0.73310  Biso   1.000  C
  N51      1.0000 0.22731  0.66408  0.66439  Biso   1.000  N
  H358     1.0000 0.22711  0.56199  0.66320  Biso   1.000  H
  H359     1.0000 0.29059  0.59329  0.64080  Biso   1.000  H
  C204     1.0000 0.30888  0.55809  0.77749  Biso   1.000  C
  H360     1.0000 0.22271  0.57297  0.74510  Biso   1.000  H
  H361     1.0000 0.40251  0.54830  0.79760  Biso   1.000  H
  N52      1.0000 0.51201  0.62537  0.76181  Biso   1.000  N
  H362     1.0000 0.49347  0.58157  0.70380  Biso   1.000  H
  H363     1.0000 0.49797  0.52848  0.74069  Biso   1.000  H
  H364     1.0000 0.20200  0.66630  0.64099  Biso   1.000  H
  H365     1.0000 0.19948  0.66660  0.68669  Biso   1.000  H
  C205     1.0000 0.26918  0.72068  0.66520  Biso   1.000  C
  C206     1.0000 0.27620  0.54711  0.82009  Biso   1.000  C
  H366     1.0000 0.50489  0.61440  0.78901  Biso   1.000  H
  H367     1.0000 0.55641  0.62690  0.75740  Biso   1.000  H
  C207     1.0000 0.48171  0.69330  0.75281  Biso   1.000  C
  C208     1.0000 0.21970  0.78658  0.67141  Biso   1.000  C
  H368     1.0000 0.29439  0.72419  0.63881  Biso   1.000  H
  H369     1.0000 0.30102  0.71747  0.68869  Biso   1.000  H
  N53      1.0000 0.25850  0.47899  0.82840  Biso   1.000  N
  H370     1.0000 0.30680  0.56239  0.84220  Biso   1.000  H
  H371     1.0000 0.23591  0.57460  0.82171  Biso   1.000  H
  C209     1.0000 0.52091  0.74990  0.77171  Biso   1.000  C
  H372     1.0000 0.47899  0.69967  0.72220  Biso   1.000  H
  H373     1.0000 0.43608  0.69438  0.76409  Biso   1.000  H
  N54      1.0000 0.25920  0.84378  0.67291  Biso   1.000  N
  H374     1.0000 0.18830  0.78960  0.64771  Biso   1.000  H
  H375     1.0000 0.19389  0.78218  0.69750  Biso   1.000  H
  H376     1.0000 0.29128  0.45229  0.81881  Biso   1.000  H
  H377     1.0000 0.22108  0.46910  0.81391  Biso   1.000  H
  C210     1.0000 0.24708  0.46391  0.87369  Biso   1.000  C
  N55      1.0000 0.50959  0.75801  0.81759  Biso   1.000  N
  H378     1.0000 0.56857  0.74199  0.76671  Biso   1.000  H
  H379     1.0000 0.50860  0.79138  0.75731  Biso   1.000  H
  H380     1.0000 0.28307  0.84610  0.64889  Biso   1.000  H
  H381     1.0000 0.28841  0.83928  0.69440  Biso   1.000  H
  C211     1.0000 0.22479  0.90538  0.67819  Biso   1.000  C
  C212     1.0000 0.19221  0.50148  0.89349  Biso   1.000  C
  H382     1.0000 0.23769  0.41611  0.87650  Biso   1.000  H
  H383     1.0000 0.28831  0.47321  0.88921  Biso   1.000  H
  H384     1.0000 0.53737  0.78950  0.82771  Biso   1.000  H
  H385     1.0000 0.51888  0.71930  0.83090  Biso   1.000  H
  C213     1.0000 0.43840  0.77788  0.82690  Biso   1.000  C
  C214     1.0000 0.18638  0.91378  0.71830  Biso   1.000  C
  H386     1.0000 0.19369  0.91067  0.65461  Biso   1.000  H
  H387     1.0000 0.25751  0.94167  0.67629  Biso   1.000  H
  N56      1.0000 0.12552  0.47449  0.88271  Biso   1.000  N
  H388     1.0000 0.19458  0.54820  0.88450  Biso   1.000  H
  H389     1.0000 0.19780  0.50030  0.92419  Biso   1.000  H
  C215     1.0000 0.43237  0.80838  0.87041  Biso   1.000  C
  H390     1.0000 0.40958  0.73848  0.82499  Biso   1.000  H
  H391     1.0000 0.42327  0.81016  0.80569  Biso   1.000  H
  C216     1.0000 0.11741  0.91680  0.71711  Biso   1.000  C
  C217     1.0000 0.21801  0.92199  0.75568  Biso   1.000  C
  H392     1.0000 0.12532  0.43000  0.88699  Biso   1.000  H
  H393     1.0000 0.11731  0.48191  0.85520  Biso   1.000  H
  C218     1.0000 0.07198  0.50559  0.90830  Biso   1.000  C
  C219     1.0000 0.44087  0.87671  0.87569  Biso   1.000  C
  C220     1.0000 0.41680  0.76879  0.90511  Biso   1.000  C
  C221     1.0000 0.08058  0.92639  0.75359  Biso   1.000  C
  H394     1.0000 0.09521  0.91220  0.69109  Biso   1.000  H
  C222     1.0000 0.18469  0.93306  0.79320  Biso   1.000  C
  H395     1.0000 0.26488  0.92006  0.75618  Biso   1.000  H
  C223     1.0000 0.07119  0.57989  0.90820  Biso   1.000  C
  H396     1.0000 0.07668  0.49031  0.93759  Biso   1.000  H
  H397     1.0000 0.02872  0.48957  0.89789  Biso   1.000  H
  C224     1.0000 0.42881  0.90790  0.91420  Biso   1.000  C
  H398     1.0000 0.45521  0.90256  0.85260  Biso   1.000  H
  H399     1.0000 0.41161  0.72237  0.90189  Biso   1.000  H
  C225     1.0000 0.40879  0.79850  0.94459  Biso   1.000  C
  C226     1.0000 0.11291  0.93539  0.78979  Biso   1.000  C
  C227     1.0000 0.00672  0.93099  0.75091  Biso   1.000  C
  C228     1.0000 0.21678  0.94186  0.83399  Biso   1.000  C
  C229     1.0000 0.08261  0.61321  0.94472  Biso   1.000  C
  C230     1.0000 0.05740  0.61351  0.87019  Biso   1.000  C
  C231     1.0000 0.41438  0.86687  0.94799  Biso   1.000  C
  C232     1.0000 0.43301  0.98107  0.91689  Biso   1.000  C
  C233     1.0000 0.39168  0.76127  0.98142  Biso   1.000  C
  H400     1.0000 0.08780  0.94369  0.81431  Biso   1.000  H
  N57      1.0000 0.97360  0.87606  0.77399  Biso   1.000  N
  H401     1.0000 0.99209  0.97380  0.76271  Biso   1.000  H
  H402     1.0000 0.99308  0.92960  0.72120  Biso   1.000  H
  H403     1.0000 0.18578  0.92767  0.85620  Biso   1.000  H
  H404     1.0000 0.25598  0.91279  0.83539  Biso   1.000  H
  N58      1.0000 0.23739  0.00949  0.84239  Biso   1.000  N
  C234     1.0000 0.08182  0.68499  0.94290  Biso   1.000  C
  H405     1.0000 0.09081  0.59037  0.97011  Biso   1.000  H
  C235     1.0000 0.05819  0.68168  0.86950  Biso   1.000  C
  H406     1.0000 0.04781  0.58918  0.84551  Biso   1.000  H
  H407     1.0000 0.40800  0.88669  0.97461  Biso   1.000  H
  N59      1.0000 0.37468  0.01458  0.89471  Biso   1.000  N
  H408     1.0000 0.47489  0.99609  0.90389  Biso   1.000  H
  H409     1.0000 0.43351  0.99456  0.94659  Biso   1.000  H
  N60      1.0000 0.33518  0.72098  0.98851  Biso   1.000  N
  H410     1.0000 0.43010  0.73210  0.98660  Biso   1.000  H
  N61      1.0000 0.31491  0.74689  0.96780  Biso   1.000  N
  H411     1.0000 0.41798  0.72019  0.98420  Biso   1.000  H
  H412     1.0000 0.39159  0.79390  0.00450  Biso   1.000  H
  H413     1.0000 0.39510  0.78787  0.00731  Biso   1.000  H
  H414     1.0000 0.98171  0.88076  0.80179  Biso   1.000  H
  H415     1.0000 0.92911  0.87908  0.77011  Biso   1.000  H
  C236     1.0000 0.99639  0.80947  0.76031  Biso   1.000  C
  H416     1.0000 0.20491  0.03708  0.83330  Biso   1.000  H
  H417     1.0000 0.27398  0.01809  0.82681  Biso   1.000  H
  C237     1.0000 0.25247  0.02650  0.88681  Biso   1.000  C
  C238     1.0000 0.07060  0.71777  0.90539  Biso   1.000  C
  C239     1.0000 0.09141  0.72009  0.98242  Biso   1.000  C
  C240     1.0000 0.04998  0.71841  0.82840  Biso   1.000  C
  C241     1.0000 0.30957  0.98596  0.90420  Biso   1.000  C
  H418     1.0000 0.37418  0.05809  0.90189  Biso   1.000  H
  H419     1.0000 0.38150  0.01226  0.86660  Biso   1.000  H
  H420     1.0000 0.33310  0.68919  0.96839  Biso   1.000  H
  C242     1.0000 0.27279  0.75939  0.98819  Biso   1.000  C
  H421     1.0000 0.33948  0.70037  0.01371  Biso   1.000  H
  C243     1.0000 0.27630  0.72830  0.00672  Biso   1.000  C
  H422     1.0000 0.26948  0.78540  0.96211  Biso   1.000  H
  H423     1.0000 0.29711  0.78367  0.95590  Biso   1.000  H
  H424     1.0000 0.31328  0.71337  0.94890  Biso   1.000  H
  H425     1.0000 0.04370  0.80497  0.76771  Biso   1.000  H
  H426     1.0000 0.99328  0.80749  0.72939  Biso   1.000  H
  C244     1.0000 0.95961  0.75119  0.77799  Biso   1.000  C
  H427     1.0000 0.21268  0.01859  0.90411  Biso   1.000  H
  H428     1.0000 0.26369  0.07396  0.88871  Biso   1.000  H
  H429     1.0000 0.07158  0.76468  0.90430  Biso   1.000  H
  N62      1.0000 0.15350  0.75440  0.98751  Biso   1.000  N
  H430     1.0000 0.05522  0.75267  0.98551  Biso   1.000  H
  H431     1.0000 0.08711  0.68781  0.00550  Biso   1.000  H
  N63      1.0000 0.97652  0.73700  0.82190  Biso   1.000  N
  H432     1.0000 0.06521  0.69008  0.80510  Biso   1.000  H
  H433     1.0000 0.07742  0.75890  0.82871  Biso   1.000  H
  H434     1.0000 0.30458  0.98240  0.93481  Biso   1.000  H
  H435     1.0000 0.30749  0.94078  0.89240  Biso   1.000  H
  C245     1.0000 0.21277  0.70991  0.99150  Biso   1.000  C
  C246     1.0000 0.21579  0.76987  0.00850  Biso   1.000  C
  H436     1.0000 0.27210  0.79059  0.01209  Biso   1.000  H
  H437     1.0000 0.26409  0.68089  0.00568  Biso   1.000  H
  H438     1.0000 0.30369  0.73576  0.03189  Biso   1.000  H
  H439     1.0000 0.91151  0.75979  0.77611  Biso   1.000  H
  H440     1.0000 0.96940  0.71169  0.76090  Biso   1.000  H
  H441     1.0000 0.15958  0.78149  0.96511  Biso   1.000  H
  H442     1.0000 0.13758  0.79637  0.98551  Biso   1.000  H
  H443     1.0000 0.17021  0.74629  0.96161  Biso   1.000  H
  H444     1.0000 0.15088  0.78040  0.01059  Biso   1.000  H
  H445     1.0000 0.95081  0.70308  0.83108  Biso   1.000  H
  H446     1.0000 0.96698  0.77319  0.83761  Biso   1.000  H
  H447     1.0000 0.21401  0.67678  0.96880  Biso   1.000  H
  H448     1.0000 0.21277  0.68667  0.01880  Biso   1.000  H
  H449     1.0000 0.22909  0.81417  0.99841  Biso   1.000  H
  H450     1.0000 0.20501  0.77497  0.03851  Biso   1.000  H
  N64      1.0000 0.73299  0.34170  0.66329  Biso   1.000  N
  C247     1.0000 0.78208  0.29019  0.65499  Biso   1.000  C
  H451     1.0000 0.70961  0.33078  0.68650  Biso   1.000  H
  H452     1.0000 0.70417  0.34368  0.64149  Biso   1.000  H
  C248     1.0000 0.76399  0.40790  0.66942  Biso   1.000  C
  C249     1.0000 0.75307  0.22350  0.64899  Biso   1.000  C
  H453     1.0000 0.81348  0.28841  0.67869  Biso   1.000  H
  H454     1.0000 0.80749  0.30230  0.62969  Biso   1.000  H
  C250     1.0000 0.80270  0.41467  0.71161  Biso   1.000  C
  H455     1.0000 0.72909  0.44211  0.66838  Biso   1.000  H
  H456     1.0000 0.79489  0.41640  0.64599  Biso   1.000  H
  N65      1.0000 0.73977  0.18811  0.68859  Biso   1.000  N
  H457     1.0000 0.78367  0.19671  0.63181  Biso   1.000  H
  H458     1.0000 0.71109  0.22800  0.63331  Biso   1.000  H
  C251     1.0000 0.86880  0.41680  0.71239  Biso   1.000  C
  C252     1.0000 0.76839  0.42412  0.74919  Biso   1.000  C
  H459     1.0000 0.70447  0.20689  0.70159  Biso   1.000  H
  H460     1.0000 0.77536  0.19211  0.70580  Biso   1.000  H
  C253     1.0000 0.72508  0.11272  0.68091  Biso   1.000  C
  H461     1.0000 0.89139  0.40928  0.68681  Biso   1.000  H
  C254     1.0000 0.90587  0.42871  0.74660  Biso   1.000  C
  C255     1.0000 0.80136  0.43667  0.78529  Biso   1.000  C
  H462     1.0000 0.72148  0.42149  0.74950  Biso   1.000  H
  C256     1.0000 0.68929  0.09022  0.71989  Biso   1.000  C
  H463     1.0000 0.69710  0.10668  0.65589  Biso   1.000  H
  H464     1.0000 0.76671  0.08770  0.67710  Biso   1.000  H
  C257     1.0000 0.87028  0.43969  0.78551  Biso   1.000  C
  C258     1.0000 0.97909  0.42901  0.74619  Biso   1.000  C
  C259     1.0000 0.76448  0.44611  0.82790  Biso   1.000  C
  C260     1.0000 0.72217  0.08221  0.75740  Biso   1.000  C
  C261     1.0000 0.61969  0.07900  0.72020  Biso   1.000  C
  H465     1.0000 0.89356  0.44878  0.81059  Biso   1.000  H
  H466     1.0000 0.99486  0.47217  0.75681  Biso   1.000  H
  H467     1.0000 0.99446  0.42441  0.71699  Biso   1.000  H
  N66      1.0000 0.01009  0.37428  0.77230  Biso   1.000  N
  N67      1.0000 0.74659  0.51701  0.83471  Biso   1.000  N
  H468     1.0000 0.72390  0.41878  0.82809  Biso   1.000  H
  H469     1.0000 0.79331  0.43079  0.85101  Biso   1.000  H
  C262     1.0000 0.68608  0.06209  0.79401  Biso   1.000  C
  H470     1.0000 0.76849  0.08997  0.75900  Biso   1.000  H
  C263     1.0000 0.58449  0.06091  0.75340  Biso   1.000  C
  H471     1.0000 0.59670  0.08488  0.69472  Biso   1.000  H
  C264     1.0000 0.97919  0.30749  0.76209  Biso   1.000  C
  H472     1.0000 0.00410  0.38338  0.79991  Biso   1.000  H
  H473     1.0000 0.05428  0.37270  0.76730  Biso   1.000  H
  H474     1.0000 0.78119  0.54301  0.82690  Biso   1.000  H
  H475     1.0000 0.71139  0.52749  0.81831  Biso   1.000  H
  C265     1.0000 0.72978  0.53119  0.87909  Biso   1.000  C
  C266     1.0000 0.61909  0.05181  0.79179  Biso   1.000  C
  C267     1.0000 0.71999  0.05379  0.83449  Biso   1.000  C
  C268     1.0000 0.51127  0.04988  0.75109  Biso   1.000  C
  H476     1.0000 0.93390  0.30581  0.77380  Biso   1.000  H
  H477     1.0000 0.97578  0.30270  0.73142  Biso   1.000  H
  C269     1.0000 0.01938  0.25049  0.77961  Biso   1.000  C
  H478     1.0000 0.72019  0.57900  0.88172  Biso   1.000  H
  H479     1.0000 0.76928  0.52180  0.89640  Biso   1.000  H
  C270     1.0000 0.67248  0.49328  0.89680  Biso   1.000  C
  H480     1.0000 0.59551  0.03841  0.81609  Biso   1.000  H
  H481     1.0000 0.69078  0.06911  0.85742  Biso   1.000  H
  H482     1.0000 0.76058  0.08108  0.83499  Biso   1.000  H
  N68      1.0000 0.73809  0.98112  0.84139  Biso   1.000  N
  N69      1.0000 0.47311  0.10609  0.76921  Biso   1.000  N
  H483     1.0000 0.49817  0.04380  0.72161  Biso   1.000  H
  H484     1.0000 0.50010  0.00890  0.76640  Biso   1.000  H
  N70      1.0000 0.00880  0.23359  0.82509  Biso   1.000  N
  H485     1.0000 0.00949  0.21060  0.76281  Biso   1.000  H
  H486     1.0000 0.06679  0.26078  0.77561  Biso   1.000  H
  N71      1.0000 0.60738  0.51137  0.87769  Biso   1.000  N
  H487     1.0000 0.68029  0.44547  0.89249  Biso   1.000  H
  H488     1.0000 0.67021  0.50138  0.92729  Biso   1.000  H
  H489     1.0000 0.70407  0.95541  0.83221  Biso   1.000  H
  H490     1.0000 0.77427  0.97128  0.82571  Biso   1.000  H
  C271     1.0000 0.75218  0.96411  0.88621  Biso   1.000  C
  H491     1.0000 0.48161  0.10841  0.79710  Biso   1.000  H
  H492     1.0000 0.42921  0.09798  0.76599  Biso   1.000  H
  C272     1.0000 0.48937  0.17090  0.74959  Biso   1.000  C
  C273     1.0000 0.93687  0.21470  0.83299  Biso   1.000  C
  H493     1.0000 0.01977  0.26898  0.84120  Biso   1.000  H
  H494     1.0000 0.03559  0.19928  0.83230  Biso   1.000  H
  H495     1.0000 0.60846  0.50158  0.84989  Biso   1.000  H
  H496     1.0000 0.60130  0.55581  0.88018  Biso   1.000  H
  C274     1.0000 0.54879  0.47568  0.89761  Biso   1.000  C
  C275     1.0000 0.81016  0.00519  0.90489  Biso   1.000  C
  H497     1.0000 0.76330  0.91650  0.88821  Biso   1.000  H
  H498     1.0000 0.71188  0.97192  0.90299  Biso   1.000  H
  C276     1.0000 0.45131  0.22810  0.76808  Biso   1.000  C
  H499     1.0000 0.47998  0.16828  0.71930  Biso   1.000  H
  H500     1.0000 0.53728  0.17940  0.75300  Biso   1.000  H
  C277     1.0000 0.93188  0.18069  0.87491  Biso   1.000  C
  H501     1.0000 0.90889  0.25480  0.83280  Biso   1.000  H
  H502     1.0000 0.92120  0.18469  0.81069  Biso   1.000  H
  C278     1.0000 0.55898  0.40167  0.89621  Biso   1.000  C
  H503     1.0000 0.54400  0.49011  0.92701  Biso   1.000  H
  H504     1.0000 0.50771  0.48739  0.88259  Biso   1.000  H
  H505     1.0000 0.80720  0.05132  0.89462  Biso   1.000  H
  H506     1.0000 0.80576  0.00628  0.93569  Biso   1.000  H
  N72      1.0000 0.87596  0.97741  0.89358  Biso   1.000  N
  N73      1.0000 0.47177  0.24718  0.81241  Biso   1.000  N
  H507     1.0000 0.40370  0.21658  0.76821  Biso   1.000  H
  H508     1.0000 0.45689  0.26701  0.74969  Biso   1.000  H
  C279     1.0000 0.93687  0.11049  0.87890  Biso   1.000  C
  C280     1.0000 0.91976  0.21658  0.91279  Biso   1.000  C
  C281     1.0000 0.54879  0.36791  0.85901  Biso   1.000  C
  C282     1.0000 0.58019  0.36949  0.93260  Biso   1.000  C
  C283     1.0000 0.93000  0.00400  0.91810  Biso   1.000  C
  H509     1.0000 0.87478  0.93282  0.89711  Biso   1.000  H
  H510     1.0000 0.88387  0.98571  0.86610  Biso   1.000  H
  H511     1.0000 0.44789  0.28307  0.82050  Biso   1.000  H
  H512     1.0000 0.46139  0.21342  0.82999  Biso   1.000  H
  C284     1.0000 0.54420  0.26280  0.81709  Biso   1.000  C
  C285     1.0000 0.92837  0.08117  0.91651  Biso   1.000  C
  H513     1.0000 0.94606  0.08429  0.85501  Biso   1.000  H
  C286     1.0000 0.91136  0.18489  0.95049  Biso   1.000  C
  H514     1.0000 0.91739  0.26350  0.91189  Biso   1.000  H
  C287     1.0000 0.55660  0.29978  0.85760  Biso   1.000  C
  H515     1.0000 0.53648  0.39139  0.83449  Biso   1.000  H
  C288     1.0000 0.58721  0.30018  0.93169  Biso   1.000  C
  H516     1.0000 0.58958  0.39381  0.95730  Biso   1.000  H
  H517     1.0000 0.97256  0.98769  0.90689  Biso   1.000  H
  H518     1.0000 0.92599  0.98878  0.94740  Biso   1.000  H
  H519     1.0000 0.55908  0.29009  0.79329  Biso   1.000  H
  H520     1.0000 0.57010  0.22128  0.81700  Biso   1.000  H
  C289     1.0000 0.91556  0.11791  0.95159  Biso   1.000  C
  C290     1.0000 0.90399  0.22578  0.99050  Biso   1.000  C
  C291     1.0000 0.57539  0.26419  0.89349  Biso   1.000  C
  C292     1.0000 0.61128  0.26379  0.97030  Biso   1.000  C
  H521     1.0000 0.90938  0.09571  0.97751  Biso   1.000  H
  N74      1.0000 0.83740  0.25460  0.99319  Biso   1.000  N
  H522     1.0000 0.93727  0.26152  0.99079  Biso   1.000  H
  H523     1.0000 0.91190  0.19720  0.01509  Biso   1.000  H
  H524     1.0000 0.58009  0.21752  0.89271  Biso   1.000  H
  N75      1.0000 0.68257  0.24590  0.96461  Biso   1.000  N
  H525     1.0000 0.60609  0.29232  0.99519  Biso   1.000  H
  H526     1.0000 0.58468  0.22330  0.97451  Biso   1.000  H
  H527     1.0000 0.82841  0.27590  0.96880  Biso   1.000  H
  H528     1.0000 0.83701  0.28520  0.01399  Biso   1.000  H
  C293     1.0000 0.78347  0.20462  0.00141  Biso   1.000  C
  H529     1.0000 0.70368  0.27887  0.95071  Biso   1.000  H
  H530     1.0000 0.68568  0.20837  0.94899  Biso   1.000  H
  C294     1.0000 0.71559  0.23487  0.00650  Biso   1.000  C
  H531     1.0000 0.78218  0.17278  0.97789  Biso   1.000  H
  H532     1.0000 0.79469  0.17960  0.02699  Biso   1.000  H
  H533     1.0000 0.71960  0.27768  0.02130  Biso   1.000  H
  H534     1.0000 0.68781  0.20531  0.02380  Biso   1.000  H
  N76      1.0000 0.27902  0.33518  0.23851  Biso   1.000  N
  C295     1.0000 0.27170  0.27630  0.25672  Biso   1.000  C
  H535     1.0000 0.29958  0.33948  0.26371  Biso   1.000  H
  H536     1.0000 0.31081  0.33310  0.21839  Biso   1.000  H
  C296     1.0000 0.23868  0.39168  0.23142  Biso   1.000  C
  C297     1.0000 0.24061  0.27279  0.23819  Biso   1.000  C
  C298     1.0000 0.29009  0.21277  0.24150  Biso   1.000  C
  H537     1.0000 0.20941  0.27210  0.26209  Biso   1.000  H
  N77      1.0000 0.25311  0.31491  0.21780  Biso   1.000  N
  C299     1.0000 0.23008  0.21579  0.25850  Biso   1.000  C
  H538     1.0000 0.31911  0.26409  0.25568  Biso   1.000  H
  H539     1.0000 0.26419  0.30369  0.28189  Biso   1.000  H
  C300     1.0000 0.20150  0.40879  0.19459  Biso   1.000  C
  H540     1.0000 0.26790  0.43010  0.23660  Biso   1.000  H
  H541     1.0000 0.20610  0.39159  0.25450  Biso   1.000  H
  H542     1.0000 0.21208  0.39510  0.25731  Biso   1.000  H
  H543     1.0000 0.27981  0.41798  0.23420  Biso   1.000  H
  H544     1.0000 0.21460  0.26948  0.21211  Biso   1.000  H
  H545     1.0000 0.21628  0.29711  0.20590  Biso   1.000  H
  N78      1.0000 0.24560  0.15350  0.23751  Biso   1.000  N
  H546     1.0000 0.32322  0.21401  0.21880  Biso   1.000  H
  H547     1.0000 0.31328  0.21277  0.26880  Biso   1.000  H
  H548     1.0000 0.28658  0.31328  0.19890  Biso   1.000  H
  H549     1.0000 0.22499  0.20501  0.28851  Biso   1.000  H
  H550     1.0000 0.18578  0.22909  0.24841  Biso   1.000  H
  C301     1.0000 0.23121  0.41680  0.15511  Biso   1.000  C
  C302     1.0000 0.13308  0.41438  0.19799  Biso   1.000  C
  H551     1.0000 0.21960  0.15088  0.26059  Biso   1.000  H
  H552     1.0000 0.21851  0.15958  0.21511  Biso   1.000  H
  C303     1.0000 0.27991  0.09141  0.23242  Biso   1.000  C
  H553     1.0000 0.20358  0.13758  0.23551  Biso   1.000  H
  H554     1.0000 0.25371  0.17021  0.21161  Biso   1.000  H
  C304     1.0000 0.19162  0.43237  0.12041  Biso   1.000  C
  H555     1.0000 0.27759  0.41161  0.15189  Biso   1.000  H
  C305     1.0000 0.09210  0.42881  0.16420  Biso   1.000  C
  H556     1.0000 0.11331  0.40800  0.22461  Biso   1.000  H
  C306     1.0000 0.31501  0.08182  0.19290  Biso   1.000  C
  H557     1.0000 0.24728  0.05522  0.23551  Biso   1.000  H
  H558     1.0000 0.31219  0.08711  0.25550  Biso   1.000  H
  C307     1.0000 0.12329  0.44087  0.12569  Biso   1.000  C
  C308     1.0000 0.22212  0.43840  0.07690  Biso   1.000  C
  C309     1.0000 0.01888  0.43301  0.16689  Biso   1.000  C
  C310     1.0000 0.28218  0.07060  0.15539  Biso   1.000  C
  C311     1.0000 0.38679  0.08261  0.19472  Biso   1.000  C
  H559     1.0000 0.09739  0.45521  0.10260  Biso   1.000  H
  N79      1.0000 0.24199  0.50959  0.06759  Biso   1.000  N
  H560     1.0000 0.26152  0.40958  0.07499  Biso   1.000  H
  H561     1.0000 0.18979  0.42327  0.05569  Biso   1.000  H
  H562     1.0000 0.00391  0.47489  0.15389  Biso   1.000  H
  H563     1.0000 0.00539  0.43351  0.19659  Biso   1.000  H
  N80      1.0000 0.98542  0.37468  0.14471  Biso   1.000  N
  C312     1.0000 0.31827  0.05819  0.11950  Biso   1.000  C
  H564     1.0000 0.23532  0.07158  0.15430  Biso   1.000  H
  H565     1.0000 0.40958  0.09081  0.22011  Biso   1.000  H
  C313     1.0000 0.42011  0.07119  0.15820  Biso   1.000  C
  H566     1.0000 0.21050  0.53737  0.07771  Biso   1.000  H
  H567     1.0000 0.28070  0.51888  0.08090  Biso   1.000  H
  C314     1.0000 0.25010  0.52091  0.02171  Biso   1.000  C
  C315     1.0000 0.01399  0.30957  0.15420  Biso   1.000  C
  H568     1.0000 0.94191  0.37418  0.15189  Biso   1.000  H
  H569     1.0000 0.98769  0.38150  0.11660  Biso   1.000  H
  C316     1.0000 0.38649  0.05740  0.12019  Biso   1.000  C
  C317     1.0000 0.28159  0.04998  0.07840  Biso   1.000  C
  C318     1.0000 0.49441  0.07198  0.15830  Biso   1.000  C
  H570     1.0000 0.25801  0.56857  0.01671  Biso   1.000  H
  H571     1.0000 0.20857  0.50860  0.00731  Biso   1.000  H
  C319     1.0000 0.30670  0.48171  0.00281  Biso   1.000  C
  H572     1.0000 0.01760  0.30458  0.18481  Biso   1.000  H
  H573     1.0000 0.05918  0.30749  0.14240  Biso   1.000  H
  C320     1.0000 0.97350  0.25247  0.13681  Biso   1.000  C
  H574     1.0000 0.41077  0.04781  0.09551  Biso   1.000  H
  H575     1.0000 0.30992  0.06521  0.05510  Biso   1.000  H
  H576     1.0000 0.24110  0.07742  0.07871  Biso   1.000  H
  N81      1.0000 0.26300  0.97652  0.07190  Biso   1.000  N
  N82      1.0000 0.52551  0.12552  0.13271  Biso   1.000  N
  H577     1.0000 0.50969  0.07668  0.18759  Biso   1.000  H
  H578     1.0000 0.51038  0.02872  0.14789  Biso   1.000  H
  N83      1.0000 0.37458  0.51201  0.01181  Biso   1.000  N
  H579     1.0000 0.30562  0.43608  0.01409  Biso   1.000  H
  H580     1.0000 0.30028  0.47899  0.97220  Biso   1.000  H
  N84      1.0000 0.99051  0.23739  0.09239  Biso   1.000  N
  H581     1.0000 0.98141  0.21268  0.15411  Biso   1.000  H
  H582     1.0000 0.92599  0.26369  0.13871  Biso   1.000  H
  H583     1.0000 0.29692  0.95081  0.08108  Biso   1.000  H
  H584     1.0000 0.22681  0.96698  0.08761  Biso   1.000  H
  C321     1.0000 0.24881  0.95961  0.02799  Biso   1.000  C
  H585     1.0000 0.57000  0.12532  0.13699  Biso   1.000  H
  H586     1.0000 0.51809  0.11731  0.10520  Biso   1.000  H
  C322     1.0000 0.49847  0.19221  0.14349  Biso   1.000  C
  H587     1.0000 0.38560  0.50489  0.03901  Biso   1.000  H
  H588     1.0000 0.37310  0.55641  0.00740  Biso   1.000  H
  C323     1.0000 0.42738  0.48057  0.98310  Biso   1.000  C
  C324     1.0000 0.05809  0.21678  0.08399  Biso   1.000  C
  H589     1.0000 0.96292  0.20491  0.08330  Biso   1.000  H
  H590     1.0000 0.98191  0.27398  0.07681  Biso   1.000  H
  C325     1.0000 0.19048  0.99639  0.01031  Biso   1.000  C
  H591     1.0000 0.24021  0.91151  0.02611  Biso   1.000  H
  H592     1.0000 0.28831  0.96940  0.01090  Biso   1.000  H
  H593     1.0000 0.45180  0.19458  0.13450  Biso   1.000  H
  H594     1.0000 0.49970  0.19780  0.17419  Biso   1.000  H
  C326     1.0000 0.53609  0.24708  0.12369  Biso   1.000  C
  C327     1.0000 0.42797  0.40548  0.98641  Biso   1.000  C
  H595     1.0000 0.41838  0.49347  0.95380  Biso   1.000  H
  H596     1.0000 0.47148  0.49797  0.99069  Biso   1.000  H
  C328     1.0000 0.06689  0.18469  0.04320  Biso   1.000  C
  H597     1.0000 0.07228  0.18578  0.10620  Biso   1.000  H
  H598     1.0000 0.08721  0.25598  0.08539  Biso   1.000  H
  H599     1.0000 0.19498  0.04370  0.01771  Biso   1.000  H
  H600     1.0000 0.19251  0.99328  0.97939  Biso   1.000  H
  N85      1.0000 0.12389  0.97360  0.02399  Biso   1.000  N
  N86      1.0000 0.52101  0.25850  0.07840  Biso   1.000  N
  H601     1.0000 0.58389  0.23769  0.12650  Biso   1.000  H
  H602     1.0000 0.52679  0.28831  0.13921  Biso   1.000  H
  C329     1.0000 0.44201  0.37591  0.02389  Biso   1.000  C
  C330     1.0000 0.41270  0.36692  0.95171  Biso   1.000  C
  C331     1.0000 0.06461  0.11291  0.03979  Biso   1.000  C
  C332     1.0000 0.07801  0.21801  0.00568  Biso   1.000  C
  C333     1.0000 0.06901  0.00672  0.00091  Biso   1.000  C
  H603     1.0000 0.11919  0.98171  0.05179  Biso   1.000  H
  H604     1.0000 0.12092  0.92911  0.02011  Biso   1.000  H
  H605     1.0000 0.54771  0.29128  0.06881  Biso   1.000  H
  H606     1.0000 0.53090  0.22108  0.06391  Biso   1.000  H
  C334     1.0000 0.45289  0.27620  0.07009  Biso   1.000  C
  C335     1.0000 0.44191  0.30888  0.02749  Biso   1.000  C
  H607     1.0000 0.45170  0.40251  0.04760  Biso   1.000  H
  H608     1.0000 0.40212  0.38738  0.92591  Biso   1.000  H
  C336     1.0000 0.41270  0.30067  0.95480  Biso   1.000  C
  C337     1.0000 0.07361  0.08058  0.00359  Biso   1.000  C
  H609     1.0000 0.05631  0.08780  0.06431  Biso   1.000  H
  H610     1.0000 0.07989  0.26488  0.00618  Biso   1.000  H
  C338     1.0000 0.08622  0.18638  0.96830  Biso   1.000  C
  H611     1.0000 0.07040  0.99308  0.97120  Biso   1.000  H
  H612     1.0000 0.02620  0.99209  0.01271  Biso   1.000  H
  H613     1.0000 0.43761  0.30680  0.09220  Biso   1.000  H
  H614     1.0000 0.42540  0.23591  0.07171  Biso   1.000  H
  C339     1.0000 0.42718  0.26958  0.99291  Biso   1.000  C
  C340     1.0000 0.40281  0.26097  0.91529  Biso   1.000  C
  C341     1.0000 0.08320  0.11741  0.96711  Biso   1.000  C
  C342     1.0000 0.09462  0.22479  0.92819  Biso   1.000  C
  H615     1.0000 0.42698  0.22271  0.99510  Biso   1.000  H
  N87      1.0000 0.33587  0.22731  0.91439  Biso   1.000  N
  H616     1.0000 0.43801  0.22711  0.91320  Biso   1.000  H
  H617     1.0000 0.40671  0.29059  0.89080  Biso   1.000  H
  H618     1.0000 0.08780  0.09521  0.94109  Biso   1.000  H
  N88      1.0000 0.15622  0.25920  0.92291  Biso   1.000  N
  H619     1.0000 0.08928  0.19369  0.90461  Biso   1.000  H
  H620     1.0000 0.05829  0.25751  0.92629  Biso   1.000  H
  H621     1.0000 0.33370  0.20200  0.89099  Biso   1.000  H
  H622     1.0000 0.33340  0.19948  0.93669  Biso   1.000  H
  C343     1.0000 0.27932  0.26918  0.91520  Biso   1.000  C
  H623     1.0000 0.15390  0.28307  0.89889  Biso   1.000  H
  H624     1.0000 0.16072  0.28841  0.94440  Biso   1.000  H
  C344     1.0000 0.21342  0.21970  0.92141  Biso   1.000  C
  H625     1.0000 0.27581  0.29439  0.88881  Biso   1.000  H
  H626     1.0000 0.28248  0.30102  0.93869  Biso   1.000  H
  H627     1.0000 0.21040  0.18830  0.89771  Biso   1.000  H
  H628     1.0000 0.21782  0.19389  0.94750  Biso   1.000  H
  C345     1.0000 0.73621  0.61128  0.22030  Biso   1.000  C
  C346     1.0000 0.69977  0.58721  0.18169  Biso   1.000  C
  N89      1.0000 0.75410  0.68257  0.21461  Biso   1.000  N
  H629     1.0000 0.70768  0.60609  0.24519  Biso   1.000  H
  H630     1.0000 0.77670  0.58468  0.22451  Biso   1.000  H
  C347     1.0000 0.63051  0.58019  0.18260  Biso   1.000  C
  C348     1.0000 0.73576  0.57539  0.14349  Biso   1.000  C
  H631     1.0000 0.72108  0.70368  0.20071  Biso   1.000  H
  H632     1.0000 0.79158  0.68568  0.19899  Biso   1.000  H
  C349     1.0000 0.76508  0.71559  0.25650  Biso   1.000  C
  C350     1.0000 0.59828  0.55898  0.14621  Biso   1.000  C
  H633     1.0000 0.60619  0.58958  0.20730  Biso   1.000  H
  C351     1.0000 0.70017  0.55660  0.10760  Biso   1.000  C
  H634     1.0000 0.78248  0.58009  0.14271  Biso   1.000  H
  C352     1.0000 0.79538  0.78347  0.25141  Biso   1.000  C
  H635     1.0000 0.72227  0.71960  0.27130  Biso   1.000  H
  H636     1.0000 0.79469  0.68781  0.27380  Biso   1.000  H
  C353     1.0000 0.52427  0.54879  0.14761  Biso   1.000  C
  C354     1.0000 0.63209  0.54879  0.10901  Biso   1.000  C
  C355     1.0000 0.73720  0.54420  0.06709  Biso   1.000  C
  N90      1.0000 0.74540  0.83740  0.24319  Biso   1.000  N
  H637     1.0000 0.82040  0.79469  0.27699  Biso   1.000  H
  H638     1.0000 0.82717  0.78218  0.22789  Biso   1.000  H
  N91      1.0000 0.48858  0.60738  0.12769  Biso   1.000  N
  H639     1.0000 0.50989  0.54400  0.17701  Biso   1.000  H
  H640     1.0000 0.51261  0.50771  0.13259  Biso   1.000  H
  H641     1.0000 0.60861  0.53648  0.08449  Biso   1.000  H
  N92      1.0000 0.75277  0.47177  0.06241  Biso   1.000  N
  H642     1.0000 0.70991  0.55908  0.04329  Biso   1.000  H
  H643     1.0000 0.77867  0.57010  0.06700  Biso   1.000  H
  H644     1.0000 0.72410  0.82841  0.21880  Biso   1.000  H
  H645     1.0000 0.71480  0.83701  0.26399  Biso   1.000  H
  C356     1.0000 0.77417  0.90399  0.24050  Biso   1.000  C
  H646     1.0000 0.49837  0.60846  0.09989  Biso   1.000  H
  H647     1.0000 0.44419  0.60130  0.13018  Biso   1.000  H
  C357     1.0000 0.50667  0.67248  0.14680  Biso   1.000  C
  H648     1.0000 0.71688  0.44789  0.07050  Biso   1.000  H
  H649     1.0000 0.78658  0.46139  0.07999  Biso   1.000  H
  C358     1.0000 0.77190  0.45131  0.01808  Biso   1.000  C
  C359     1.0000 0.81511  0.91136  0.20049  Biso   1.000  C
  H650     1.0000 0.80280  0.91190  0.26509  Biso   1.000  H
  H651     1.0000 0.73848  0.93727  0.24079  Biso   1.000  H
  C360     1.0000 0.46881  0.72978  0.12909  Biso   1.000  C
  H652     1.0000 0.55448  0.68029  0.14249  Biso   1.000  H
  H653     1.0000 0.49857  0.67021  0.17729  Biso   1.000  H
  H654     1.0000 0.78337  0.40370  0.01821  Biso   1.000  H
  H655     1.0000 0.73299  0.45689  0.99969  Biso   1.000  H
  C361     1.0000 0.82910  0.48937  0.99959  Biso   1.000  C
  C362     1.0000 0.88209  0.91556  0.20159  Biso   1.000  C
  C363     1.0000 0.78337  0.91976  0.16279  Biso   1.000  C
  N93      1.0000 0.48299  0.74659  0.08471  Biso   1.000  N
  H656     1.0000 0.42100  0.72019  0.13172  Biso   1.000  H
  H657     1.0000 0.47820  0.76928  0.14640  Biso   1.000  H
  N94      1.0000 0.89386  0.47311  0.01921  Biso   1.000  N
  H658     1.0000 0.82060  0.53728  0.00300  Biso   1.000  H
  H659     1.0000 0.83167  0.47998  0.96930  Biso   1.000  H
  C364     1.0000 0.91878  0.92837  0.16651  Biso   1.000  C
  H660     1.0000 0.90429  0.90938  0.22751  Biso   1.000  H
  H661     1.0000 0.73650  0.91739  0.16189  Biso   1.000  H
  C365     1.0000 0.81926  0.93188  0.12491  Biso   1.000  C
  H662     1.0000 0.45699  0.78119  0.07690  Biso   1.000  H
  H663     1.0000 0.47251  0.71139  0.06831  Biso   1.000  H
  C366     1.0000 0.55389  0.76448  0.07790  Biso   1.000  C
  H664     1.0000 0.89159  0.48161  0.04710  Biso   1.000  H
  H665     1.0000 0.90197  0.42921  0.01599  Biso   1.000  H
  C367     1.0000 0.95007  0.51127  0.00109  Biso   1.000  C
  C368     1.0000 0.88946  0.93687  0.12890  Biso   1.000  C
  C369     1.0000 0.99600  0.93000  0.16810  Biso   1.000  C
  C370     1.0000 0.78530  0.93687  0.08299  Biso   1.000  C
  C371     1.0000 0.56328  0.80136  0.03529  Biso   1.000  C
  H666     1.0000 0.58117  0.72390  0.07809  Biso   1.000  H
  H667     1.0000 0.56921  0.79331  0.10101  Biso   1.000  H
  C372     1.0000 0.93909  0.58449  0.00340  Biso   1.000  C
  H668     1.0000 0.99110  0.50010  0.01640  Biso   1.000  H
  H669     1.0000 0.95620  0.49817  0.97161  Biso   1.000  H
  H670     1.0000 0.91566  0.94606  0.10501  Biso   1.000  H
  N95      1.0000 0.02259  0.87596  0.14358  Biso   1.000  N
  H671     1.0000 0.01226  0.97256  0.15689  Biso   1.000  H
  H672     1.0000 0.01117  0.92599  0.19740  Biso   1.000  H
  N96      1.0000 0.76636  0.00880  0.07509  Biso   1.000  N
  H673     1.0000 0.74520  0.90889  0.08280  Biso   1.000  H
  H674     1.0000 0.81531  0.92120  0.06069  Biso   1.000  H
  C373     1.0000 0.56031  0.87028  0.03551  Biso   1.000  C
  C374     1.0000 0.57588  0.76839  0.99919  Biso   1.000  C
  C375     1.0000 0.94819  0.61909  0.04179  Biso   1.000  C
  C376     1.0000 0.92100  0.61969  0.97020  Biso   1.000  C
  C377     1.0000 0.99476  0.81016  0.15489  Biso   1.000  C
  H675     1.0000 0.06718  0.87478  0.14711  Biso   1.000  H
  H676     1.0000 0.01429  0.88387  0.11610  Biso   1.000  H
  C378     1.0000 0.74951  0.01938  0.02961  Biso   1.000  C
  H677     1.0000 0.73097  0.01977  0.09120  Biso   1.000  H
  H678     1.0000 0.80067  0.03559  0.08230  Biso   1.000  H
  H679     1.0000 0.55117  0.89356  0.06059  Biso   1.000  H
  C379     1.0000 0.57129  0.90587  0.99660  Biso   1.000  C
  C380     1.0000 0.58528  0.80270  0.96161  Biso   1.000  C
  H680     1.0000 0.57851  0.72148  0.99950  Biso   1.000  H
  H681     1.0000 0.96159  0.59551  0.06609  Biso   1.000  H
  C381     1.0000 0.93786  0.68608  0.04401  Biso   1.000  C
  C382     1.0000 0.90978  0.68929  0.96989  Biso   1.000  C
  H682     1.0000 0.91507  0.59670  0.94472  Biso   1.000  H
  C383     1.0000 0.03589  0.75218  0.13621  Biso   1.000  C
  H683     1.0000 0.94868  0.80720  0.14462  Biso   1.000  H
  H684     1.0000 0.99367  0.80576  0.18569  Biso   1.000  H
  C384     1.0000 0.69251  0.97919  0.01209  Biso   1.000  C
  H685     1.0000 0.78940  0.00949  0.01281  Biso   1.000  H
  H686     1.0000 0.73917  0.06679  0.02561  Biso   1.000  H
  C385     1.0000 0.58320  0.86880  0.96239  Biso   1.000  C
  C386     1.0000 0.57099  0.97909  0.99619  Biso   1.000  C
  C387     1.0000 0.59210  0.76399  0.91942  Biso   1.000  C
  C388     1.0000 0.91779  0.72217  0.00740  Biso   1.000  C
  C389     1.0000 0.94616  0.71999  0.08449  Biso   1.000  C
  C390     1.0000 0.88728  0.72508  0.93091  Biso   1.000  C
  N97      1.0000 0.01888  0.73809  0.09139  Biso   1.000  N
  H687     1.0000 0.08350  0.76330  0.13821  Biso   1.000  H
  H688     1.0000 0.02808  0.71188  0.15299  Biso   1.000  H
  N98      1.0000 0.62567  0.01009  0.02230  Biso   1.000  N
  H689     1.0000 0.69419  0.93390  0.02380  Biso   1.000  H
  H690     1.0000 0.69730  0.97578  0.98142  Biso   1.000  H
  H691     1.0000 0.59067  0.89139  0.93681  Biso   1.000  H
  H692     1.0000 0.52778  0.99486  0.00681  Biso   1.000  H
  H693     1.0000 0.57559  0.99446  0.96699  Biso   1.000  H
  N99      1.0000 0.65830  0.73299  0.91329  Biso   1.000  N
  H694     1.0000 0.55789  0.72909  0.91838  Biso   1.000  H
  H695     1.0000 0.58360  0.79489  0.89599  Biso   1.000  H
  H696     1.0000 0.90998  0.76849  0.00900  Biso   1.000  H
  H697     1.0000 0.93089  0.69078  0.10742  Biso   1.000  H
  H698     1.0000 0.91887  0.76058  0.08499  Biso   1.000  H
  N100     1.0000 0.81189  0.73977  0.93859  Biso   1.000  N
  H699     1.0000 0.89327  0.69710  0.90589  Biso   1.000  H
  H700     1.0000 0.91230  0.76671  0.92710  Biso   1.000  H
  H701     1.0000 0.04459  0.70407  0.08221  Biso   1.000  H
  H702     1.0000 0.02867  0.77427  0.07571  Biso   1.000  H
  H703     1.0000 0.61657  0.00410  0.04991  Biso   1.000  H
  H704     1.0000 0.62730  0.05428  0.01730  Biso   1.000  H
  H705     1.0000 0.66917  0.70961  0.93650  Biso   1.000  H
  H706     1.0000 0.65627  0.70417  0.89149  Biso   1.000  H
  C391     1.0000 0.70981  0.78208  0.90499  Biso   1.000  C
  C392     1.0000 0.77650  0.75307  0.89899  Biso   1.000  C
  H707     1.0000 0.79311  0.70447  0.95159  Biso   1.000  H
  H708     1.0000 0.80789  0.77536  0.95580  Biso   1.000  H
  H709     1.0000 0.71159  0.81348  0.92869  Biso   1.000  H
  H710     1.0000 0.69770  0.80749  0.87969  Biso   1.000  H
  H711     1.0000 0.80329  0.78367  0.88181  Biso   1.000  H
  H712     1.0000 0.77200  0.71109  0.88331  Biso   1.000  H
