data_image0
_cell_length_a       24.242
_cell_length_b       24.242
_cell_length_c       24.242
_cell_angle_alpha    90
_cell_angle_beta     90
_cell_angle_gamma    90

_symmetry_space_group_name_H-M    "P 1"
_symmetry_int_tables_number       1

loop_
  _symmetry_equiv_pos_as_xyz
  'x, y, z'

loop_
  _atom_site_label
  _atom_site_occupancy
  _atom_site_fract_x
  _atom_site_fract_y
  _atom_site_fract_z
  _atom_site_thermal_displace_type
  _atom_site_B_iso_or_equiv
  _atom_site_type_symbol
  C1       1.0000 0.30851  0.11439  0.13279  Biso   1.000  C
  C2       1.0000 0.34040  0.10061  0.17841  Biso   1.000  C
  C3       1.0000 0.32159  0.15960  0.10061  Biso   1.000  C
  H1       1.0000 0.27791  0.09290  0.12392  Biso   1.000  H
  C4       1.0000 0.38561  0.13279  0.19149  Biso   1.000  C
  C5       1.0000 0.32671  0.05309  0.21310  Biso   1.000  C
  C6       1.0000 0.36721  0.19149  0.11439  Biso   1.000  C
  C7       1.0000 0.28690  0.17329  0.05309  Biso   1.000  C
  C8       1.0000 0.39939  0.17841  0.15960  Biso   1.000  C
  H2       1.0000 0.40710  0.12392  0.22209  Biso   1.000  H
  N1       1.0000 0.29012  0.01761  0.20068  Biso   1.000  N
  H3       1.0000 0.34580  0.04859  0.24602  Biso   1.000  H
  H4       1.0000 0.37608  0.22209  0.09290  Biso   1.000  H
  N2       1.0000 0.29932  0.20988  0.01761  Biso   1.000  N
  H5       1.0000 0.25398  0.15420  0.04859  Biso   1.000  H
  C9       1.0000 0.44691  0.21310  0.17329  Biso   1.000  C
  C10      1.0000 0.27951  0.97360  0.24012  Biso   1.000  C
  C11      1.0000 0.25988  0.22049  0.97360  Biso   1.000  C
  N3       1.0000 0.48239  0.20068  0.20988  Biso   1.000  N
  H6       1.0000 0.45141  0.24602  0.15420  Biso   1.000  H
  C12      1.0000 0.22049  0.97360  0.25988  Biso   1.000  C
  H7       1.0000 0.30410  0.97822  0.27188  Biso   1.000  H
  C13      1.0000 0.28690  0.91688  0.21690  Biso   1.000  C
  C14      1.0000 0.24012  0.27951  0.97360  Biso   1.000  C
  H8       1.0000 0.22812  0.19590  0.97822  Biso   1.000  H
  C15      1.0000 0.28310  0.21310  0.91688  Biso   1.000  C
  C16      1.0000 0.52640  0.24012  0.22049  Biso   1.000  C
  N4       1.0000 0.20988  0.01761  0.29932  Biso   1.000  N
  H9       1.0000 0.19590  0.97822  0.22812  Biso   1.000  H
  C17      1.0000 0.21310  0.91688  0.28310  Biso   1.000  C
  C18      1.0000 0.25002  0.88029  0.25002  Biso   1.000  C
  H10      1.0000 0.27659  0.91601  0.17829  Biso   1.000  H
  H11      1.0000 0.32510  0.90508  0.22032  Biso   1.000  H
  N5       1.0000 0.20068  0.29012  0.01761  Biso   1.000  N
  H12      1.0000 0.27188  0.30410  0.97822  Biso   1.000  H
  C19      1.0000 0.21690  0.28690  0.91688  Biso   1.000  C
  C20      1.0000 0.25002  0.25002  0.88029  Biso   1.000  C
  H13      1.0000 0.32171  0.22341  0.91601  Biso   1.000  H
  H14      1.0000 0.27968  0.17490  0.90508  Biso   1.000  H
  C21      1.0000 0.52640  0.25988  0.27951  Biso   1.000  C
  H15      1.0000 0.52178  0.27188  0.19590  Biso   1.000  H
  C22      1.0000 0.58312  0.21690  0.21310  Biso   1.000  C
  C23      1.0000 0.17329  0.05309  0.28690  Biso   1.000  C
  H16      1.0000 0.22341  0.91601  0.32171  Biso   1.000  H
  H17      1.0000 0.17490  0.90508  0.27968  Biso   1.000  H
  H18      1.0000 0.22828  0.85690  0.22581  Biso   1.000  H
  H19      1.0000 0.27172  0.85690  0.27419  Biso   1.000  H
  C24      1.0000 0.21310  0.32671  0.05309  Biso   1.000  C
  H20      1.0000 0.17829  0.27659  0.91601  Biso   1.000  H
  H21      1.0000 0.22032  0.32510  0.90508  Biso   1.000  H
  H22      1.0000 0.27419  0.27172  0.85690  Biso   1.000  H
  H23      1.0000 0.22581  0.22828  0.85690  Biso   1.000  H
  N6       1.0000 0.48239  0.29932  0.29012  Biso   1.000  N
  H24      1.0000 0.52178  0.22812  0.30410  Biso   1.000  H
  C25      1.0000 0.58312  0.28310  0.28690  Biso   1.000  C
  C26      1.0000 0.61971  0.25002  0.25002  Biso   1.000  C
  H25      1.0000 0.58399  0.17829  0.22341  Biso   1.000  H
  H26      1.0000 0.59492  0.22032  0.17490  Biso   1.000  H
  C27      1.0000 0.15960  0.10061  0.32159  Biso   1.000  C
  H27      1.0000 0.15420  0.04859  0.25398  Biso   1.000  H
  C28      1.0000 0.17841  0.34040  0.10061  Biso   1.000  C
  H28      1.0000 0.24602  0.34580  0.04859  Biso   1.000  H
  C29      1.0000 0.44691  0.28690  0.32671  Biso   1.000  C
  H29      1.0000 0.58399  0.32171  0.27659  Biso   1.000  H
  H30      1.0000 0.59492  0.27968  0.32510  Biso   1.000  H
  H31      1.0000 0.64310  0.22581  0.27172  Biso   1.000  H
  H32      1.0000 0.64310  0.27419  0.22828  Biso   1.000  H
  C30      1.0000 0.19149  0.11439  0.36721  Biso   1.000  C
  C31      1.0000 0.11439  0.13279  0.30851  Biso   1.000  C
  C32      1.0000 0.13279  0.30851  0.11439  Biso   1.000  C
  C33      1.0000 0.19149  0.38561  0.13279  Biso   1.000  C
  C34      1.0000 0.39939  0.32159  0.34040  Biso   1.000  C
  H33      1.0000 0.45141  0.25398  0.34580  Biso   1.000  H
  H34      1.0000 0.22209  0.09290  0.37608  Biso   1.000  H
  C35      1.0000 0.17841  0.15960  0.39939  Biso   1.000  C
  C36      1.0000 0.10061  0.17841  0.34040  Biso   1.000  C
  H35      1.0000 0.09290  0.12392  0.27791  Biso   1.000  H
  H36      1.0000 0.12392  0.27791  0.09290  Biso   1.000  H
  C37      1.0000 0.10061  0.32159  0.15960  Biso   1.000  C
  H37      1.0000 0.22209  0.40710  0.12392  Biso   1.000  H
  C38      1.0000 0.15960  0.39939  0.17841  Biso   1.000  C
  C39      1.0000 0.36721  0.30851  0.38561  Biso   1.000  C
  C40      1.0000 0.38561  0.36721  0.30851  Biso   1.000  C
  C41      1.0000 0.13279  0.19149  0.38561  Biso   1.000  C
  C42      1.0000 0.21310  0.17329  0.44691  Biso   1.000  C
  C43      1.0000 0.05309  0.21310  0.32671  Biso   1.000  C
  C44      1.0000 0.05309  0.28690  0.17329  Biso   1.000  C
  C45      1.0000 0.11439  0.36721  0.19149  Biso   1.000  C
  C46      1.0000 0.17329  0.44691  0.21310  Biso   1.000  C
  C47      1.0000 0.32159  0.34040  0.39939  Biso   1.000  C
  H38      1.0000 0.37608  0.27791  0.40710  Biso   1.000  H
  H39      1.0000 0.40710  0.37608  0.27791  Biso   1.000  H
  C48      1.0000 0.34040  0.39939  0.32159  Biso   1.000  C
  H40      1.0000 0.12392  0.22209  0.40710  Biso   1.000  H
  N7       1.0000 0.20068  0.20988  0.48239  Biso   1.000  N
  H41      1.0000 0.24602  0.15420  0.45141  Biso   1.000  H
  N8       1.0000 0.01761  0.20068  0.29012  Biso   1.000  N
  H42      1.0000 0.04859  0.24602  0.34580  Biso   1.000  H
  N9       1.0000 0.01761  0.29932  0.20988  Biso   1.000  N
  H43      1.0000 0.04859  0.25398  0.15420  Biso   1.000  H
  H44      1.0000 0.09290  0.37608  0.22209  Biso   1.000  H
  N10      1.0000 0.20988  0.48239  0.20068  Biso   1.000  N
  H45      1.0000 0.15420  0.45141  0.24602  Biso   1.000  H
  C49      1.0000 0.30851  0.38561  0.36721  Biso   1.000  C
  C50      1.0000 0.28690  0.32671  0.44691  Biso   1.000  C
  C51      1.0000 0.32671  0.44691  0.28690  Biso   1.000  C
  C52      1.0000 0.24012  0.22049  0.52640  Biso   1.000  C
  C53      1.0000 0.97360  0.24012  0.27951  Biso   1.000  C
  C54      1.0000 0.97360  0.25988  0.22049  Biso   1.000  C
  C55      1.0000 0.22049  0.52640  0.24012  Biso   1.000  C
  H46      1.0000 0.27791  0.40710  0.37608  Biso   1.000  H
  N11      1.0000 0.29932  0.29012  0.48239  Biso   1.000  N
  H47      1.0000 0.25398  0.34580  0.45141  Biso   1.000  H
  N12      1.0000 0.29012  0.48239  0.29932  Biso   1.000  N
  H48      1.0000 0.34580  0.45141  0.25398  Biso   1.000  H
  C56      1.0000 0.25988  0.27951  0.52640  Biso   1.000  C
  H49      1.0000 0.27188  0.19590  0.52178  Biso   1.000  H
  C57      1.0000 0.21690  0.21310  0.58312  Biso   1.000  C
  H50      1.0000 0.97822  0.27188  0.30410  Biso   1.000  H
  C58      1.0000 0.91688  0.21690  0.28690  Biso   1.000  C
  H51      1.0000 0.97822  0.22812  0.19590  Biso   1.000  H
  C59      1.0000 0.91688  0.28310  0.21310  Biso   1.000  C
  C60      1.0000 0.27951  0.52640  0.25988  Biso   1.000  C
  H52      1.0000 0.19590  0.52178  0.27188  Biso   1.000  H
  C61      1.0000 0.21310  0.58312  0.21690  Biso   1.000  C
  H53      1.0000 0.22812  0.30410  0.52178  Biso   1.000  H
  C62      1.0000 0.28310  0.28690  0.58312  Biso   1.000  C
  C63      1.0000 0.25002  0.25002  0.61971  Biso   1.000  C
  H54      1.0000 0.17829  0.22341  0.58399  Biso   1.000  H
  H55      1.0000 0.22032  0.17490  0.59492  Biso   1.000  H
  H56      1.0000 0.91601  0.17829  0.27659  Biso   1.000  H
  H57      1.0000 0.90508  0.22032  0.32510  Biso   1.000  H
  C64      1.0000 0.88029  0.25002  0.25002  Biso   1.000  C
  H58      1.0000 0.91601  0.32171  0.22341  Biso   1.000  H
  H59      1.0000 0.90508  0.27968  0.17490  Biso   1.000  H
  H60      1.0000 0.30410  0.52178  0.22812  Biso   1.000  H
  C65      1.0000 0.28690  0.58312  0.28310  Biso   1.000  C
  C66      1.0000 0.25002  0.61971  0.25002  Biso   1.000  C
  H61      1.0000 0.22341  0.58399  0.17829  Biso   1.000  H
  H62      1.0000 0.17490  0.59492  0.22032  Biso   1.000  H
  H63      1.0000 0.32171  0.27659  0.58399  Biso   1.000  H
  H64      1.0000 0.27968  0.32510  0.59492  Biso   1.000  H
  H65      1.0000 0.27419  0.22828  0.64310  Biso   1.000  H
  H66      1.0000 0.22581  0.27172  0.64310  Biso   1.000  H
  H67      1.0000 0.85690  0.27419  0.27172  Biso   1.000  H
  H68      1.0000 0.85690  0.22581  0.22828  Biso   1.000  H
  H69      1.0000 0.27659  0.58399  0.32171  Biso   1.000  H
  H70      1.0000 0.32510  0.59492  0.27968  Biso   1.000  H
  H71      1.0000 0.22828  0.64310  0.27419  Biso   1.000  H
  H72      1.0000 0.27172  0.64310  0.22581  Biso   1.000  H
  C67      1.0000 0.19689  0.07669  0.96308  Biso   1.000  C
  N13      1.0000 0.23241  0.04010  0.95071  Biso   1.000  N
  C68      1.0000 0.14941  0.09038  0.92839  Biso   1.000  C
  H73      1.0000 0.20139  0.09578  0.99600  Biso   1.000  H
  C69      1.0000 0.27638  0.02949  0.99010  Biso   1.000  C
  C70      1.0000 0.11719  0.13559  0.94151  Biso   1.000  C
  C71      1.0000 0.13559  0.05849  0.88281  Biso   1.000  C
  C72      1.0000 0.33310  0.03692  0.96692  Biso   1.000  C
  C73      1.0000 0.27638  0.97051  0.00990  Biso   1.000  C
  H74      1.0000 0.27180  0.05408  0.02190  Biso   1.000  H
  H75      1.0000 0.12610  0.15708  0.97211  Biso   1.000  H
  C74      1.0000 0.07161  0.14941  0.90962  Biso   1.000  C
  H76      1.0000 0.15708  0.02789  0.87390  Biso   1.000  H
  C75      1.0000 0.09038  0.07161  0.85059  Biso   1.000  C
  C76      1.0000 0.36969  0.00000  0.00000  Biso   1.000  C
  H77      1.0000 0.33401  0.02661  0.92831  Biso   1.000  H
  H78      1.0000 0.34490  0.07512  0.97030  Biso   1.000  H
  C77      1.0000 0.33310  0.96308  0.03308  Biso   1.000  C
  H79      1.0000 0.27180  0.94592  0.97810  Biso   1.000  H
  N14      1.0000 0.23241  0.95990  0.04929  Biso   1.000  N
  C78      1.0000 0.05849  0.11719  0.86441  Biso   1.000  C
  C79      1.0000 0.03692  0.19689  0.92331  Biso   1.000  C
  C80      1.0000 0.07669  0.03692  0.80311  Biso   1.000  C
  H80      1.0000 0.39312  0.02170  0.02421  Biso   1.000  H
  H81      1.0000 0.39312  0.97830  0.97579  Biso   1.000  H
  H82      1.0000 0.33401  0.97339  0.07169  Biso   1.000  H
  H83      1.0000 0.34490  0.92488  0.02970  Biso   1.000  H
  C81      1.0000 0.19689  0.92331  0.03692  Biso   1.000  C
  H84      1.0000 0.02789  0.12610  0.84292  Biso   1.000  H
  N15      1.0000 0.04929  0.23241  0.95990  Biso   1.000  N
  H85      1.0000 0.00400  0.20139  0.90422  Biso   1.000  H
  N16      1.0000 0.04010  0.04929  0.76759  Biso   1.000  N
  H86      1.0000 0.09578  0.00400  0.79861  Biso   1.000  H
  C82      1.0000 0.14941  0.90962  0.07161  Biso   1.000  C
  H87      1.0000 0.20139  0.90422  0.00400  Biso   1.000  H
  C83      1.0000 0.00990  0.27638  0.97051  Biso   1.000  C
  C84      1.0000 0.02949  0.00990  0.72362  Biso   1.000  C
  C85      1.0000 0.11719  0.86441  0.05849  Biso   1.000  C
  C86      1.0000 0.13559  0.94151  0.11719  Biso   1.000  C
  H88      1.0000 0.97810  0.27180  0.94592  Biso   1.000  H
  C87      1.0000 0.99010  0.27638  0.02949  Biso   1.000  C
  C88      1.0000 0.03308  0.33310  0.96308  Biso   1.000  C
  C89      1.0000 0.97051  0.99010  0.72362  Biso   1.000  C
  H89      1.0000 0.05408  0.97810  0.72820  Biso   1.000  H
  C90      1.0000 0.03692  0.03308  0.66690  Biso   1.000  C
  H90      1.0000 0.12610  0.84292  0.02789  Biso   1.000  H
  C91      1.0000 0.07161  0.85059  0.09038  Biso   1.000  C
  H91      1.0000 0.15708  0.97211  0.12610  Biso   1.000  H
  C92      1.0000 0.09038  0.92839  0.14941  Biso   1.000  C
  H92      1.0000 0.02190  0.27180  0.05408  Biso   1.000  H
  N17      1.0000 0.95071  0.23241  0.04010  Biso   1.000  N
  C93      1.0000 0.96692  0.33310  0.03692  Biso   1.000  C
  C94      1.0000 0.00000  0.36969  0.00000  Biso   1.000  C
  H93      1.0000 0.07169  0.33401  0.97339  Biso   1.000  H
  H94      1.0000 0.02970  0.34490  0.92488  Biso   1.000  H
  N18      1.0000 0.95990  0.95071  0.76759  Biso   1.000  N
  C95      1.0000 0.96308  0.96692  0.66690  Biso   1.000  C
  H95      1.0000 0.94592  0.02190  0.72820  Biso   1.000  H
  H96      1.0000 0.02661  0.07169  0.66599  Biso   1.000  H
  H97      1.0000 0.07512  0.02970  0.65510  Biso   1.000  H
  C96      1.0000 0.00000  0.00000  0.63031  Biso   1.000  C
  C97      1.0000 0.05849  0.88281  0.13559  Biso   1.000  C
  C98      1.0000 0.03692  0.80311  0.07669  Biso   1.000  C
  C99      1.0000 0.07669  0.96308  0.19689  Biso   1.000  C
  C100     1.0000 0.96308  0.19689  0.07669  Biso   1.000  C
  H98      1.0000 0.92831  0.33401  0.02661  Biso   1.000  H
  H99      1.0000 0.97030  0.34490  0.07512  Biso   1.000  H
  H100     1.0000 0.02421  0.39312  0.02170  Biso   1.000  H
  H101     1.0000 0.97579  0.39312  0.97830  Biso   1.000  H
  C101     1.0000 0.92331  0.96308  0.80311  Biso   1.000  C
  H102     1.0000 0.97339  0.92831  0.66599  Biso   1.000  H
  H103     1.0000 0.92488  0.97030  0.65510  Biso   1.000  H
  H104     1.0000 0.97830  0.02421  0.60688  Biso   1.000  H
  H105     1.0000 0.02170  0.97579  0.60688  Biso   1.000  H
  H106     1.0000 0.02789  0.87390  0.15708  Biso   1.000  H
  N19      1.0000 0.04929  0.76759  0.04010  Biso   1.000  N
  H107     1.0000 0.00400  0.79861  0.09578  Biso   1.000  H
  N20      1.0000 0.04010  0.95071  0.23241  Biso   1.000  N
  H108     1.0000 0.09578  0.99600  0.20139  Biso   1.000  H
  C102     1.0000 0.92839  0.14941  0.09038  Biso   1.000  C
  H109     1.0000 0.99600  0.20139  0.09578  Biso   1.000  H
  C103     1.0000 0.90962  0.92839  0.85059  Biso   1.000  C
  H110     1.0000 0.90422  0.99600  0.79861  Biso   1.000  H
  C104     1.0000 0.00990  0.72362  0.02949  Biso   1.000  C
  C105     1.0000 0.02949  0.99010  0.27638  Biso   1.000  C
  C106     1.0000 0.94151  0.11719  0.13559  Biso   1.000  C
  C107     1.0000 0.88281  0.13559  0.05849  Biso   1.000  C
  C108     1.0000 0.94151  0.88281  0.86441  Biso   1.000  C
  C109     1.0000 0.86441  0.94151  0.88281  Biso   1.000  C
  C110     1.0000 0.99010  0.72362  0.97051  Biso   1.000  C
  H111     1.0000 0.97810  0.72820  0.05408  Biso   1.000  H
  C111     1.0000 0.03308  0.66690  0.03692  Biso   1.000  C
  H112     1.0000 0.05408  0.02190  0.27180  Biso   1.000  H
  C112     1.0000 0.97051  0.00990  0.27638  Biso   1.000  C
  C113     1.0000 0.03692  0.96692  0.33310  Biso   1.000  C
  C114     1.0000 0.90962  0.07161  0.14941  Biso   1.000  C
  H113     1.0000 0.97211  0.12610  0.15708  Biso   1.000  H
  C115     1.0000 0.85059  0.09038  0.07161  Biso   1.000  C
  H114     1.0000 0.87390  0.15708  0.02789  Biso   1.000  H
  C116     1.0000 0.92839  0.85059  0.90962  Biso   1.000  C
  H115     1.0000 0.97211  0.87390  0.84292  Biso   1.000  H
  C117     1.0000 0.85059  0.90962  0.92839  Biso   1.000  C
  H116     1.0000 0.84292  0.97211  0.87390  Biso   1.000  H
  N21      1.0000 0.95071  0.76759  0.95990  Biso   1.000  N
  C118     1.0000 0.96692  0.66690  0.96308  Biso   1.000  C
  H117     1.0000 0.02190  0.72820  0.94592  Biso   1.000  H
  H118     1.0000 0.07169  0.66599  0.02661  Biso   1.000  H
  H119     1.0000 0.02970  0.65510  0.07512  Biso   1.000  H
  C119     1.0000 0.00000  0.63031  0.00000  Biso   1.000  C
  H120     1.0000 0.94592  0.97810  0.27180  Biso   1.000  H
  N22      1.0000 0.95990  0.04929  0.23241  Biso   1.000  N
  C120     1.0000 0.96308  0.03308  0.33310  Biso   1.000  C
  C121     1.0000 0.00000  0.00000  0.36969  Biso   1.000  C
  H121     1.0000 0.02661  0.92831  0.33401  Biso   1.000  H
  H122     1.0000 0.07512  0.97030  0.34490  Biso   1.000  H
  C122     1.0000 0.92331  0.03692  0.19689  Biso   1.000  C
  C123     1.0000 0.86441  0.05849  0.11719  Biso   1.000  C
  C124     1.0000 0.80311  0.07669  0.03692  Biso   1.000  C
  C125     1.0000 0.96308  0.80311  0.92331  Biso   1.000  C
  C126     1.0000 0.88281  0.86441  0.94151  Biso   1.000  C
  C127     1.0000 0.80311  0.92331  0.96308  Biso   1.000  C
  H123     1.0000 0.92831  0.66599  0.97339  Biso   1.000  H
  H124     1.0000 0.97030  0.65510  0.92488  Biso   1.000  H
  H125     1.0000 0.97579  0.60688  0.02170  Biso   1.000  H
  H126     1.0000 0.02421  0.60688  0.97830  Biso   1.000  H
  H127     1.0000 0.97339  0.07169  0.33401  Biso   1.000  H
  H128     1.0000 0.92488  0.02970  0.34490  Biso   1.000  H
  H129     1.0000 0.02170  0.02421  0.39312  Biso   1.000  H
  H130     1.0000 0.97830  0.97579  0.39312  Biso   1.000  H
  H131     1.0000 0.90422  0.00400  0.20139  Biso   1.000  H
  H132     1.0000 0.84292  0.02789  0.12610  Biso   1.000  H
  N23      1.0000 0.76759  0.04010  0.04929  Biso   1.000  N
  H133     1.0000 0.79861  0.09578  0.00400  Biso   1.000  H
  H134     1.0000 0.99600  0.79861  0.90422  Biso   1.000  H
  H135     1.0000 0.87390  0.84292  0.97211  Biso   1.000  H
  N24      1.0000 0.76759  0.95990  0.95071  Biso   1.000  N
  H136     1.0000 0.79861  0.90422  0.99600  Biso   1.000  H
  C128     1.0000 0.72362  0.02949  0.00990  Biso   1.000  C
  C129     1.0000 0.72362  0.97051  0.99010  Biso   1.000  C
  H137     1.0000 0.72820  0.05408  0.97810  Biso   1.000  H
  C130     1.0000 0.66690  0.03692  0.03308  Biso   1.000  C
  C131     1.0000 0.66690  0.96308  0.96692  Biso   1.000  C
  H138     1.0000 0.72820  0.94592  0.02190  Biso   1.000  H
  C132     1.0000 0.63031  0.00000  0.00000  Biso   1.000  C
  H139     1.0000 0.66599  0.02661  0.07169  Biso   1.000  H
  H140     1.0000 0.65510  0.07512  0.02970  Biso   1.000  H
  H141     1.0000 0.66599  0.97339  0.92831  Biso   1.000  H
  H142     1.0000 0.65510  0.92488  0.97030  Biso   1.000  H
  H143     1.0000 0.60688  0.97830  0.02421  Biso   1.000  H
  H144     1.0000 0.60688  0.02170  0.97579  Biso   1.000  H
  C133     1.0000 0.19689  0.07669  0.96308  Biso   1.000  C
  N25      1.0000 0.23241  0.04010  0.95071  Biso   1.000  N
  C134     1.0000 0.14941  0.09038  0.92839  Biso   1.000  C
  H145     1.0000 0.20139  0.09578  0.99600  Biso   1.000  H
  C135     1.0000 0.27638  0.02949  0.99010  Biso   1.000  C
  C136     1.0000 0.11719  0.13559  0.94151  Biso   1.000  C
  C137     1.0000 0.13559  0.05849  0.88281  Biso   1.000  C
  C138     1.0000 0.33310  0.03692  0.96692  Biso   1.000  C
  C139     1.0000 0.27638  0.97051  0.00990  Biso   1.000  C
  H146     1.0000 0.27180  0.05408  0.02190  Biso   1.000  H
  H147     1.0000 0.12610  0.15708  0.97211  Biso   1.000  H
  C140     1.0000 0.07161  0.14941  0.90962  Biso   1.000  C
  H148     1.0000 0.15708  0.02789  0.87390  Biso   1.000  H
  C141     1.0000 0.09038  0.07161  0.85059  Biso   1.000  C
  C142     1.0000 0.36969  0.00000  0.00000  Biso   1.000  C
  H149     1.0000 0.33401  0.02661  0.92831  Biso   1.000  H
  H150     1.0000 0.34490  0.07512  0.97030  Biso   1.000  H
  C143     1.0000 0.33310  0.96308  0.03308  Biso   1.000  C
  H151     1.0000 0.27180  0.94592  0.97810  Biso   1.000  H
  N26      1.0000 0.23241  0.95990  0.04929  Biso   1.000  N
  C144     1.0000 0.05849  0.11719  0.86441  Biso   1.000  C
  C145     1.0000 0.03692  0.19689  0.92331  Biso   1.000  C
  C146     1.0000 0.07669  0.03692  0.80311  Biso   1.000  C
  H152     1.0000 0.39312  0.02170  0.02421  Biso   1.000  H
  H153     1.0000 0.39312  0.97830  0.97579  Biso   1.000  H
  H154     1.0000 0.33401  0.97339  0.07169  Biso   1.000  H
  H155     1.0000 0.34490  0.92488  0.02970  Biso   1.000  H
  C147     1.0000 0.19689  0.92331  0.03692  Biso   1.000  C
  H156     1.0000 0.02789  0.12610  0.84292  Biso   1.000  H
  N27      1.0000 0.04929  0.23241  0.95990  Biso   1.000  N
  H157     1.0000 0.00400  0.20139  0.90422  Biso   1.000  H
  N28      1.0000 0.04010  0.04929  0.76759  Biso   1.000  N
  H158     1.0000 0.09578  0.00400  0.79861  Biso   1.000  H
  C148     1.0000 0.14941  0.90962  0.07161  Biso   1.000  C
  H159     1.0000 0.20139  0.90422  0.00400  Biso   1.000  H
  C149     1.0000 0.00990  0.27638  0.97051  Biso   1.000  C
  C150     1.0000 0.02949  0.00990  0.72362  Biso   1.000  C
  C151     1.0000 0.11719  0.86441  0.05849  Biso   1.000  C
  C152     1.0000 0.13559  0.94151  0.11719  Biso   1.000  C
  H160     1.0000 0.97810  0.27180  0.94592  Biso   1.000  H
  C153     1.0000 0.99010  0.27638  0.02949  Biso   1.000  C
  C154     1.0000 0.03308  0.33310  0.96308  Biso   1.000  C
  C155     1.0000 0.97051  0.99010  0.72362  Biso   1.000  C
  H161     1.0000 0.05408  0.97810  0.72820  Biso   1.000  H
  C156     1.0000 0.03692  0.03308  0.66690  Biso   1.000  C
  H162     1.0000 0.12610  0.84292  0.02789  Biso   1.000  H
  C157     1.0000 0.07161  0.85059  0.09038  Biso   1.000  C
  H163     1.0000 0.15708  0.97211  0.12610  Biso   1.000  H
  C158     1.0000 0.09038  0.92839  0.14941  Biso   1.000  C
  H164     1.0000 0.02190  0.27180  0.05408  Biso   1.000  H
  N29      1.0000 0.95071  0.23241  0.04010  Biso   1.000  N
  C159     1.0000 0.96692  0.33310  0.03692  Biso   1.000  C
  C160     1.0000 0.00000  0.36969  0.00000  Biso   1.000  C
  H165     1.0000 0.07169  0.33401  0.97339  Biso   1.000  H
  H166     1.0000 0.02970  0.34490  0.92488  Biso   1.000  H
  N30      1.0000 0.95990  0.95071  0.76759  Biso   1.000  N
  C161     1.0000 0.96308  0.96692  0.66690  Biso   1.000  C
  H167     1.0000 0.94592  0.02190  0.72820  Biso   1.000  H
  H168     1.0000 0.02661  0.07169  0.66599  Biso   1.000  H
  H169     1.0000 0.07512  0.02970  0.65510  Biso   1.000  H
  C162     1.0000 0.00000  0.00000  0.63031  Biso   1.000  C
  C163     1.0000 0.05849  0.88281  0.13559  Biso   1.000  C
  C164     1.0000 0.03692  0.80311  0.07669  Biso   1.000  C
  C165     1.0000 0.07669  0.96308  0.19689  Biso   1.000  C
  C166     1.0000 0.96308  0.19689  0.07669  Biso   1.000  C
  H170     1.0000 0.92831  0.33401  0.02661  Biso   1.000  H
  H171     1.0000 0.97030  0.34490  0.07512  Biso   1.000  H
  H172     1.0000 0.02421  0.39312  0.02170  Biso   1.000  H
  H173     1.0000 0.97579  0.39312  0.97830  Biso   1.000  H
  C167     1.0000 0.92331  0.96308  0.80311  Biso   1.000  C
  H174     1.0000 0.97339  0.92831  0.66599  Biso   1.000  H
  H175     1.0000 0.92488  0.97030  0.65510  Biso   1.000  H
  H176     1.0000 0.97830  0.02421  0.60688  Biso   1.000  H
  H177     1.0000 0.02170  0.97579  0.60688  Biso   1.000  H
  H178     1.0000 0.02789  0.87390  0.15708  Biso   1.000  H
  N31      1.0000 0.04929  0.76759  0.04010  Biso   1.000  N
  H179     1.0000 0.00400  0.79861  0.09578  Biso   1.000  H
  N32      1.0000 0.04010  0.95071  0.23241  Biso   1.000  N
  H180     1.0000 0.09578  0.99600  0.20139  Biso   1.000  H
  C168     1.0000 0.92839  0.14941  0.09038  Biso   1.000  C
  H181     1.0000 0.99600  0.20139  0.09578  Biso   1.000  H
  C169     1.0000 0.90962  0.92839  0.85059  Biso   1.000  C
  H182     1.0000 0.90422  0.99600  0.79861  Biso   1.000  H
  C170     1.0000 0.00990  0.72362  0.02949  Biso   1.000  C
  C171     1.0000 0.02949  0.99010  0.27638  Biso   1.000  C
  C172     1.0000 0.94151  0.11719  0.13559  Biso   1.000  C
  C173     1.0000 0.88281  0.13559  0.05849  Biso   1.000  C
  C174     1.0000 0.94151  0.88281  0.86441  Biso   1.000  C
  C175     1.0000 0.86441  0.94151  0.88281  Biso   1.000  C
  C176     1.0000 0.99010  0.72362  0.97051  Biso   1.000  C
  H183     1.0000 0.97810  0.72820  0.05408  Biso   1.000  H
  C177     1.0000 0.03308  0.66690  0.03692  Biso   1.000  C
  H184     1.0000 0.05408  0.02190  0.27180  Biso   1.000  H
  C178     1.0000 0.97051  0.00990  0.27638  Biso   1.000  C
  C179     1.0000 0.03692  0.96692  0.33310  Biso   1.000  C
  C180     1.0000 0.90962  0.07161  0.14941  Biso   1.000  C
  H185     1.0000 0.97211  0.12610  0.15708  Biso   1.000  H
  C181     1.0000 0.85059  0.09038  0.07161  Biso   1.000  C
  H186     1.0000 0.87390  0.15708  0.02789  Biso   1.000  H
  C182     1.0000 0.92839  0.85059  0.90962  Biso   1.000  C
  H187     1.0000 0.97211  0.87390  0.84292  Biso   1.000  H
  C183     1.0000 0.85059  0.90962  0.92839  Biso   1.000  C
  H188     1.0000 0.84292  0.97211  0.87390  Biso   1.000  H
  N33      1.0000 0.95071  0.76759  0.95990  Biso   1.000  N
  C184     1.0000 0.96692  0.66690  0.96308  Biso   1.000  C
  H189     1.0000 0.02190  0.72820  0.94592  Biso   1.000  H
  H190     1.0000 0.07169  0.66599  0.02661  Biso   1.000  H
  H191     1.0000 0.02970  0.65510  0.07512  Biso   1.000  H
  C185     1.0000 0.00000  0.63031  0.00000  Biso   1.000  C
  H192     1.0000 0.94592  0.97810  0.27180  Biso   1.000  H
  N34      1.0000 0.95990  0.04929  0.23241  Biso   1.000  N
  C186     1.0000 0.96308  0.03308  0.33310  Biso   1.000  C
  C187     1.0000 0.00000  0.00000  0.36969  Biso   1.000  C
  H193     1.0000 0.02661  0.92831  0.33401  Biso   1.000  H
  H194     1.0000 0.07512  0.97030  0.34490  Biso   1.000  H
  C188     1.0000 0.92331  0.03692  0.19689  Biso   1.000  C
  C189     1.0000 0.86441  0.05849  0.11719  Biso   1.000  C
  C190     1.0000 0.80311  0.07669  0.03692  Biso   1.000  C
  C191     1.0000 0.96308  0.80311  0.92331  Biso   1.000  C
  C192     1.0000 0.88281  0.86441  0.94151  Biso   1.000  C
  C193     1.0000 0.80311  0.92331  0.96308  Biso   1.000  C
  H195     1.0000 0.92831  0.66599  0.97339  Biso   1.000  H
  H196     1.0000 0.97030  0.65510  0.92488  Biso   1.000  H
  H197     1.0000 0.97579  0.60688  0.02170  Biso   1.000  H
  H198     1.0000 0.02421  0.60688  0.97830  Biso   1.000  H
  H199     1.0000 0.97339  0.07169  0.33401  Biso   1.000  H
  H200     1.0000 0.92488  0.02970  0.34490  Biso   1.000  H
  H201     1.0000 0.02170  0.02421  0.39312  Biso   1.000  H
  H202     1.0000 0.97830  0.97579  0.39312  Biso   1.000  H
  H203     1.0000 0.90422  0.00400  0.20139  Biso   1.000  H
  H204     1.0000 0.84292  0.02789  0.12610  Biso   1.000  H
  N35      1.0000 0.76759  0.04010  0.04929  Biso   1.000  N
  H205     1.0000 0.79861  0.09578  0.00400  Biso   1.000  H
  H206     1.0000 0.99600  0.79861  0.90422  Biso   1.000  H
  H207     1.0000 0.87390  0.84292  0.97211  Biso   1.000  H
  N36      1.0000 0.76759  0.95990  0.95071  Biso   1.000  N
  H208     1.0000 0.79861  0.90422  0.99600  Biso   1.000  H
  C194     1.0000 0.72362  0.02949  0.00990  Biso   1.000  C
  C195     1.0000 0.72362  0.97051  0.99010  Biso   1.000  C
  H209     1.0000 0.72820  0.05408  0.97810  Biso   1.000  H
  C196     1.0000 0.66690  0.03692  0.03308  Biso   1.000  C
  C197     1.0000 0.66690  0.96308  0.96692  Biso   1.000  C
  H210     1.0000 0.72820  0.94592  0.02190  Biso   1.000  H
  C198     1.0000 0.63031  0.00000  0.00000  Biso   1.000  C
  H211     1.0000 0.66599  0.02661  0.07169  Biso   1.000  H
  H212     1.0000 0.65510  0.07512  0.02970  Biso   1.000  H
  H213     1.0000 0.66599  0.97339  0.92831  Biso   1.000  H
  H214     1.0000 0.65510  0.92488  0.97030  Biso   1.000  H
  H215     1.0000 0.60688  0.97830  0.02421  Biso   1.000  H
  H216     1.0000 0.60688  0.02170  0.97579  Biso   1.000  H
  C199     1.0000 0.19689  0.07669  0.96308  Biso   1.000  C
  N37      1.0000 0.23241  0.04010  0.95071  Biso   1.000  N
  C200     1.0000 0.14941  0.09038  0.92839  Biso   1.000  C
  H217     1.0000 0.20139  0.09578  0.99600  Biso   1.000  H
  C201     1.0000 0.27638  0.02949  0.99010  Biso   1.000  C
  C202     1.0000 0.11719  0.13559  0.94151  Biso   1.000  C
  C203     1.0000 0.13559  0.05849  0.88281  Biso   1.000  C
  C204     1.0000 0.33310  0.03692  0.96692  Biso   1.000  C
  C205     1.0000 0.27638  0.97051  0.00990  Biso   1.000  C
  H218     1.0000 0.27180  0.05408  0.02190  Biso   1.000  H
  H219     1.0000 0.12610  0.15708  0.97211  Biso   1.000  H
  C206     1.0000 0.07161  0.14941  0.90962  Biso   1.000  C
  H220     1.0000 0.15708  0.02789  0.87390  Biso   1.000  H
  C207     1.0000 0.09038  0.07161  0.85059  Biso   1.000  C
  C208     1.0000 0.36969  0.00000  0.00000  Biso   1.000  C
  H221     1.0000 0.33401  0.02661  0.92831  Biso   1.000  H
  H222     1.0000 0.34490  0.07512  0.97030  Biso   1.000  H
  C209     1.0000 0.33310  0.96308  0.03308  Biso   1.000  C
  H223     1.0000 0.27180  0.94592  0.97810  Biso   1.000  H
  N38      1.0000 0.23241  0.95990  0.04929  Biso   1.000  N
  C210     1.0000 0.05849  0.11719  0.86441  Biso   1.000  C
  C211     1.0000 0.03692  0.19689  0.92331  Biso   1.000  C
  C212     1.0000 0.07669  0.03692  0.80311  Biso   1.000  C
  H224     1.0000 0.39312  0.02170  0.02421  Biso   1.000  H
  H225     1.0000 0.39312  0.97830  0.97579  Biso   1.000  H
  H226     1.0000 0.33401  0.97339  0.07169  Biso   1.000  H
  H227     1.0000 0.34490  0.92488  0.02970  Biso   1.000  H
  C213     1.0000 0.19689  0.92331  0.03692  Biso   1.000  C
  H228     1.0000 0.02789  0.12610  0.84292  Biso   1.000  H
  N39      1.0000 0.04929  0.23241  0.95990  Biso   1.000  N
  H229     1.0000 0.00400  0.20139  0.90422  Biso   1.000  H
  N40      1.0000 0.04010  0.04929  0.76759  Biso   1.000  N
  H230     1.0000 0.09578  0.00400  0.79861  Biso   1.000  H
  C214     1.0000 0.14941  0.90962  0.07161  Biso   1.000  C
  H231     1.0000 0.20139  0.90422  0.00400  Biso   1.000  H
  C215     1.0000 0.00990  0.27638  0.97051  Biso   1.000  C
  C216     1.0000 0.02949  0.00990  0.72362  Biso   1.000  C
  C217     1.0000 0.11719  0.86441  0.05849  Biso   1.000  C
  C218     1.0000 0.13559  0.94151  0.11719  Biso   1.000  C
  H232     1.0000 0.97810  0.27180  0.94592  Biso   1.000  H
  C219     1.0000 0.99010  0.27638  0.02949  Biso   1.000  C
  C220     1.0000 0.03308  0.33310  0.96308  Biso   1.000  C
  C221     1.0000 0.97051  0.99010  0.72362  Biso   1.000  C
  H233     1.0000 0.05408  0.97810  0.72820  Biso   1.000  H
  C222     1.0000 0.03692  0.03308  0.66690  Biso   1.000  C
  H234     1.0000 0.12610  0.84292  0.02789  Biso   1.000  H
  C223     1.0000 0.07161  0.85059  0.09038  Biso   1.000  C
  H235     1.0000 0.15708  0.97211  0.12610  Biso   1.000  H
  C224     1.0000 0.09038  0.92839  0.14941  Biso   1.000  C
  H236     1.0000 0.02190  0.27180  0.05408  Biso   1.000  H
  N41      1.0000 0.95071  0.23241  0.04010  Biso   1.000  N
  C225     1.0000 0.96692  0.33310  0.03692  Biso   1.000  C
  C226     1.0000 0.00000  0.36969  0.00000  Biso   1.000  C
  H237     1.0000 0.07169  0.33401  0.97339  Biso   1.000  H
  H238     1.0000 0.02970  0.34490  0.92488  Biso   1.000  H
  N42      1.0000 0.95990  0.95071  0.76759  Biso   1.000  N
  C227     1.0000 0.96308  0.96692  0.66690  Biso   1.000  C
  H239     1.0000 0.94592  0.02190  0.72820  Biso   1.000  H
  H240     1.0000 0.02661  0.07169  0.66599  Biso   1.000  H
  H241     1.0000 0.07512  0.02970  0.65510  Biso   1.000  H
  C228     1.0000 0.00000  0.00000  0.63031  Biso   1.000  C
  C229     1.0000 0.05849  0.88281  0.13559  Biso   1.000  C
  C230     1.0000 0.03692  0.80311  0.07669  Biso   1.000  C
  C231     1.0000 0.07669  0.96308  0.19689  Biso   1.000  C
  C232     1.0000 0.96308  0.19689  0.07669  Biso   1.000  C
  H242     1.0000 0.92831  0.33401  0.02661  Biso   1.000  H
  H243     1.0000 0.97030  0.34490  0.07512  Biso   1.000  H
  H244     1.0000 0.02421  0.39312  0.02170  Biso   1.000  H
  H245     1.0000 0.97579  0.39312  0.97830  Biso   1.000  H
  C233     1.0000 0.92331  0.96308  0.80311  Biso   1.000  C
  H246     1.0000 0.97339  0.92831  0.66599  Biso   1.000  H
  H247     1.0000 0.92488  0.97030  0.65510  Biso   1.000  H
  H248     1.0000 0.97830  0.02421  0.60688  Biso   1.000  H
  H249     1.0000 0.02170  0.97579  0.60688  Biso   1.000  H
  H250     1.0000 0.02789  0.87390  0.15708  Biso   1.000  H
  N43      1.0000 0.04929  0.76759  0.04010  Biso   1.000  N
  H251     1.0000 0.00400  0.79861  0.09578  Biso   1.000  H
  N44      1.0000 0.04010  0.95071  0.23241  Biso   1.000  N
  H252     1.0000 0.09578  0.99600  0.20139  Biso   1.000  H
  C234     1.0000 0.92839  0.14941  0.09038  Biso   1.000  C
  H253     1.0000 0.99600  0.20139  0.09578  Biso   1.000  H
  C235     1.0000 0.90962  0.92839  0.85059  Biso   1.000  C
  H254     1.0000 0.90422  0.99600  0.79861  Biso   1.000  H
  C236     1.0000 0.00990  0.72362  0.02949  Biso   1.000  C
  C237     1.0000 0.02949  0.99010  0.27638  Biso   1.000  C
  C238     1.0000 0.94151  0.11719  0.13559  Biso   1.000  C
  C239     1.0000 0.88281  0.13559  0.05849  Biso   1.000  C
  C240     1.0000 0.94151  0.88281  0.86441  Biso   1.000  C
  C241     1.0000 0.86441  0.94151  0.88281  Biso   1.000  C
  C242     1.0000 0.99010  0.72362  0.97051  Biso   1.000  C
  H255     1.0000 0.97810  0.72820  0.05408  Biso   1.000  H
  C243     1.0000 0.03308  0.66690  0.03692  Biso   1.000  C
  H256     1.0000 0.05408  0.02190  0.27180  Biso   1.000  H
  C244     1.0000 0.97051  0.00990  0.27638  Biso   1.000  C
  C245     1.0000 0.03692  0.96692  0.33310  Biso   1.000  C
  C246     1.0000 0.90962  0.07161  0.14941  Biso   1.000  C
  H257     1.0000 0.97211  0.12610  0.15708  Biso   1.000  H
  C247     1.0000 0.85059  0.09038  0.07161  Biso   1.000  C
  H258     1.0000 0.87390  0.15708  0.02789  Biso   1.000  H
  C248     1.0000 0.92839  0.85059  0.90962  Biso   1.000  C
  H259     1.0000 0.97211  0.87390  0.84292  Biso   1.000  H
  C249     1.0000 0.85059  0.90962  0.92839  Biso   1.000  C
  H260     1.0000 0.84292  0.97211  0.87390  Biso   1.000  H
  N45      1.0000 0.95071  0.76759  0.95990  Biso   1.000  N
  C250     1.0000 0.96692  0.66690  0.96308  Biso   1.000  C
  H261     1.0000 0.02190  0.72820  0.94592  Biso   1.000  H
  H262     1.0000 0.07169  0.66599  0.02661  Biso   1.000  H
  H263     1.0000 0.02970  0.65510  0.07512  Biso   1.000  H
  C251     1.0000 0.00000  0.63031  0.00000  Biso   1.000  C
  H264     1.0000 0.94592  0.97810  0.27180  Biso   1.000  H
  N46      1.0000 0.95990  0.04929  0.23241  Biso   1.000  N
  C252     1.0000 0.96308  0.03308  0.33310  Biso   1.000  C
  C253     1.0000 0.00000  0.00000  0.36969  Biso   1.000  C
  H265     1.0000 0.02661  0.92831  0.33401  Biso   1.000  H
  H266     1.0000 0.07512  0.97030  0.34490  Biso   1.000  H
  C254     1.0000 0.92331  0.03692  0.19689  Biso   1.000  C
  C255     1.0000 0.86441  0.05849  0.11719  Biso   1.000  C
  C256     1.0000 0.80311  0.07669  0.03692  Biso   1.000  C
  C257     1.0000 0.96308  0.80311  0.92331  Biso   1.000  C
  C258     1.0000 0.88281  0.86441  0.94151  Biso   1.000  C
  C259     1.0000 0.80311  0.92331  0.96308  Biso   1.000  C
  H267     1.0000 0.92831  0.66599  0.97339  Biso   1.000  H
  H268     1.0000 0.97030  0.65510  0.92488  Biso   1.000  H
  H269     1.0000 0.97579  0.60688  0.02170  Biso   1.000  H
  H270     1.0000 0.02421  0.60688  0.97830  Biso   1.000  H
  H271     1.0000 0.97339  0.07169  0.33401  Biso   1.000  H
  H272     1.0000 0.92488  0.02970  0.34490  Biso   1.000  H
  H273     1.0000 0.02170  0.02421  0.39312  Biso   1.000  H
  H274     1.0000 0.97830  0.97579  0.39312  Biso   1.000  H
  H275     1.0000 0.90422  0.00400  0.20139  Biso   1.000  H
  H276     1.0000 0.84292  0.02789  0.12610  Biso   1.000  H
  N47      1.0000 0.76759  0.04010  0.04929  Biso   1.000  N
  H277     1.0000 0.79861  0.09578  0.00400  Biso   1.000  H
  H278     1.0000 0.99600  0.79861  0.90422  Biso   1.000  H
  H279     1.0000 0.87390  0.84292  0.97211  Biso   1.000  H
  N48      1.0000 0.76759  0.95990  0.95071  Biso   1.000  N
  H280     1.0000 0.79861  0.90422  0.99600  Biso   1.000  H
  C260     1.0000 0.72362  0.02949  0.00990  Biso   1.000  C
  C261     1.0000 0.72362  0.97051  0.99010  Biso   1.000  C
  H281     1.0000 0.72820  0.05408  0.97810  Biso   1.000  H
  C262     1.0000 0.66690  0.03692  0.03308  Biso   1.000  C
  C263     1.0000 0.66690  0.96308  0.96692  Biso   1.000  C
  H282     1.0000 0.72820  0.94592  0.02190  Biso   1.000  H
  C264     1.0000 0.63031  0.00000  0.00000  Biso   1.000  C
  H283     1.0000 0.66599  0.02661  0.07169  Biso   1.000  H
  H284     1.0000 0.65510  0.07512  0.02970  Biso   1.000  H
  H285     1.0000 0.66599  0.97339  0.92831  Biso   1.000  H
  H286     1.0000 0.65510  0.92488  0.97030  Biso   1.000  H
  H287     1.0000 0.60688  0.97830  0.02421  Biso   1.000  H
  H288     1.0000 0.60688  0.02170  0.97579  Biso   1.000  H
  C265     1.0000 0.19689  0.07669  0.96308  Biso   1.000  C
  N49      1.0000 0.23241  0.04010  0.95071  Biso   1.000  N
  C266     1.0000 0.14941  0.09038  0.92839  Biso   1.000  C
  H289     1.0000 0.20139  0.09578  0.99600  Biso   1.000  H
  C267     1.0000 0.27638  0.02949  0.99010  Biso   1.000  C
  C268     1.0000 0.11719  0.13559  0.94151  Biso   1.000  C
  C269     1.0000 0.13559  0.05849  0.88281  Biso   1.000  C
  C270     1.0000 0.33310  0.03692  0.96692  Biso   1.000  C
  C271     1.0000 0.27638  0.97051  0.00990  Biso   1.000  C
  H290     1.0000 0.27180  0.05408  0.02190  Biso   1.000  H
  H291     1.0000 0.12610  0.15708  0.97211  Biso   1.000  H
  C272     1.0000 0.07161  0.14941  0.90962  Biso   1.000  C
  H292     1.0000 0.15708  0.02789  0.87390  Biso   1.000  H
  C273     1.0000 0.09038  0.07161  0.85059  Biso   1.000  C
  C274     1.0000 0.36969  0.00000  0.00000  Biso   1.000  C
  H293     1.0000 0.33401  0.02661  0.92831  Biso   1.000  H
  H294     1.0000 0.34490  0.07512  0.97030  Biso   1.000  H
  C275     1.0000 0.33310  0.96308  0.03308  Biso   1.000  C
  H295     1.0000 0.27180  0.94592  0.97810  Biso   1.000  H
  N50      1.0000 0.23241  0.95990  0.04929  Biso   1.000  N
  C276     1.0000 0.05849  0.11719  0.86441  Biso   1.000  C
  C277     1.0000 0.03692  0.19689  0.92331  Biso   1.000  C
  C278     1.0000 0.07669  0.03692  0.80311  Biso   1.000  C
  H296     1.0000 0.39312  0.02170  0.02421  Biso   1.000  H
  H297     1.0000 0.39312  0.97830  0.97579  Biso   1.000  H
  H298     1.0000 0.33401  0.97339  0.07169  Biso   1.000  H
  H299     1.0000 0.34490  0.92488  0.02970  Biso   1.000  H
  C279     1.0000 0.19689  0.92331  0.03692  Biso   1.000  C
  H300     1.0000 0.02789  0.12610  0.84292  Biso   1.000  H
  N51      1.0000 0.04929  0.23241  0.95990  Biso   1.000  N
  H301     1.0000 0.00400  0.20139  0.90422  Biso   1.000  H
  N52      1.0000 0.04010  0.04929  0.76759  Biso   1.000  N
  H302     1.0000 0.09578  0.00400  0.79861  Biso   1.000  H
  C280     1.0000 0.14941  0.90962  0.07161  Biso   1.000  C
  H303     1.0000 0.20139  0.90422  0.00400  Biso   1.000  H
  C281     1.0000 0.00990  0.27638  0.97051  Biso   1.000  C
  C282     1.0000 0.02949  0.00990  0.72362  Biso   1.000  C
  C283     1.0000 0.11719  0.86441  0.05849  Biso   1.000  C
  C284     1.0000 0.13559  0.94151  0.11719  Biso   1.000  C
  H304     1.0000 0.97810  0.27180  0.94592  Biso   1.000  H
  C285     1.0000 0.99010  0.27638  0.02949  Biso   1.000  C
  C286     1.0000 0.03308  0.33310  0.96308  Biso   1.000  C
  C287     1.0000 0.97051  0.99010  0.72362  Biso   1.000  C
  H305     1.0000 0.05408  0.97810  0.72820  Biso   1.000  H
  C288     1.0000 0.03692  0.03308  0.66690  Biso   1.000  C
  H306     1.0000 0.12610  0.84292  0.02789  Biso   1.000  H
  C289     1.0000 0.07161  0.85059  0.09038  Biso   1.000  C
  H307     1.0000 0.15708  0.97211  0.12610  Biso   1.000  H
  C290     1.0000 0.09038  0.92839  0.14941  Biso   1.000  C
  H308     1.0000 0.02190  0.27180  0.05408  Biso   1.000  H
  N53      1.0000 0.95071  0.23241  0.04010  Biso   1.000  N
  C291     1.0000 0.96692  0.33310  0.03692  Biso   1.000  C
  C292     1.0000 0.00000  0.36969  0.00000  Biso   1.000  C
  H309     1.0000 0.07169  0.33401  0.97339  Biso   1.000  H
  H310     1.0000 0.02970  0.34490  0.92488  Biso   1.000  H
  N54      1.0000 0.95990  0.95071  0.76759  Biso   1.000  N
  C293     1.0000 0.96308  0.96692  0.66690  Biso   1.000  C
  H311     1.0000 0.94592  0.02190  0.72820  Biso   1.000  H
  H312     1.0000 0.02661  0.07169  0.66599  Biso   1.000  H
  H313     1.0000 0.07512  0.02970  0.65510  Biso   1.000  H
  C294     1.0000 0.00000  0.00000  0.63031  Biso   1.000  C
  C295     1.0000 0.05849  0.88281  0.13559  Biso   1.000  C
  C296     1.0000 0.03692  0.80311  0.07669  Biso   1.000  C
  C297     1.0000 0.07669  0.96308  0.19689  Biso   1.000  C
  C298     1.0000 0.96308  0.19689  0.07669  Biso   1.000  C
  H314     1.0000 0.92831  0.33401  0.02661  Biso   1.000  H
  H315     1.0000 0.97030  0.34490  0.07512  Biso   1.000  H
  H316     1.0000 0.02421  0.39312  0.02170  Biso   1.000  H
  H317     1.0000 0.97579  0.39312  0.97830  Biso   1.000  H
  C299     1.0000 0.92331  0.96308  0.80311  Biso   1.000  C
  H318     1.0000 0.97339  0.92831  0.66599  Biso   1.000  H
  H319     1.0000 0.92488  0.97030  0.65510  Biso   1.000  H
  H320     1.0000 0.97830  0.02421  0.60688  Biso   1.000  H
  H321     1.0000 0.02170  0.97579  0.60688  Biso   1.000  H
  H322     1.0000 0.02789  0.87390  0.15708  Biso   1.000  H
  N55      1.0000 0.04929  0.76759  0.04010  Biso   1.000  N
  H323     1.0000 0.00400  0.79861  0.09578  Biso   1.000  H
  N56      1.0000 0.04010  0.95071  0.23241  Biso   1.000  N
  H324     1.0000 0.09578  0.99600  0.20139  Biso   1.000  H
  C300     1.0000 0.92839  0.14941  0.09038  Biso   1.000  C
  H325     1.0000 0.99600  0.20139  0.09578  Biso   1.000  H
  C301     1.0000 0.90962  0.92839  0.85059  Biso   1.000  C
  H326     1.0000 0.90422  0.99600  0.79861  Biso   1.000  H
  C302     1.0000 0.00990  0.72362  0.02949  Biso   1.000  C
  C303     1.0000 0.02949  0.99010  0.27638  Biso   1.000  C
  C304     1.0000 0.94151  0.11719  0.13559  Biso   1.000  C
  C305     1.0000 0.88281  0.13559  0.05849  Biso   1.000  C
  C306     1.0000 0.94151  0.88281  0.86441  Biso   1.000  C
  C307     1.0000 0.86441  0.94151  0.88281  Biso   1.000  C
  C308     1.0000 0.99010  0.72362  0.97051  Biso   1.000  C
  H327     1.0000 0.97810  0.72820  0.05408  Biso   1.000  H
  C309     1.0000 0.03308  0.66690  0.03692  Biso   1.000  C
  H328     1.0000 0.05408  0.02190  0.27180  Biso   1.000  H
  C310     1.0000 0.97051  0.00990  0.27638  Biso   1.000  C
  C311     1.0000 0.03692  0.96692  0.33310  Biso   1.000  C
  C312     1.0000 0.90962  0.07161  0.14941  Biso   1.000  C
  H329     1.0000 0.97211  0.12610  0.15708  Biso   1.000  H
  C313     1.0000 0.85059  0.09038  0.07161  Biso   1.000  C
  H330     1.0000 0.87390  0.15708  0.02789  Biso   1.000  H
  C314     1.0000 0.92839  0.85059  0.90962  Biso   1.000  C
  H331     1.0000 0.97211  0.87390  0.84292  Biso   1.000  H
  C315     1.0000 0.85059  0.90962  0.92839  Biso   1.000  C
  H332     1.0000 0.84292  0.97211  0.87390  Biso   1.000  H
  N57      1.0000 0.95071  0.76759  0.95990  Biso   1.000  N
  C316     1.0000 0.96692  0.66690  0.96308  Biso   1.000  C
  H333     1.0000 0.02190  0.72820  0.94592  Biso   1.000  H
  H334     1.0000 0.07169  0.66599  0.02661  Biso   1.000  H
  H335     1.0000 0.02970  0.65510  0.07512  Biso   1.000  H
  C317     1.0000 0.00000  0.63031  0.00000  Biso   1.000  C
  H336     1.0000 0.94592  0.97810  0.27180  Biso   1.000  H
  N58      1.0000 0.95990  0.04929  0.23241  Biso   1.000  N
  C318     1.0000 0.96308  0.03308  0.33310  Biso   1.000  C
  C319     1.0000 0.00000  0.00000  0.36969  Biso   1.000  C
  H337     1.0000 0.02661  0.92831  0.33401  Biso   1.000  H
  H338     1.0000 0.07512  0.97030  0.34490  Biso   1.000  H
  C320     1.0000 0.92331  0.03692  0.19689  Biso   1.000  C
  C321     1.0000 0.86441  0.05849  0.11719  Biso   1.000  C
  C322     1.0000 0.80311  0.07669  0.03692  Biso   1.000  C
  C323     1.0000 0.96308  0.80311  0.92331  Biso   1.000  C
  C324     1.0000 0.88281  0.86441  0.94151  Biso   1.000  C
  C325     1.0000 0.80311  0.92331  0.96308  Biso   1.000  C
  H339     1.0000 0.92831  0.66599  0.97339  Biso   1.000  H
  H340     1.0000 0.97030  0.65510  0.92488  Biso   1.000  H
  H341     1.0000 0.97579  0.60688  0.02170  Biso   1.000  H
  H342     1.0000 0.02421  0.60688  0.97830  Biso   1.000  H
  H343     1.0000 0.97339  0.07169  0.33401  Biso   1.000  H
  H344     1.0000 0.92488  0.02970  0.34490  Biso   1.000  H
  H345     1.0000 0.02170  0.02421  0.39312  Biso   1.000  H
  H346     1.0000 0.97830  0.97579  0.39312  Biso   1.000  H
  H347     1.0000 0.90422  0.00400  0.20139  Biso   1.000  H
  H348     1.0000 0.84292  0.02789  0.12610  Biso   1.000  H
  N59      1.0000 0.76759  0.04010  0.04929  Biso   1.000  N
  H349     1.0000 0.79861  0.09578  0.00400  Biso   1.000  H
  H350     1.0000 0.99600  0.79861  0.90422  Biso   1.000  H
  H351     1.0000 0.87390  0.84292  0.97211  Biso   1.000  H
  N60      1.0000 0.76759  0.95990  0.95071  Biso   1.000  N
  H352     1.0000 0.79861  0.90422  0.99600  Biso   1.000  H
  C326     1.0000 0.72362  0.02949  0.00990  Biso   1.000  C
  C327     1.0000 0.72362  0.97051  0.99010  Biso   1.000  C
  H353     1.0000 0.72820  0.05408  0.97810  Biso   1.000  H
  C328     1.0000 0.66690  0.03692  0.03308  Biso   1.000  C
  C329     1.0000 0.66690  0.96308  0.96692  Biso   1.000  C
  H354     1.0000 0.72820  0.94592  0.02190  Biso   1.000  H
  C330     1.0000 0.63031  0.00000  0.00000  Biso   1.000  C
  H355     1.0000 0.66599  0.02661  0.07169  Biso   1.000  H
  H356     1.0000 0.65510  0.07512  0.02970  Biso   1.000  H
  H357     1.0000 0.66599  0.97339  0.92831  Biso   1.000  H
  H358     1.0000 0.65510  0.92488  0.97030  Biso   1.000  H
  H359     1.0000 0.60688  0.97830  0.02421  Biso   1.000  H
  H360     1.0000 0.60688  0.02170  0.97579  Biso   1.000  H
  C331     1.0000 0.19689  0.07669  0.96308  Biso   1.000  C
  N61      1.0000 0.23241  0.04010  0.95071  Biso   1.000  N
  C332     1.0000 0.14941  0.09038  0.92839  Biso   1.000  C
  H361     1.0000 0.20139  0.09578  0.99600  Biso   1.000  H
  C333     1.0000 0.27638  0.02949  0.99010  Biso   1.000  C
  C334     1.0000 0.11719  0.13559  0.94151  Biso   1.000  C
  C335     1.0000 0.13559  0.05849  0.88281  Biso   1.000  C
  C336     1.0000 0.33310  0.03692  0.96692  Biso   1.000  C
  C337     1.0000 0.27638  0.97051  0.00990  Biso   1.000  C
  H362     1.0000 0.27180  0.05408  0.02190  Biso   1.000  H
  H363     1.0000 0.12610  0.15708  0.97211  Biso   1.000  H
  C338     1.0000 0.07161  0.14941  0.90962  Biso   1.000  C
  H364     1.0000 0.15708  0.02789  0.87390  Biso   1.000  H
  C339     1.0000 0.09038  0.07161  0.85059  Biso   1.000  C
  C340     1.0000 0.36969  0.00000  0.00000  Biso   1.000  C
  H365     1.0000 0.33401  0.02661  0.92831  Biso   1.000  H
  H366     1.0000 0.34490  0.07512  0.97030  Biso   1.000  H
  C341     1.0000 0.33310  0.96308  0.03308  Biso   1.000  C
  H367     1.0000 0.27180  0.94592  0.97810  Biso   1.000  H
  N62      1.0000 0.23241  0.95990  0.04929  Biso   1.000  N
  C342     1.0000 0.05849  0.11719  0.86441  Biso   1.000  C
  C343     1.0000 0.03692  0.19689  0.92331  Biso   1.000  C
  C344     1.0000 0.07669  0.03692  0.80311  Biso   1.000  C
  H368     1.0000 0.39312  0.02170  0.02421  Biso   1.000  H
  H369     1.0000 0.39312  0.97830  0.97579  Biso   1.000  H
  H370     1.0000 0.33401  0.97339  0.07169  Biso   1.000  H
  H371     1.0000 0.34490  0.92488  0.02970  Biso   1.000  H
  C345     1.0000 0.19689  0.92331  0.03692  Biso   1.000  C
  H372     1.0000 0.02789  0.12610  0.84292  Biso   1.000  H
  N63      1.0000 0.04929  0.23241  0.95990  Biso   1.000  N
  H373     1.0000 0.00400  0.20139  0.90422  Biso   1.000  H
  N64      1.0000 0.04010  0.04929  0.76759  Biso   1.000  N
  H374     1.0000 0.09578  0.00400  0.79861  Biso   1.000  H
  C346     1.0000 0.14941  0.90962  0.07161  Biso   1.000  C
  H375     1.0000 0.20139  0.90422  0.00400  Biso   1.000  H
  C347     1.0000 0.00990  0.27638  0.97051  Biso   1.000  C
  C348     1.0000 0.02949  0.00990  0.72362  Biso   1.000  C
  C349     1.0000 0.11719  0.86441  0.05849  Biso   1.000  C
  C350     1.0000 0.13559  0.94151  0.11719  Biso   1.000  C
  H376     1.0000 0.97810  0.27180  0.94592  Biso   1.000  H
  C351     1.0000 0.99010  0.27638  0.02949  Biso   1.000  C
  C352     1.0000 0.03308  0.33310  0.96308  Biso   1.000  C
  C353     1.0000 0.97051  0.99010  0.72362  Biso   1.000  C
  H377     1.0000 0.05408  0.97810  0.72820  Biso   1.000  H
  C354     1.0000 0.03692  0.03308  0.66690  Biso   1.000  C
  H378     1.0000 0.12610  0.84292  0.02789  Biso   1.000  H
  C355     1.0000 0.07161  0.85059  0.09038  Biso   1.000  C
  H379     1.0000 0.15708  0.97211  0.12610  Biso   1.000  H
  C356     1.0000 0.09038  0.92839  0.14941  Biso   1.000  C
  H380     1.0000 0.02190  0.27180  0.05408  Biso   1.000  H
  N65      1.0000 0.95071  0.23241  0.04010  Biso   1.000  N
  C357     1.0000 0.96692  0.33310  0.03692  Biso   1.000  C
  C358     1.0000 0.00000  0.36969  0.00000  Biso   1.000  C
  H381     1.0000 0.07169  0.33401  0.97339  Biso   1.000  H
  H382     1.0000 0.02970  0.34490  0.92488  Biso   1.000  H
  N66      1.0000 0.95990  0.95071  0.76759  Biso   1.000  N
  C359     1.0000 0.96308  0.96692  0.66690  Biso   1.000  C
  H383     1.0000 0.94592  0.02190  0.72820  Biso   1.000  H
  H384     1.0000 0.02661  0.07169  0.66599  Biso   1.000  H
  H385     1.0000 0.07512  0.02970  0.65510  Biso   1.000  H
  C360     1.0000 0.00000  0.00000  0.63031  Biso   1.000  C
  C361     1.0000 0.05849  0.88281  0.13559  Biso   1.000  C
  C362     1.0000 0.03692  0.80311  0.07669  Biso   1.000  C
  C363     1.0000 0.07669  0.96308  0.19689  Biso   1.000  C
  C364     1.0000 0.96308  0.19689  0.07669  Biso   1.000  C
  H386     1.0000 0.92831  0.33401  0.02661  Biso   1.000  H
  H387     1.0000 0.97030  0.34490  0.07512  Biso   1.000  H
  H388     1.0000 0.02421  0.39312  0.02170  Biso   1.000  H
  H389     1.0000 0.97579  0.39312  0.97830  Biso   1.000  H
  C365     1.0000 0.92331  0.96308  0.80311  Biso   1.000  C
  H390     1.0000 0.97339  0.92831  0.66599  Biso   1.000  H
  H391     1.0000 0.92488  0.97030  0.65510  Biso   1.000  H
  H392     1.0000 0.97830  0.02421  0.60688  Biso   1.000  H
  H393     1.0000 0.02170  0.97579  0.60688  Biso   1.000  H
  H394     1.0000 0.02789  0.87390  0.15708  Biso   1.000  H
  N67      1.0000 0.04929  0.76759  0.04010  Biso   1.000  N
  H395     1.0000 0.00400  0.79861  0.09578  Biso   1.000  H
  N68      1.0000 0.04010  0.95071  0.23241  Biso   1.000  N
  H396     1.0000 0.09578  0.99600  0.20139  Biso   1.000  H
  C366     1.0000 0.92839  0.14941  0.09038  Biso   1.000  C
  H397     1.0000 0.99600  0.20139  0.09578  Biso   1.000  H
  C367     1.0000 0.90962  0.92839  0.85059  Biso   1.000  C
  H398     1.0000 0.90422  0.99600  0.79861  Biso   1.000  H
  C368     1.0000 0.00990  0.72362  0.02949  Biso   1.000  C
  C369     1.0000 0.02949  0.99010  0.27638  Biso   1.000  C
  C370     1.0000 0.94151  0.11719  0.13559  Biso   1.000  C
  C371     1.0000 0.88281  0.13559  0.05849  Biso   1.000  C
  C372     1.0000 0.94151  0.88281  0.86441  Biso   1.000  C
  C373     1.0000 0.86441  0.94151  0.88281  Biso   1.000  C
  C374     1.0000 0.99010  0.72362  0.97051  Biso   1.000  C
  H399     1.0000 0.97810  0.72820  0.05408  Biso   1.000  H
  C375     1.0000 0.03308  0.66690  0.03692  Biso   1.000  C
  H400     1.0000 0.05408  0.02190  0.27180  Biso   1.000  H
  C376     1.0000 0.97051  0.00990  0.27638  Biso   1.000  C
  C377     1.0000 0.03692  0.96692  0.33310  Biso   1.000  C
  C378     1.0000 0.90962  0.07161  0.14941  Biso   1.000  C
  H401     1.0000 0.97211  0.12610  0.15708  Biso   1.000  H
  C379     1.0000 0.85059  0.09038  0.07161  Biso   1.000  C
  H402     1.0000 0.87390  0.15708  0.02789  Biso   1.000  H
  C380     1.0000 0.92839  0.85059  0.90962  Biso   1.000  C
  H403     1.0000 0.97211  0.87390  0.84292  Biso   1.000  H
  C381     1.0000 0.85059  0.90962  0.92839  Biso   1.000  C
  H404     1.0000 0.84292  0.97211  0.87390  Biso   1.000  H
  N69      1.0000 0.95071  0.76759  0.95990  Biso   1.000  N
  C382     1.0000 0.96692  0.66690  0.96308  Biso   1.000  C
  H405     1.0000 0.02190  0.72820  0.94592  Biso   1.000  H
  H406     1.0000 0.07169  0.66599  0.02661  Biso   1.000  H
  H407     1.0000 0.02970  0.65510  0.07512  Biso   1.000  H
  C383     1.0000 0.00000  0.63031  0.00000  Biso   1.000  C
  H408     1.0000 0.94592  0.97810  0.27180  Biso   1.000  H
  N70      1.0000 0.95990  0.04929  0.23241  Biso   1.000  N
  C384     1.0000 0.96308  0.03308  0.33310  Biso   1.000  C
  C385     1.0000 0.00000  0.00000  0.36969  Biso   1.000  C
  H409     1.0000 0.02661  0.92831  0.33401  Biso   1.000  H
  H410     1.0000 0.07512  0.97030  0.34490  Biso   1.000  H
  C386     1.0000 0.92331  0.03692  0.19689  Biso   1.000  C
  C387     1.0000 0.86441  0.05849  0.11719  Biso   1.000  C
  C388     1.0000 0.80311  0.07669  0.03692  Biso   1.000  C
  C389     1.0000 0.96308  0.80311  0.92331  Biso   1.000  C
  C390     1.0000 0.88281  0.86441  0.94151  Biso   1.000  C
  C391     1.0000 0.80311  0.92331  0.96308  Biso   1.000  C
  H411     1.0000 0.92831  0.66599  0.97339  Biso   1.000  H
  H412     1.0000 0.97030  0.65510  0.92488  Biso   1.000  H
  H413     1.0000 0.97579  0.60688  0.02170  Biso   1.000  H
  H414     1.0000 0.02421  0.60688  0.97830  Biso   1.000  H
  H415     1.0000 0.97339  0.07169  0.33401  Biso   1.000  H
  H416     1.0000 0.92488  0.02970  0.34490  Biso   1.000  H
  H417     1.0000 0.02170  0.02421  0.39312  Biso   1.000  H
  H418     1.0000 0.97830  0.97579  0.39312  Biso   1.000  H
  H419     1.0000 0.90422  0.00400  0.20139  Biso   1.000  H
  H420     1.0000 0.84292  0.02789  0.12610  Biso   1.000  H
  N71      1.0000 0.76759  0.04010  0.04929  Biso   1.000  N
  H421     1.0000 0.79861  0.09578  0.00400  Biso   1.000  H
  H422     1.0000 0.99600  0.79861  0.90422  Biso   1.000  H
  H423     1.0000 0.87390  0.84292  0.97211  Biso   1.000  H
  N72      1.0000 0.76759  0.95990  0.95071  Biso   1.000  N
  H424     1.0000 0.79861  0.90422  0.99600  Biso   1.000  H
  C392     1.0000 0.72362  0.02949  0.00990  Biso   1.000  C
  C393     1.0000 0.72362  0.97051  0.99010  Biso   1.000  C
  H425     1.0000 0.72820  0.05408  0.97810  Biso   1.000  H
  C394     1.0000 0.66690  0.03692  0.03308  Biso   1.000  C
  C395     1.0000 0.66690  0.96308  0.96692  Biso   1.000  C
  H426     1.0000 0.72820  0.94592  0.02190  Biso   1.000  H
  C396     1.0000 0.63031  0.00000  0.00000  Biso   1.000  C
  H427     1.0000 0.66599  0.02661  0.07169  Biso   1.000  H
  H428     1.0000 0.65510  0.07512  0.02970  Biso   1.000  H
  H429     1.0000 0.66599  0.97339  0.92831  Biso   1.000  H
  H430     1.0000 0.65510  0.92488  0.97030  Biso   1.000  H
  H431     1.0000 0.60688  0.97830  0.02421  Biso   1.000  H
  H432     1.0000 0.60688  0.02170  0.97579  Biso   1.000  H
  C397     1.0000 0.19689  0.07669  0.96308  Biso   1.000  C
  N73      1.0000 0.23241  0.04010  0.95071  Biso   1.000  N
  C398     1.0000 0.14941  0.09038  0.92839  Biso   1.000  C
  H433     1.0000 0.20139  0.09578  0.99600  Biso   1.000  H
  C399     1.0000 0.27638  0.02949  0.99010  Biso   1.000  C
  C400     1.0000 0.11719  0.13559  0.94151  Biso   1.000  C
  C401     1.0000 0.13559  0.05849  0.88281  Biso   1.000  C
  C402     1.0000 0.33310  0.03692  0.96692  Biso   1.000  C
  C403     1.0000 0.27638  0.97051  0.00990  Biso   1.000  C
  H434     1.0000 0.27180  0.05408  0.02190  Biso   1.000  H
  H435     1.0000 0.12610  0.15708  0.97211  Biso   1.000  H
  C404     1.0000 0.07161  0.14941  0.90962  Biso   1.000  C
  H436     1.0000 0.15708  0.02789  0.87390  Biso   1.000  H
  C405     1.0000 0.09038  0.07161  0.85059  Biso   1.000  C
  C406     1.0000 0.36969  0.00000  0.00000  Biso   1.000  C
  H437     1.0000 0.33401  0.02661  0.92831  Biso   1.000  H
  H438     1.0000 0.34490  0.07512  0.97030  Biso   1.000  H
  C407     1.0000 0.33310  0.96308  0.03308  Biso   1.000  C
  H439     1.0000 0.27180  0.94592  0.97810  Biso   1.000  H
  N74      1.0000 0.23241  0.95990  0.04929  Biso   1.000  N
  C408     1.0000 0.05849  0.11719  0.86441  Biso   1.000  C
  C409     1.0000 0.03692  0.19689  0.92331  Biso   1.000  C
  C410     1.0000 0.07669  0.03692  0.80311  Biso   1.000  C
  H440     1.0000 0.39312  0.02170  0.02421  Biso   1.000  H
  H441     1.0000 0.39312  0.97830  0.97579  Biso   1.000  H
  H442     1.0000 0.33401  0.97339  0.07169  Biso   1.000  H
  H443     1.0000 0.34490  0.92488  0.02970  Biso   1.000  H
  C411     1.0000 0.19689  0.92331  0.03692  Biso   1.000  C
  H444     1.0000 0.02789  0.12610  0.84292  Biso   1.000  H
  N75      1.0000 0.04929  0.23241  0.95990  Biso   1.000  N
  H445     1.0000 0.00400  0.20139  0.90422  Biso   1.000  H
  N76      1.0000 0.04010  0.04929  0.76759  Biso   1.000  N
  H446     1.0000 0.09578  0.00400  0.79861  Biso   1.000  H
  C412     1.0000 0.14941  0.90962  0.07161  Biso   1.000  C
  H447     1.0000 0.20139  0.90422  0.00400  Biso   1.000  H
  C413     1.0000 0.00990  0.27638  0.97051  Biso   1.000  C
  C414     1.0000 0.02949  0.00990  0.72362  Biso   1.000  C
  C415     1.0000 0.11719  0.86441  0.05849  Biso   1.000  C
  C416     1.0000 0.13559  0.94151  0.11719  Biso   1.000  C
  H448     1.0000 0.97810  0.27180  0.94592  Biso   1.000  H
  C417     1.0000 0.99010  0.27638  0.02949  Biso   1.000  C
  C418     1.0000 0.03308  0.33310  0.96308  Biso   1.000  C
  C419     1.0000 0.97051  0.99010  0.72362  Biso   1.000  C
  H449     1.0000 0.05408  0.97810  0.72820  Biso   1.000  H
  C420     1.0000 0.03692  0.03308  0.66690  Biso   1.000  C
  H450     1.0000 0.12610  0.84292  0.02789  Biso   1.000  H
  C421     1.0000 0.07161  0.85059  0.09038  Biso   1.000  C
  H451     1.0000 0.15708  0.97211  0.12610  Biso   1.000  H
  C422     1.0000 0.09038  0.92839  0.14941  Biso   1.000  C
  H452     1.0000 0.02190  0.27180  0.05408  Biso   1.000  H
  N77      1.0000 0.95071  0.23241  0.04010  Biso   1.000  N
  C423     1.0000 0.96692  0.33310  0.03692  Biso   1.000  C
  C424     1.0000 0.00000  0.36969  0.00000  Biso   1.000  C
  H453     1.0000 0.07169  0.33401  0.97339  Biso   1.000  H
  H454     1.0000 0.02970  0.34490  0.92488  Biso   1.000  H
  N78      1.0000 0.95990  0.95071  0.76759  Biso   1.000  N
  C425     1.0000 0.96308  0.96692  0.66690  Biso   1.000  C
  H455     1.0000 0.94592  0.02190  0.72820  Biso   1.000  H
  H456     1.0000 0.02661  0.07169  0.66599  Biso   1.000  H
  H457     1.0000 0.07512  0.02970  0.65510  Biso   1.000  H
  C426     1.0000 0.00000  0.00000  0.63031  Biso   1.000  C
  C427     1.0000 0.05849  0.88281  0.13559  Biso   1.000  C
  C428     1.0000 0.03692  0.80311  0.07669  Biso   1.000  C
  C429     1.0000 0.07669  0.96308  0.19689  Biso   1.000  C
  C430     1.0000 0.96308  0.19689  0.07669  Biso   1.000  C
  H458     1.0000 0.92831  0.33401  0.02661  Biso   1.000  H
  H459     1.0000 0.97030  0.34490  0.07512  Biso   1.000  H
  H460     1.0000 0.02421  0.39312  0.02170  Biso   1.000  H
  H461     1.0000 0.97579  0.39312  0.97830  Biso   1.000  H
  C431     1.0000 0.92331  0.96308  0.80311  Biso   1.000  C
  H462     1.0000 0.97339  0.92831  0.66599  Biso   1.000  H
  H463     1.0000 0.92488  0.97030  0.65510  Biso   1.000  H
  H464     1.0000 0.97830  0.02421  0.60688  Biso   1.000  H
  H465     1.0000 0.02170  0.97579  0.60688  Biso   1.000  H
  H466     1.0000 0.02789  0.87390  0.15708  Biso   1.000  H
  N79      1.0000 0.04929  0.76759  0.04010  Biso   1.000  N
  H467     1.0000 0.00400  0.79861  0.09578  Biso   1.000  H
  N80      1.0000 0.04010  0.95071  0.23241  Biso   1.000  N
  H468     1.0000 0.09578  0.99600  0.20139  Biso   1.000  H
  C432     1.0000 0.92839  0.14941  0.09038  Biso   1.000  C
  H469     1.0000 0.99600  0.20139  0.09578  Biso   1.000  H
  C433     1.0000 0.90962  0.92839  0.85059  Biso   1.000  C
  H470     1.0000 0.90422  0.99600  0.79861  Biso   1.000  H
  C434     1.0000 0.00990  0.72362  0.02949  Biso   1.000  C
  C435     1.0000 0.02949  0.99010  0.27638  Biso   1.000  C
  C436     1.0000 0.94151  0.11719  0.13559  Biso   1.000  C
  C437     1.0000 0.88281  0.13559  0.05849  Biso   1.000  C
  C438     1.0000 0.94151  0.88281  0.86441  Biso   1.000  C
  C439     1.0000 0.86441  0.94151  0.88281  Biso   1.000  C
  C440     1.0000 0.99010  0.72362  0.97051  Biso   1.000  C
  H471     1.0000 0.97810  0.72820  0.05408  Biso   1.000  H
  C441     1.0000 0.03308  0.66690  0.03692  Biso   1.000  C
  H472     1.0000 0.05408  0.02190  0.27180  Biso   1.000  H
  C442     1.0000 0.97051  0.00990  0.27638  Biso   1.000  C
  C443     1.0000 0.03692  0.96692  0.33310  Biso   1.000  C
  C444     1.0000 0.90962  0.07161  0.14941  Biso   1.000  C
  H473     1.0000 0.97211  0.12610  0.15708  Biso   1.000  H
  C445     1.0000 0.85059  0.09038  0.07161  Biso   1.000  C
  H474     1.0000 0.87390  0.15708  0.02789  Biso   1.000  H
  C446     1.0000 0.92839  0.85059  0.90962  Biso   1.000  C
  H475     1.0000 0.97211  0.87390  0.84292  Biso   1.000  H
  C447     1.0000 0.85059  0.90962  0.92839  Biso   1.000  C
  H476     1.0000 0.84292  0.97211  0.87390  Biso   1.000  H
  N81      1.0000 0.95071  0.76759  0.95990  Biso   1.000  N
  C448     1.0000 0.96692  0.66690  0.96308  Biso   1.000  C
  H477     1.0000 0.02190  0.72820  0.94592  Biso   1.000  H
  H478     1.0000 0.07169  0.66599  0.02661  Biso   1.000  H
  H479     1.0000 0.02970  0.65510  0.07512  Biso   1.000  H
  C449     1.0000 0.00000  0.63031  0.00000  Biso   1.000  C
  H480     1.0000 0.94592  0.97810  0.27180  Biso   1.000  H
  N82      1.0000 0.95990  0.04929  0.23241  Biso   1.000  N
  C450     1.0000 0.96308  0.03308  0.33310  Biso   1.000  C
  C451     1.0000 0.00000  0.00000  0.36969  Biso   1.000  C
  H481     1.0000 0.02661  0.92831  0.33401  Biso   1.000  H
  H482     1.0000 0.07512  0.97030  0.34490  Biso   1.000  H
  C452     1.0000 0.92331  0.03692  0.19689  Biso   1.000  C
  C453     1.0000 0.86441  0.05849  0.11719  Biso   1.000  C
  C454     1.0000 0.80311  0.07669  0.03692  Biso   1.000  C
  C455     1.0000 0.96308  0.80311  0.92331  Biso   1.000  C
  C456     1.0000 0.88281  0.86441  0.94151  Biso   1.000  C
  C457     1.0000 0.80311  0.92331  0.96308  Biso   1.000  C
  H483     1.0000 0.92831  0.66599  0.97339  Biso   1.000  H
  H484     1.0000 0.97030  0.65510  0.92488  Biso   1.000  H
  H485     1.0000 0.97579  0.60688  0.02170  Biso   1.000  H
  H486     1.0000 0.02421  0.60688  0.97830  Biso   1.000  H
  H487     1.0000 0.97339  0.07169  0.33401  Biso   1.000  H
  H488     1.0000 0.92488  0.02970  0.34490  Biso   1.000  H
  H489     1.0000 0.02170  0.02421  0.39312  Biso   1.000  H
  H490     1.0000 0.97830  0.97579  0.39312  Biso   1.000  H
  H491     1.0000 0.90422  0.00400  0.20139  Biso   1.000  H
  H492     1.0000 0.84292  0.02789  0.12610  Biso   1.000  H
  N83      1.0000 0.76759  0.04010  0.04929  Biso   1.000  N
  H493     1.0000 0.79861  0.09578  0.00400  Biso   1.000  H
  H494     1.0000 0.99600  0.79861  0.90422  Biso   1.000  H
  H495     1.0000 0.87390  0.84292  0.97211  Biso   1.000  H
  N84      1.0000 0.76759  0.95990  0.95071  Biso   1.000  N
  H496     1.0000 0.79861  0.90422  0.99600  Biso   1.000  H
  C458     1.0000 0.72362  0.02949  0.00990  Biso   1.000  C
  C459     1.0000 0.72362  0.97051  0.99010  Biso   1.000  C
  H497     1.0000 0.72820  0.05408  0.97810  Biso   1.000  H
  C460     1.0000 0.66690  0.03692  0.03308  Biso   1.000  C
  C461     1.0000 0.66690  0.96308  0.96692  Biso   1.000  C
  H498     1.0000 0.72820  0.94592  0.02190  Biso   1.000  H
  C462     1.0000 0.63031  0.00000  0.00000  Biso   1.000  C
  H499     1.0000 0.66599  0.02661  0.07169  Biso   1.000  H
  H500     1.0000 0.65510  0.07512  0.02970  Biso   1.000  H
  H501     1.0000 0.66599  0.97339  0.92831  Biso   1.000  H
  H502     1.0000 0.65510  0.92488  0.97030  Biso   1.000  H
  H503     1.0000 0.60688  0.97830  0.02421  Biso   1.000  H
  H504     1.0000 0.60688  0.02170  0.97579  Biso   1.000  H
  C463     1.0000 0.19689  0.07669  0.96308  Biso   1.000  C
  N85      1.0000 0.23241  0.04010  0.95071  Biso   1.000  N
  C464     1.0000 0.14941  0.09038  0.92839  Biso   1.000  C
  H505     1.0000 0.20139  0.09578  0.99600  Biso   1.000  H
  C465     1.0000 0.27638  0.02949  0.99010  Biso   1.000  C
  C466     1.0000 0.11719  0.13559  0.94151  Biso   1.000  C
  C467     1.0000 0.13559  0.05849  0.88281  Biso   1.000  C
  C468     1.0000 0.33310  0.03692  0.96692  Biso   1.000  C
  C469     1.0000 0.27638  0.97051  0.00990  Biso   1.000  C
  H506     1.0000 0.27180  0.05408  0.02190  Biso   1.000  H
  H507     1.0000 0.12610  0.15708  0.97211  Biso   1.000  H
  C470     1.0000 0.07161  0.14941  0.90962  Biso   1.000  C
  H508     1.0000 0.15708  0.02789  0.87390  Biso   1.000  H
  C471     1.0000 0.09038  0.07161  0.85059  Biso   1.000  C
  C472     1.0000 0.36969  0.00000  0.00000  Biso   1.000  C
  H509     1.0000 0.33401  0.02661  0.92831  Biso   1.000  H
  H510     1.0000 0.34490  0.07512  0.97030  Biso   1.000  H
  C473     1.0000 0.33310  0.96308  0.03308  Biso   1.000  C
  H511     1.0000 0.27180  0.94592  0.97810  Biso   1.000  H
  N86      1.0000 0.23241  0.95990  0.04929  Biso   1.000  N
  C474     1.0000 0.05849  0.11719  0.86441  Biso   1.000  C
  C475     1.0000 0.03692  0.19689  0.92331  Biso   1.000  C
  C476     1.0000 0.07669  0.03692  0.80311  Biso   1.000  C
  H512     1.0000 0.39312  0.02170  0.02421  Biso   1.000  H
  H513     1.0000 0.39312  0.97830  0.97579  Biso   1.000  H
  H514     1.0000 0.33401  0.97339  0.07169  Biso   1.000  H
  H515     1.0000 0.34490  0.92488  0.02970  Biso   1.000  H
  C477     1.0000 0.19689  0.92331  0.03692  Biso   1.000  C
  H516     1.0000 0.02789  0.12610  0.84292  Biso   1.000  H
  N87      1.0000 0.04929  0.23241  0.95990  Biso   1.000  N
  H517     1.0000 0.00400  0.20139  0.90422  Biso   1.000  H
  N88      1.0000 0.04010  0.04929  0.76759  Biso   1.000  N
  H518     1.0000 0.09578  0.00400  0.79861  Biso   1.000  H
  C478     1.0000 0.14941  0.90962  0.07161  Biso   1.000  C
  H519     1.0000 0.20139  0.90422  0.00400  Biso   1.000  H
  C479     1.0000 0.00990  0.27638  0.97051  Biso   1.000  C
  C480     1.0000 0.02949  0.00990  0.72362  Biso   1.000  C
  C481     1.0000 0.11719  0.86441  0.05849  Biso   1.000  C
  C482     1.0000 0.13559  0.94151  0.11719  Biso   1.000  C
  H520     1.0000 0.97810  0.27180  0.94592  Biso   1.000  H
  C483     1.0000 0.99010  0.27638  0.02949  Biso   1.000  C
  C484     1.0000 0.03308  0.33310  0.96308  Biso   1.000  C
  C485     1.0000 0.97051  0.99010  0.72362  Biso   1.000  C
  H521     1.0000 0.05408  0.97810  0.72820  Biso   1.000  H
  C486     1.0000 0.03692  0.03308  0.66690  Biso   1.000  C
  H522     1.0000 0.12610  0.84292  0.02789  Biso   1.000  H
  C487     1.0000 0.07161  0.85059  0.09038  Biso   1.000  C
  H523     1.0000 0.15708  0.97211  0.12610  Biso   1.000  H
  C488     1.0000 0.09038  0.92839  0.14941  Biso   1.000  C
  H524     1.0000 0.02190  0.27180  0.05408  Biso   1.000  H
  N89      1.0000 0.95071  0.23241  0.04010  Biso   1.000  N
  C489     1.0000 0.96692  0.33310  0.03692  Biso   1.000  C
  C490     1.0000 0.00000  0.36969  0.00000  Biso   1.000  C
  H525     1.0000 0.07169  0.33401  0.97339  Biso   1.000  H
  H526     1.0000 0.02970  0.34490  0.92488  Biso   1.000  H
  N90      1.0000 0.95990  0.95071  0.76759  Biso   1.000  N
  C491     1.0000 0.96308  0.96692  0.66690  Biso   1.000  C
  H527     1.0000 0.94592  0.02190  0.72820  Biso   1.000  H
  H528     1.0000 0.02661  0.07169  0.66599  Biso   1.000  H
  H529     1.0000 0.07512  0.02970  0.65510  Biso   1.000  H
  C492     1.0000 0.00000  0.00000  0.63031  Biso   1.000  C
  C493     1.0000 0.05849  0.88281  0.13559  Biso   1.000  C
  C494     1.0000 0.03692  0.80311  0.07669  Biso   1.000  C
  C495     1.0000 0.07669  0.96308  0.19689  Biso   1.000  C
  C496     1.0000 0.96308  0.19689  0.07669  Biso   1.000  C
  H530     1.0000 0.92831  0.33401  0.02661  Biso   1.000  H
  H531     1.0000 0.97030  0.34490  0.07512  Biso   1.000  H
  H532     1.0000 0.02421  0.39312  0.02170  Biso   1.000  H
  H533     1.0000 0.97579  0.39312  0.97830  Biso   1.000  H
  C497     1.0000 0.92331  0.96308  0.80311  Biso   1.000  C
  H534     1.0000 0.97339  0.92831  0.66599  Biso   1.000  H
  H535     1.0000 0.92488  0.97030  0.65510  Biso   1.000  H
  H536     1.0000 0.97830  0.02421  0.60688  Biso   1.000  H
  H537     1.0000 0.02170  0.97579  0.60688  Biso   1.000  H
  H538     1.0000 0.02789  0.87390  0.15708  Biso   1.000  H
  N91      1.0000 0.04929  0.76759  0.04010  Biso   1.000  N
  H539     1.0000 0.00400  0.79861  0.09578  Biso   1.000  H
  N92      1.0000 0.04010  0.95071  0.23241  Biso   1.000  N
  H540     1.0000 0.09578  0.99600  0.20139  Biso   1.000  H
  C498     1.0000 0.92839  0.14941  0.09038  Biso   1.000  C
  H541     1.0000 0.99600  0.20139  0.09578  Biso   1.000  H
  C499     1.0000 0.90962  0.92839  0.85059  Biso   1.000  C
  H542     1.0000 0.90422  0.99600  0.79861  Biso   1.000  H
  C500     1.0000 0.00990  0.72362  0.02949  Biso   1.000  C
  C501     1.0000 0.02949  0.99010  0.27638  Biso   1.000  C
  C502     1.0000 0.94151  0.11719  0.13559  Biso   1.000  C
  C503     1.0000 0.88281  0.13559  0.05849  Biso   1.000  C
  C504     1.0000 0.94151  0.88281  0.86441  Biso   1.000  C
  C505     1.0000 0.86441  0.94151  0.88281  Biso   1.000  C
  C506     1.0000 0.99010  0.72362  0.97051  Biso   1.000  C
  H543     1.0000 0.97810  0.72820  0.05408  Biso   1.000  H
  C507     1.0000 0.03308  0.66690  0.03692  Biso   1.000  C
  H544     1.0000 0.05408  0.02190  0.27180  Biso   1.000  H
  C508     1.0000 0.97051  0.00990  0.27638  Biso   1.000  C
  C509     1.0000 0.03692  0.96692  0.33310  Biso   1.000  C
  C510     1.0000 0.90962  0.07161  0.14941  Biso   1.000  C
  H545     1.0000 0.97211  0.12610  0.15708  Biso   1.000  H
  C511     1.0000 0.85059  0.09038  0.07161  Biso   1.000  C
  H546     1.0000 0.87390  0.15708  0.02789  Biso   1.000  H
  C512     1.0000 0.92839  0.85059  0.90962  Biso   1.000  C
  H547     1.0000 0.97211  0.87390  0.84292  Biso   1.000  H
  C513     1.0000 0.85059  0.90962  0.92839  Biso   1.000  C
  H548     1.0000 0.84292  0.97211  0.87390  Biso   1.000  H
  N93      1.0000 0.95071  0.76759  0.95990  Biso   1.000  N
  C514     1.0000 0.96692  0.66690  0.96308  Biso   1.000  C
  H549     1.0000 0.02190  0.72820  0.94592  Biso   1.000  H
  H550     1.0000 0.07169  0.66599  0.02661  Biso   1.000  H
  H551     1.0000 0.02970  0.65510  0.07512  Biso   1.000  H
  C515     1.0000 0.00000  0.63031  0.00000  Biso   1.000  C
  H552     1.0000 0.94592  0.97810  0.27180  Biso   1.000  H
  N94      1.0000 0.95990  0.04929  0.23241  Biso   1.000  N
  C516     1.0000 0.96308  0.03308  0.33310  Biso   1.000  C
  C517     1.0000 0.00000  0.00000  0.36969  Biso   1.000  C
  H553     1.0000 0.02661  0.92831  0.33401  Biso   1.000  H
  H554     1.0000 0.07512  0.97030  0.34490  Biso   1.000  H
  C518     1.0000 0.92331  0.03692  0.19689  Biso   1.000  C
  C519     1.0000 0.86441  0.05849  0.11719  Biso   1.000  C
  C520     1.0000 0.80311  0.07669  0.03692  Biso   1.000  C
  C521     1.0000 0.96308  0.80311  0.92331  Biso   1.000  C
  C522     1.0000 0.88281  0.86441  0.94151  Biso   1.000  C
  C523     1.0000 0.80311  0.92331  0.96308  Biso   1.000  C
  H555     1.0000 0.92831  0.66599  0.97339  Biso   1.000  H
  H556     1.0000 0.97030  0.65510  0.92488  Biso   1.000  H
  H557     1.0000 0.97579  0.60688  0.02170  Biso   1.000  H
  H558     1.0000 0.02421  0.60688  0.97830  Biso   1.000  H
  H559     1.0000 0.97339  0.07169  0.33401  Biso   1.000  H
  H560     1.0000 0.92488  0.02970  0.34490  Biso   1.000  H
  H561     1.0000 0.02170  0.02421  0.39312  Biso   1.000  H
  H562     1.0000 0.97830  0.97579  0.39312  Biso   1.000  H
  H563     1.0000 0.90422  0.00400  0.20139  Biso   1.000  H
  H564     1.0000 0.84292  0.02789  0.12610  Biso   1.000  H
  N95      1.0000 0.76759  0.04010  0.04929  Biso   1.000  N
  H565     1.0000 0.79861  0.09578  0.00400  Biso   1.000  H
  H566     1.0000 0.99600  0.79861  0.90422  Biso   1.000  H
  H567     1.0000 0.87390  0.84292  0.97211  Biso   1.000  H
  N96      1.0000 0.76759  0.95990  0.95071  Biso   1.000  N
  H568     1.0000 0.79861  0.90422  0.99600  Biso   1.000  H
  C524     1.0000 0.72362  0.02949  0.00990  Biso   1.000  C
  C525     1.0000 0.72362  0.97051  0.99010  Biso   1.000  C
  H569     1.0000 0.72820  0.05408  0.97810  Biso   1.000  H
  C526     1.0000 0.66690  0.03692  0.03308  Biso   1.000  C
  C527     1.0000 0.66690  0.96308  0.96692  Biso   1.000  C
  H570     1.0000 0.72820  0.94592  0.02190  Biso   1.000  H
  C528     1.0000 0.63031  0.00000  0.00000  Biso   1.000  C
  H571     1.0000 0.66599  0.02661  0.07169  Biso   1.000  H
  H572     1.0000 0.65510  0.07512  0.02970  Biso   1.000  H
  H573     1.0000 0.66599  0.97339  0.92831  Biso   1.000  H
  H574     1.0000 0.65510  0.92488  0.97030  Biso   1.000  H
  H575     1.0000 0.60688  0.97830  0.02421  Biso   1.000  H
  H576     1.0000 0.60688  0.02170  0.97579  Biso   1.000  H
  C529     1.0000 0.19689  0.07669  0.96308  Biso   1.000  C
  N97      1.0000 0.23241  0.04010  0.95071  Biso   1.000  N
  C530     1.0000 0.14941  0.09038  0.92839  Biso   1.000  C
  H577     1.0000 0.20139  0.09578  0.99600  Biso   1.000  H
  C531     1.0000 0.27638  0.02949  0.99010  Biso   1.000  C
  C532     1.0000 0.11719  0.13559  0.94151  Biso   1.000  C
  C533     1.0000 0.13559  0.05849  0.88281  Biso   1.000  C
  C534     1.0000 0.33310  0.03692  0.96692  Biso   1.000  C
  C535     1.0000 0.27638  0.97051  0.00990  Biso   1.000  C
  H578     1.0000 0.27180  0.05408  0.02190  Biso   1.000  H
  H579     1.0000 0.12610  0.15708  0.97211  Biso   1.000  H
  C536     1.0000 0.07161  0.14941  0.90962  Biso   1.000  C
  H580     1.0000 0.15708  0.02789  0.87390  Biso   1.000  H
  C537     1.0000 0.09038  0.07161  0.85059  Biso   1.000  C
  C538     1.0000 0.36969  0.00000  0.00000  Biso   1.000  C
  H581     1.0000 0.33401  0.02661  0.92831  Biso   1.000  H
  H582     1.0000 0.34490  0.07512  0.97030  Biso   1.000  H
  C539     1.0000 0.33310  0.96308  0.03308  Biso   1.000  C
  H583     1.0000 0.27180  0.94592  0.97810  Biso   1.000  H
  N98      1.0000 0.23241  0.95990  0.04929  Biso   1.000  N
  C540     1.0000 0.05849  0.11719  0.86441  Biso   1.000  C
  C541     1.0000 0.03692  0.19689  0.92331  Biso   1.000  C
  C542     1.0000 0.07669  0.03692  0.80311  Biso   1.000  C
  H584     1.0000 0.39312  0.02170  0.02421  Biso   1.000  H
  H585     1.0000 0.39312  0.97830  0.97579  Biso   1.000  H
  H586     1.0000 0.33401  0.97339  0.07169  Biso   1.000  H
  H587     1.0000 0.34490  0.92488  0.02970  Biso   1.000  H
  C543     1.0000 0.19689  0.92331  0.03692  Biso   1.000  C
  H588     1.0000 0.02789  0.12610  0.84292  Biso   1.000  H
  N99      1.0000 0.04929  0.23241  0.95990  Biso   1.000  N
  H589     1.0000 0.00400  0.20139  0.90422  Biso   1.000  H
  N100     1.0000 0.04010  0.04929  0.76759  Biso   1.000  N
  H590     1.0000 0.09578  0.00400  0.79861  Biso   1.000  H
  C544     1.0000 0.14941  0.90962  0.07161  Biso   1.000  C
  H591     1.0000 0.20139  0.90422  0.00400  Biso   1.000  H
  C545     1.0000 0.00990  0.27638  0.97051  Biso   1.000  C
  C546     1.0000 0.02949  0.00990  0.72362  Biso   1.000  C
  C547     1.0000 0.11719  0.86441  0.05849  Biso   1.000  C
  C548     1.0000 0.13559  0.94151  0.11719  Biso   1.000  C
  H592     1.0000 0.97810  0.27180  0.94592  Biso   1.000  H
  C549     1.0000 0.99010  0.27638  0.02949  Biso   1.000  C
  C550     1.0000 0.03308  0.33310  0.96308  Biso   1.000  C
  C551     1.0000 0.97051  0.99010  0.72362  Biso   1.000  C
  H593     1.0000 0.05408  0.97810  0.72820  Biso   1.000  H
  C552     1.0000 0.03692  0.03308  0.66690  Biso   1.000  C
  H594     1.0000 0.12610  0.84292  0.02789  Biso   1.000  H
  C553     1.0000 0.07161  0.85059  0.09038  Biso   1.000  C
  H595     1.0000 0.15708  0.97211  0.12610  Biso   1.000  H
  C554     1.0000 0.09038  0.92839  0.14941  Biso   1.000  C
  H596     1.0000 0.02190  0.27180  0.05408  Biso   1.000  H
  N101     1.0000 0.95071  0.23241  0.04010  Biso   1.000  N
  C555     1.0000 0.96692  0.33310  0.03692  Biso   1.000  C
  C556     1.0000 0.00000  0.36969  0.00000  Biso   1.000  C
  H597     1.0000 0.07169  0.33401  0.97339  Biso   1.000  H
  H598     1.0000 0.02970  0.34490  0.92488  Biso   1.000  H
  N102     1.0000 0.95990  0.95071  0.76759  Biso   1.000  N
  C557     1.0000 0.96308  0.96692  0.66690  Biso   1.000  C
  H599     1.0000 0.94592  0.02190  0.72820  Biso   1.000  H
  H600     1.0000 0.02661  0.07169  0.66599  Biso   1.000  H
  H601     1.0000 0.07512  0.02970  0.65510  Biso   1.000  H
  C558     1.0000 0.00000  0.00000  0.63031  Biso   1.000  C
  C559     1.0000 0.05849  0.88281  0.13559  Biso   1.000  C
  C560     1.0000 0.03692  0.80311  0.07669  Biso   1.000  C
  C561     1.0000 0.07669  0.96308  0.19689  Biso   1.000  C
  C562     1.0000 0.96308  0.19689  0.07669  Biso   1.000  C
  H602     1.0000 0.92831  0.33401  0.02661  Biso   1.000  H
  H603     1.0000 0.97030  0.34490  0.07512  Biso   1.000  H
  H604     1.0000 0.02421  0.39312  0.02170  Biso   1.000  H
  H605     1.0000 0.97579  0.39312  0.97830  Biso   1.000  H
  C563     1.0000 0.92331  0.96308  0.80311  Biso   1.000  C
  H606     1.0000 0.97339  0.92831  0.66599  Biso   1.000  H
  H607     1.0000 0.92488  0.97030  0.65510  Biso   1.000  H
  H608     1.0000 0.97830  0.02421  0.60688  Biso   1.000  H
  H609     1.0000 0.02170  0.97579  0.60688  Biso   1.000  H
  H610     1.0000 0.02789  0.87390  0.15708  Biso   1.000  H
  N103     1.0000 0.04929  0.76759  0.04010  Biso   1.000  N
  H611     1.0000 0.00400  0.79861  0.09578  Biso   1.000  H
  N104     1.0000 0.04010  0.95071  0.23241  Biso   1.000  N
  H612     1.0000 0.09578  0.99600  0.20139  Biso   1.000  H
  C564     1.0000 0.92839  0.14941  0.09038  Biso   1.000  C
  H613     1.0000 0.99600  0.20139  0.09578  Biso   1.000  H
  C565     1.0000 0.90962  0.92839  0.85059  Biso   1.000  C
  H614     1.0000 0.90422  0.99600  0.79861  Biso   1.000  H
  C566     1.0000 0.00990  0.72362  0.02949  Biso   1.000  C
  C567     1.0000 0.02949  0.99010  0.27638  Biso   1.000  C
  C568     1.0000 0.94151  0.11719  0.13559  Biso   1.000  C
  C569     1.0000 0.88281  0.13559  0.05849  Biso   1.000  C
  C570     1.0000 0.94151  0.88281  0.86441  Biso   1.000  C
  C571     1.0000 0.86441  0.94151  0.88281  Biso   1.000  C
  C572     1.0000 0.99010  0.72362  0.97051  Biso   1.000  C
  H615     1.0000 0.97810  0.72820  0.05408  Biso   1.000  H
  C573     1.0000 0.03308  0.66690  0.03692  Biso   1.000  C
  H616     1.0000 0.05408  0.02190  0.27180  Biso   1.000  H
  C574     1.0000 0.97051  0.00990  0.27638  Biso   1.000  C
  C575     1.0000 0.03692  0.96692  0.33310  Biso   1.000  C
  C576     1.0000 0.90962  0.07161  0.14941  Biso   1.000  C
  H617     1.0000 0.97211  0.12610  0.15708  Biso   1.000  H
  C577     1.0000 0.85059  0.09038  0.07161  Biso   1.000  C
  H618     1.0000 0.87390  0.15708  0.02789  Biso   1.000  H
  C578     1.0000 0.92839  0.85059  0.90962  Biso   1.000  C
  H619     1.0000 0.97211  0.87390  0.84292  Biso   1.000  H
  C579     1.0000 0.85059  0.90962  0.92839  Biso   1.000  C
  H620     1.0000 0.84292  0.97211  0.87390  Biso   1.000  H
  N105     1.0000 0.95071  0.76759  0.95990  Biso   1.000  N
  C580     1.0000 0.96692  0.66690  0.96308  Biso   1.000  C
  H621     1.0000 0.02190  0.72820  0.94592  Biso   1.000  H
  H622     1.0000 0.07169  0.66599  0.02661  Biso   1.000  H
  H623     1.0000 0.02970  0.65510  0.07512  Biso   1.000  H
  C581     1.0000 0.00000  0.63031  0.00000  Biso   1.000  C
  H624     1.0000 0.94592  0.97810  0.27180  Biso   1.000  H
  N106     1.0000 0.95990  0.04929  0.23241  Biso   1.000  N
  C582     1.0000 0.96308  0.03308  0.33310  Biso   1.000  C
  C583     1.0000 0.00000  0.00000  0.36969  Biso   1.000  C
  H625     1.0000 0.02661  0.92831  0.33401  Biso   1.000  H
  H626     1.0000 0.07512  0.97030  0.34490  Biso   1.000  H
  C584     1.0000 0.92331  0.03692  0.19689  Biso   1.000  C
  C585     1.0000 0.86441  0.05849  0.11719  Biso   1.000  C
  C586     1.0000 0.80311  0.07669  0.03692  Biso   1.000  C
  C587     1.0000 0.96308  0.80311  0.92331  Biso   1.000  C
  C588     1.0000 0.88281  0.86441  0.94151  Biso   1.000  C
  C589     1.0000 0.80311  0.92331  0.96308  Biso   1.000  C
  H627     1.0000 0.92831  0.66599  0.97339  Biso   1.000  H
  H628     1.0000 0.97030  0.65510  0.92488  Biso   1.000  H
  H629     1.0000 0.97579  0.60688  0.02170  Biso   1.000  H
  H630     1.0000 0.02421  0.60688  0.97830  Biso   1.000  H
  H631     1.0000 0.97339  0.07169  0.33401  Biso   1.000  H
  H632     1.0000 0.92488  0.02970  0.34490  Biso   1.000  H
  H633     1.0000 0.02170  0.02421  0.39312  Biso   1.000  H
  H634     1.0000 0.97830  0.97579  0.39312  Biso   1.000  H
  H635     1.0000 0.90422  0.00400  0.20139  Biso   1.000  H
  H636     1.0000 0.84292  0.02789  0.12610  Biso   1.000  H
  N107     1.0000 0.76759  0.04010  0.04929  Biso   1.000  N
  H637     1.0000 0.79861  0.09578  0.00400  Biso   1.000  H
  H638     1.0000 0.99600  0.79861  0.90422  Biso   1.000  H
  H639     1.0000 0.87390  0.84292  0.97211  Biso   1.000  H
  N108     1.0000 0.76759  0.95990  0.95071  Biso   1.000  N
  H640     1.0000 0.79861  0.90422  0.99600  Biso   1.000  H
  C590     1.0000 0.72362  0.02949  0.00990  Biso   1.000  C
  C591     1.0000 0.72362  0.97051  0.99010  Biso   1.000  C
  H641     1.0000 0.72820  0.05408  0.97810  Biso   1.000  H
  C592     1.0000 0.66690  0.03692  0.03308  Biso   1.000  C
  C593     1.0000 0.66690  0.96308  0.96692  Biso   1.000  C
  H642     1.0000 0.72820  0.94592  0.02190  Biso   1.000  H
  C594     1.0000 0.63031  0.00000  0.00000  Biso   1.000  C
  H643     1.0000 0.66599  0.02661  0.07169  Biso   1.000  H
  H644     1.0000 0.65510  0.07512  0.02970  Biso   1.000  H
  H645     1.0000 0.66599  0.97339  0.92831  Biso   1.000  H
  H646     1.0000 0.65510  0.92488  0.97030  Biso   1.000  H
  H647     1.0000 0.60688  0.97830  0.02421  Biso   1.000  H
  H648     1.0000 0.60688  0.02170  0.97579  Biso   1.000  H
  C595     1.0000 0.42331  0.96308  0.30311  Biso   1.000  C
  N109     1.0000 0.45990  0.95071  0.26759  Biso   1.000  N
  C596     1.0000 0.40962  0.92839  0.35059  Biso   1.000  C
  H649     1.0000 0.40422  0.99600  0.29861  Biso   1.000  H
  C597     1.0000 0.47051  0.99010  0.22362  Biso   1.000  C
  C598     1.0000 0.36441  0.94151  0.38281  Biso   1.000  C
  C599     1.0000 0.44151  0.88281  0.36441  Biso   1.000  C
  C600     1.0000 0.52949  0.00990  0.22362  Biso   1.000  C
  H650     1.0000 0.44592  0.02190  0.22820  Biso   1.000  H
  C601     1.0000 0.46308  0.96692  0.16690  Biso   1.000  C
  H651     1.0000 0.34292  0.97211  0.37390  Biso   1.000  H
  C602     1.0000 0.35059  0.90962  0.42839  Biso   1.000  C
  H652     1.0000 0.47211  0.87390  0.34292  Biso   1.000  H
  C603     1.0000 0.42839  0.85059  0.40962  Biso   1.000  C
  N110     1.0000 0.54010  0.04929  0.26759  Biso   1.000  N
  C604     1.0000 0.53692  0.03308  0.16690  Biso   1.000  C
  H653     1.0000 0.55408  0.97810  0.22820  Biso   1.000  H
  C605     1.0000 0.50000  0.00000  0.13031  Biso   1.000  C
  H654     1.0000 0.47339  0.92831  0.16599  Biso   1.000  H
  H655     1.0000 0.42488  0.97030  0.15510  Biso   1.000  H
  C606     1.0000 0.38281  0.86441  0.44151  Biso   1.000  C
  C607     1.0000 0.30311  0.92331  0.46308  Biso   1.000  C
  C608     1.0000 0.46308  0.80311  0.42331  Biso   1.000  C
  C609     1.0000 0.57669  0.03692  0.30311  Biso   1.000  C
  H656     1.0000 0.52661  0.07169  0.16599  Biso   1.000  H
  H657     1.0000 0.57512  0.02970  0.15510  Biso   1.000  H
  H658     1.0000 0.47830  0.02421  0.10688  Biso   1.000  H
  H659     1.0000 0.52170  0.97579  0.10688  Biso   1.000  H
  H660     1.0000 0.37390  0.84292  0.47211  Biso   1.000  H
  N111     1.0000 0.26759  0.95990  0.45071  Biso   1.000  N
  H661     1.0000 0.29861  0.90422  0.49600  Biso   1.000  H
  N112     1.0000 0.45071  0.76759  0.45990  Biso   1.000  N
  H662     1.0000 0.49600  0.79861  0.40422  Biso   1.000  H
  C610     1.0000 0.59038  0.07161  0.35059  Biso   1.000  C
  H663     1.0000 0.59578  0.00400  0.29861  Biso   1.000  H
  C611     1.0000 0.22362  0.97051  0.49010  Biso   1.000  C
  C612     1.0000 0.49010  0.72362  0.47051  Biso   1.000  C
  C613     1.0000 0.55849  0.11719  0.36441  Biso   1.000  C
  C614     1.0000 0.63559  0.05849  0.38281  Biso   1.000  C
  C615     1.0000 0.22362  0.02949  0.50990  Biso   1.000  C
  H664     1.0000 0.22820  0.94592  0.52190  Biso   1.000  H
  C616     1.0000 0.16690  0.96308  0.46692  Biso   1.000  C
  C617     1.0000 0.50990  0.72362  0.52949  Biso   1.000  C
  H665     1.0000 0.52190  0.72820  0.44592  Biso   1.000  H
  C618     1.0000 0.46692  0.66690  0.46308  Biso   1.000  C
  C619     1.0000 0.57161  0.14941  0.40962  Biso   1.000  C
  H666     1.0000 0.52789  0.12610  0.34292  Biso   1.000  H
  C620     1.0000 0.64941  0.09038  0.42839  Biso   1.000  C
  H667     1.0000 0.65708  0.02789  0.37390  Biso   1.000  H
  N113     1.0000 0.26759  0.04010  0.54929  Biso   1.000  N
  H668     1.0000 0.22820  0.05408  0.47810  Biso   1.000  H
  C621     1.0000 0.16690  0.03692  0.53308  Biso   1.000  C
  C622     1.0000 0.13031  0.00000  0.50000  Biso   1.000  C
  H669     1.0000 0.16599  0.97339  0.42831  Biso   1.000  H
  H670     1.0000 0.15510  0.92488  0.47030  Biso   1.000  H
  N114     1.0000 0.54929  0.76759  0.54010  Biso   1.000  N
  H671     1.0000 0.47810  0.72820  0.55408  Biso   1.000  H
  C623     1.0000 0.53308  0.66690  0.53692  Biso   1.000  C
  C624     1.0000 0.50000  0.63031  0.50000  Biso   1.000  C
  H672     1.0000 0.42831  0.66599  0.47339  Biso   1.000  H
  H673     1.0000 0.47030  0.65510  0.42488  Biso   1.000  H
  C625     1.0000 0.53692  0.19689  0.42331  Biso   1.000  C
  C626     1.0000 0.61719  0.13559  0.44151  Biso   1.000  C
  C627     1.0000 0.69689  0.07669  0.46308  Biso   1.000  C
  C628     1.0000 0.30311  0.07669  0.53692  Biso   1.000  C
  H674     1.0000 0.16599  0.02661  0.57169  Biso   1.000  H
  H675     1.0000 0.15510  0.07512  0.52970  Biso   1.000  H
  H676     1.0000 0.10688  0.02170  0.47579  Biso   1.000  H
  H677     1.0000 0.10688  0.97830  0.52421  Biso   1.000  H
  C629     1.0000 0.53692  0.80311  0.57669  Biso   1.000  C
  H678     1.0000 0.57169  0.66599  0.52661  Biso   1.000  H
  H679     1.0000 0.52970  0.65510  0.57512  Biso   1.000  H
  H680     1.0000 0.47579  0.60688  0.52170  Biso   1.000  H
  H681     1.0000 0.52421  0.60688  0.47830  Biso   1.000  H
  N115     1.0000 0.54929  0.23241  0.45990  Biso   1.000  N
  H682     1.0000 0.50400  0.20139  0.40422  Biso   1.000  H
  H683     1.0000 0.62610  0.15708  0.47211  Biso   1.000  H
  N116     1.0000 0.73241  0.04010  0.45071  Biso   1.000  N
  H684     1.0000 0.70139  0.09578  0.49600  Biso   1.000  H
  C630     1.0000 0.35059  0.09038  0.57161  Biso   1.000  C
  H685     1.0000 0.29861  0.09578  0.50400  Biso   1.000  H
  C631     1.0000 0.57161  0.85059  0.59038  Biso   1.000  C
  H686     1.0000 0.50400  0.79861  0.59578  Biso   1.000  H
  C632     1.0000 0.50990  0.27638  0.47051  Biso   1.000  C
  C633     1.0000 0.77638  0.02949  0.49010  Biso   1.000  C
  C634     1.0000 0.38281  0.13559  0.55849  Biso   1.000  C
  C635     1.0000 0.36441  0.05849  0.61719  Biso   1.000  C
  C636     1.0000 0.61719  0.86441  0.55849  Biso   1.000  C
  C637     1.0000 0.55849  0.88281  0.63559  Biso   1.000  C
  C638     1.0000 0.49010  0.27638  0.52949  Biso   1.000  C
  H687     1.0000 0.47810  0.27180  0.44592  Biso   1.000  H
  C639     1.0000 0.53308  0.33310  0.46308  Biso   1.000  C
  H688     1.0000 0.77180  0.05408  0.52190  Biso   1.000  H
  C640     1.0000 0.83310  0.03692  0.46692  Biso   1.000  C
  C641     1.0000 0.77638  0.97051  0.50990  Biso   1.000  C
  C642     1.0000 0.42839  0.14941  0.59038  Biso   1.000  C
  H689     1.0000 0.37390  0.15708  0.52789  Biso   1.000  H
  C643     1.0000 0.40962  0.07161  0.64941  Biso   1.000  C
  H690     1.0000 0.34292  0.02789  0.62610  Biso   1.000  H
  C644     1.0000 0.64941  0.90962  0.57161  Biso   1.000  C
  H691     1.0000 0.62610  0.84292  0.52789  Biso   1.000  H
  C645     1.0000 0.59038  0.92839  0.64941  Biso   1.000  C
  H692     1.0000 0.52789  0.87390  0.65708  Biso   1.000  H
  N117     1.0000 0.45071  0.23241  0.54010  Biso   1.000  N
  H693     1.0000 0.52190  0.27180  0.55408  Biso   1.000  H
  C646     1.0000 0.46692  0.33310  0.53692  Biso   1.000  C
  C647     1.0000 0.50000  0.36969  0.50000  Biso   1.000  C
  H694     1.0000 0.57169  0.33401  0.47339  Biso   1.000  H
  H695     1.0000 0.52970  0.34490  0.42488  Biso   1.000  H
  H696     1.0000 0.83401  0.02661  0.42831  Biso   1.000  H
  H697     1.0000 0.84490  0.07512  0.47030  Biso   1.000  H
  C648     1.0000 0.86969  0.00000  0.50000  Biso   1.000  C
  N118     1.0000 0.73241  0.95990  0.54929  Biso   1.000  N
  H698     1.0000 0.77180  0.94592  0.47810  Biso   1.000  H
  C649     1.0000 0.83310  0.96308  0.53308  Biso   1.000  C
  C650     1.0000 0.46308  0.19689  0.57669  Biso   1.000  C
  C651     1.0000 0.44151  0.11719  0.63559  Biso   1.000  C
  C652     1.0000 0.42331  0.03692  0.69689  Biso   1.000  C
  C653     1.0000 0.69689  0.92331  0.53692  Biso   1.000  C
  C654     1.0000 0.63559  0.94151  0.61719  Biso   1.000  C
  C655     1.0000 0.57669  0.96308  0.69689  Biso   1.000  C
  H699     1.0000 0.42831  0.33401  0.52661  Biso   1.000  H
  H700     1.0000 0.47030  0.34490  0.57512  Biso   1.000  H
  H701     1.0000 0.52421  0.39312  0.52170  Biso   1.000  H
  H702     1.0000 0.47579  0.39312  0.47830  Biso   1.000  H
  H703     1.0000 0.89312  0.02170  0.52421  Biso   1.000  H
  H704     1.0000 0.89312  0.97830  0.47579  Biso   1.000  H
  H705     1.0000 0.83401  0.97339  0.57169  Biso   1.000  H
  H706     1.0000 0.84490  0.92488  0.52970  Biso   1.000  H
  H707     1.0000 0.49600  0.20139  0.59578  Biso   1.000  H
  H708     1.0000 0.47211  0.12610  0.65708  Biso   1.000  H
  N119     1.0000 0.45990  0.04929  0.73241  Biso   1.000  N
  H709     1.0000 0.40422  0.00400  0.70139  Biso   1.000  H
  H710     1.0000 0.70139  0.90422  0.50400  Biso   1.000  H
  H711     1.0000 0.65708  0.97211  0.62610  Biso   1.000  H
  N120     1.0000 0.54010  0.95071  0.73241  Biso   1.000  N
  H712     1.0000 0.59578  0.99600  0.70139  Biso   1.000  H
  C656     1.0000 0.47051  0.00990  0.77638  Biso   1.000  C
  C657     1.0000 0.52949  0.99010  0.77638  Biso   1.000  C
  C658     1.0000 0.46308  0.03308  0.83310  Biso   1.000  C
  H713     1.0000 0.44592  0.97810  0.77180  Biso   1.000  H
  H714     1.0000 0.55408  0.02190  0.77180  Biso   1.000  H
  C659     1.0000 0.53692  0.96692  0.83310  Biso   1.000  C
  H715     1.0000 0.47339  0.07169  0.83401  Biso   1.000  H
  H716     1.0000 0.42488  0.02970  0.84490  Biso   1.000  H
  C660     1.0000 0.50000  0.00000  0.86969  Biso   1.000  C
  H717     1.0000 0.52661  0.92831  0.83401  Biso   1.000  H
  H718     1.0000 0.57512  0.97030  0.84490  Biso   1.000  H
  H719     1.0000 0.52170  0.02421  0.89312  Biso   1.000  H
  H720     1.0000 0.47830  0.97579  0.89312  Biso   1.000  H
  C661     1.0000 0.42331  0.96308  0.30311  Biso   1.000  C
  N121     1.0000 0.45990  0.95071  0.26759  Biso   1.000  N
  C662     1.0000 0.40962  0.92839  0.35059  Biso   1.000  C
  H721     1.0000 0.40422  0.99600  0.29861  Biso   1.000  H
  C663     1.0000 0.47051  0.99010  0.22362  Biso   1.000  C
  C664     1.0000 0.36441  0.94151  0.38281  Biso   1.000  C
  C665     1.0000 0.44151  0.88281  0.36441  Biso   1.000  C
  C666     1.0000 0.52949  0.00990  0.22362  Biso   1.000  C
  H722     1.0000 0.44592  0.02190  0.22820  Biso   1.000  H
  C667     1.0000 0.46308  0.96692  0.16690  Biso   1.000  C
  H723     1.0000 0.34292  0.97211  0.37390  Biso   1.000  H
  C668     1.0000 0.35059  0.90962  0.42839  Biso   1.000  C
  H724     1.0000 0.47211  0.87390  0.34292  Biso   1.000  H
  C669     1.0000 0.42839  0.85059  0.40962  Biso   1.000  C
  N122     1.0000 0.54010  0.04929  0.26759  Biso   1.000  N
  C670     1.0000 0.53692  0.03308  0.16690  Biso   1.000  C
  H725     1.0000 0.55408  0.97810  0.22820  Biso   1.000  H
  C671     1.0000 0.50000  0.00000  0.13031  Biso   1.000  C
  H726     1.0000 0.47339  0.92831  0.16599  Biso   1.000  H
  H727     1.0000 0.42488  0.97030  0.15510  Biso   1.000  H
  C672     1.0000 0.38281  0.86441  0.44151  Biso   1.000  C
  C673     1.0000 0.30311  0.92331  0.46308  Biso   1.000  C
  C674     1.0000 0.46308  0.80311  0.42331  Biso   1.000  C
  C675     1.0000 0.57669  0.03692  0.30311  Biso   1.000  C
  H728     1.0000 0.52661  0.07169  0.16599  Biso   1.000  H
  H729     1.0000 0.57512  0.02970  0.15510  Biso   1.000  H
  H730     1.0000 0.47830  0.02421  0.10688  Biso   1.000  H
  H731     1.0000 0.52170  0.97579  0.10688  Biso   1.000  H
  H732     1.0000 0.37390  0.84292  0.47211  Biso   1.000  H
  N123     1.0000 0.26759  0.95990  0.45071  Biso   1.000  N
  H733     1.0000 0.29861  0.90422  0.49600  Biso   1.000  H
  N124     1.0000 0.45071  0.76759  0.45990  Biso   1.000  N
  H734     1.0000 0.49600  0.79861  0.40422  Biso   1.000  H
  C676     1.0000 0.59038  0.07161  0.35059  Biso   1.000  C
  H735     1.0000 0.59578  0.00400  0.29861  Biso   1.000  H
  C677     1.0000 0.22362  0.97051  0.49010  Biso   1.000  C
  C678     1.0000 0.49010  0.72362  0.47051  Biso   1.000  C
  C679     1.0000 0.55849  0.11719  0.36441  Biso   1.000  C
  C680     1.0000 0.63559  0.05849  0.38281  Biso   1.000  C
  C681     1.0000 0.22362  0.02949  0.50990  Biso   1.000  C
  H736     1.0000 0.22820  0.94592  0.52190  Biso   1.000  H
  C682     1.0000 0.16690  0.96308  0.46692  Biso   1.000  C
  C683     1.0000 0.50990  0.72362  0.52949  Biso   1.000  C
  H737     1.0000 0.52190  0.72820  0.44592  Biso   1.000  H
  C684     1.0000 0.46692  0.66690  0.46308  Biso   1.000  C
  C685     1.0000 0.57161  0.14941  0.40962  Biso   1.000  C
  H738     1.0000 0.52789  0.12610  0.34292  Biso   1.000  H
  C686     1.0000 0.64941  0.09038  0.42839  Biso   1.000  C
  H739     1.0000 0.65708  0.02789  0.37390  Biso   1.000  H
  N125     1.0000 0.26759  0.04010  0.54929  Biso   1.000  N
  H740     1.0000 0.22820  0.05408  0.47810  Biso   1.000  H
  C687     1.0000 0.16690  0.03692  0.53308  Biso   1.000  C
  C688     1.0000 0.13031  0.00000  0.50000  Biso   1.000  C
  H741     1.0000 0.16599  0.97339  0.42831  Biso   1.000  H
  H742     1.0000 0.15510  0.92488  0.47030  Biso   1.000  H
  N126     1.0000 0.54929  0.76759  0.54010  Biso   1.000  N
  H743     1.0000 0.47810  0.72820  0.55408  Biso   1.000  H
  C689     1.0000 0.53308  0.66690  0.53692  Biso   1.000  C
  C690     1.0000 0.50000  0.63031  0.50000  Biso   1.000  C
  H744     1.0000 0.42831  0.66599  0.47339  Biso   1.000  H
  H745     1.0000 0.47030  0.65510  0.42488  Biso   1.000  H
  C691     1.0000 0.53692  0.19689  0.42331  Biso   1.000  C
  C692     1.0000 0.61719  0.13559  0.44151  Biso   1.000  C
  C693     1.0000 0.69689  0.07669  0.46308  Biso   1.000  C
  C694     1.0000 0.30311  0.07669  0.53692  Biso   1.000  C
  H746     1.0000 0.16599  0.02661  0.57169  Biso   1.000  H
  H747     1.0000 0.15510  0.07512  0.52970  Biso   1.000  H
  H748     1.0000 0.10688  0.02170  0.47579  Biso   1.000  H
  H749     1.0000 0.10688  0.97830  0.52421  Biso   1.000  H
  C695     1.0000 0.53692  0.80311  0.57669  Biso   1.000  C
  H750     1.0000 0.57169  0.66599  0.52661  Biso   1.000  H
  H751     1.0000 0.52970  0.65510  0.57512  Biso   1.000  H
  H752     1.0000 0.47579  0.60688  0.52170  Biso   1.000  H
  H753     1.0000 0.52421  0.60688  0.47830  Biso   1.000  H
  N127     1.0000 0.54929  0.23241  0.45990  Biso   1.000  N
  H754     1.0000 0.50400  0.20139  0.40422  Biso   1.000  H
  H755     1.0000 0.62610  0.15708  0.47211  Biso   1.000  H
  N128     1.0000 0.73241  0.04010  0.45071  Biso   1.000  N
  H756     1.0000 0.70139  0.09578  0.49600  Biso   1.000  H
  C696     1.0000 0.35059  0.09038  0.57161  Biso   1.000  C
  H757     1.0000 0.29861  0.09578  0.50400  Biso   1.000  H
  C697     1.0000 0.57161  0.85059  0.59038  Biso   1.000  C
  H758     1.0000 0.50400  0.79861  0.59578  Biso   1.000  H
  C698     1.0000 0.50990  0.27638  0.47051  Biso   1.000  C
  C699     1.0000 0.77638  0.02949  0.49010  Biso   1.000  C
  C700     1.0000 0.38281  0.13559  0.55849  Biso   1.000  C
  C701     1.0000 0.36441  0.05849  0.61719  Biso   1.000  C
  C702     1.0000 0.61719  0.86441  0.55849  Biso   1.000  C
  C703     1.0000 0.55849  0.88281  0.63559  Biso   1.000  C
  C704     1.0000 0.49010  0.27638  0.52949  Biso   1.000  C
  H759     1.0000 0.47810  0.27180  0.44592  Biso   1.000  H
  C705     1.0000 0.53308  0.33310  0.46308  Biso   1.000  C
  H760     1.0000 0.77180  0.05408  0.52190  Biso   1.000  H
  C706     1.0000 0.83310  0.03692  0.46692  Biso   1.000  C
  C707     1.0000 0.77638  0.97051  0.50990  Biso   1.000  C
  C708     1.0000 0.42839  0.14941  0.59038  Biso   1.000  C
  H761     1.0000 0.37390  0.15708  0.52789  Biso   1.000  H
  C709     1.0000 0.40962  0.07161  0.64941  Biso   1.000  C
  H762     1.0000 0.34292  0.02789  0.62610  Biso   1.000  H
  C710     1.0000 0.64941  0.90962  0.57161  Biso   1.000  C
  H763     1.0000 0.62610  0.84292  0.52789  Biso   1.000  H
  C711     1.0000 0.59038  0.92839  0.64941  Biso   1.000  C
  H764     1.0000 0.52789  0.87390  0.65708  Biso   1.000  H
  N129     1.0000 0.45071  0.23241  0.54010  Biso   1.000  N
  H765     1.0000 0.52190  0.27180  0.55408  Biso   1.000  H
  C712     1.0000 0.46692  0.33310  0.53692  Biso   1.000  C
  C713     1.0000 0.50000  0.36969  0.50000  Biso   1.000  C
  H766     1.0000 0.57169  0.33401  0.47339  Biso   1.000  H
  H767     1.0000 0.52970  0.34490  0.42488  Biso   1.000  H
  H768     1.0000 0.83401  0.02661  0.42831  Biso   1.000  H
  H769     1.0000 0.84490  0.07512  0.47030  Biso   1.000  H
  C714     1.0000 0.86969  0.00000  0.50000  Biso   1.000  C
  N130     1.0000 0.73241  0.95990  0.54929  Biso   1.000  N
  H770     1.0000 0.77180  0.94592  0.47810  Biso   1.000  H
  C715     1.0000 0.83310  0.96308  0.53308  Biso   1.000  C
  C716     1.0000 0.46308  0.19689  0.57669  Biso   1.000  C
  C717     1.0000 0.44151  0.11719  0.63559  Biso   1.000  C
  C718     1.0000 0.42331  0.03692  0.69689  Biso   1.000  C
  C719     1.0000 0.69689  0.92331  0.53692  Biso   1.000  C
  C720     1.0000 0.63559  0.94151  0.61719  Biso   1.000  C
  C721     1.0000 0.57669  0.96308  0.69689  Biso   1.000  C
  H771     1.0000 0.42831  0.33401  0.52661  Biso   1.000  H
  H772     1.0000 0.47030  0.34490  0.57512  Biso   1.000  H
  H773     1.0000 0.52421  0.39312  0.52170  Biso   1.000  H
  H774     1.0000 0.47579  0.39312  0.47830  Biso   1.000  H
  H775     1.0000 0.89312  0.02170  0.52421  Biso   1.000  H
  H776     1.0000 0.89312  0.97830  0.47579  Biso   1.000  H
  H777     1.0000 0.83401  0.97339  0.57169  Biso   1.000  H
  H778     1.0000 0.84490  0.92488  0.52970  Biso   1.000  H
  H779     1.0000 0.49600  0.20139  0.59578  Biso   1.000  H
  H780     1.0000 0.47211  0.12610  0.65708  Biso   1.000  H
  N131     1.0000 0.45990  0.04929  0.73241  Biso   1.000  N
  H781     1.0000 0.40422  0.00400  0.70139  Biso   1.000  H
  H782     1.0000 0.70139  0.90422  0.50400  Biso   1.000  H
  H783     1.0000 0.65708  0.97211  0.62610  Biso   1.000  H
  N132     1.0000 0.54010  0.95071  0.73241  Biso   1.000  N
  H784     1.0000 0.59578  0.99600  0.70139  Biso   1.000  H
  C722     1.0000 0.47051  0.00990  0.77638  Biso   1.000  C
  C723     1.0000 0.52949  0.99010  0.77638  Biso   1.000  C
  C724     1.0000 0.46308  0.03308  0.83310  Biso   1.000  C
  H785     1.0000 0.44592  0.97810  0.77180  Biso   1.000  H
  H786     1.0000 0.55408  0.02190  0.77180  Biso   1.000  H
  C725     1.0000 0.53692  0.96692  0.83310  Biso   1.000  C
  H787     1.0000 0.47339  0.07169  0.83401  Biso   1.000  H
  H788     1.0000 0.42488  0.02970  0.84490  Biso   1.000  H
  C726     1.0000 0.50000  0.00000  0.86969  Biso   1.000  C
  H789     1.0000 0.52661  0.92831  0.83401  Biso   1.000  H
  H790     1.0000 0.57512  0.97030  0.84490  Biso   1.000  H
  H791     1.0000 0.52170  0.02421  0.89312  Biso   1.000  H
  H792     1.0000 0.47830  0.97579  0.89312  Biso   1.000  H
  C727     1.0000 0.30311  0.42331  0.96308  Biso   1.000  C
  C728     1.0000 0.35059  0.40962  0.92839  Biso   1.000  C
  N133     1.0000 0.26759  0.45990  0.95071  Biso   1.000  N
  H793     1.0000 0.29861  0.40422  0.99600  Biso   1.000  H
  C729     1.0000 0.38281  0.36441  0.94151  Biso   1.000  C
  C730     1.0000 0.36441  0.44151  0.88281  Biso   1.000  C
  C731     1.0000 0.22362  0.47051  0.99010  Biso   1.000  C
  C732     1.0000 0.42839  0.35059  0.90962  Biso   1.000  C
  H794     1.0000 0.37390  0.34292  0.97211  Biso   1.000  H
  C733     1.0000 0.40962  0.42839  0.85059  Biso   1.000  C
  H795     1.0000 0.34292  0.47211  0.87390  Biso   1.000  H
  C734     1.0000 0.22362  0.52949  0.00990  Biso   1.000  C
  H796     1.0000 0.22820  0.44592  0.02190  Biso   1.000  H
  C735     1.0000 0.16690  0.46308  0.96692  Biso   1.000  C
  C736     1.0000 0.46308  0.30311  0.92331  Biso   1.000  C
  C737     1.0000 0.44151  0.38281  0.86441  Biso   1.000  C
  C738     1.0000 0.42331  0.46308  0.80311  Biso   1.000  C
  N134     1.0000 0.26759  0.54010  0.04929  Biso   1.000  N
  C739     1.0000 0.16690  0.53692  0.03308  Biso   1.000  C
  H797     1.0000 0.22820  0.55408  0.97810  Biso   1.000  H
  C740     1.0000 0.13031  0.50000  0.00000  Biso   1.000  C
  H798     1.0000 0.16599  0.47339  0.92831  Biso   1.000  H
  H799     1.0000 0.15510  0.42488  0.97030  Biso   1.000  H
  N135     1.0000 0.45071  0.26759  0.95990  Biso   1.000  N
  H800     1.0000 0.49600  0.29861  0.90422  Biso   1.000  H
  H801     1.0000 0.47211  0.37390  0.84292  Biso   1.000  H
  N136     1.0000 0.45990  0.45071  0.76759  Biso   1.000  N
  H802     1.0000 0.40422  0.49600  0.79861  Biso   1.000  H
  C741     1.0000 0.30311  0.57669  0.03692  Biso   1.000  C
  H803     1.0000 0.16599  0.52661  0.07169  Biso   1.000  H
  H804     1.0000 0.15510  0.57512  0.02970  Biso   1.000  H
  H805     1.0000 0.10688  0.47830  0.02421  Biso   1.000  H
  H806     1.0000 0.10688  0.52170  0.97579  Biso   1.000  H
  C742     1.0000 0.49010  0.22362  0.97051  Biso   1.000  C
  C743     1.0000 0.47051  0.49010  0.72362  Biso   1.000  C
  C744     1.0000 0.35059  0.59038  0.07161  Biso   1.000  C
  H807     1.0000 0.29861  0.59578  0.00400  Biso   1.000  H
  C745     1.0000 0.50990  0.22362  0.02949  Biso   1.000  C
  H808     1.0000 0.52190  0.22820  0.94592  Biso   1.000  H
  C746     1.0000 0.46692  0.16690  0.96308  Biso   1.000  C
  C747     1.0000 0.52949  0.50990  0.72362  Biso   1.000  C
  H809     1.0000 0.44592  0.52190  0.72820  Biso   1.000  H
  C748     1.0000 0.46308  0.46692  0.66690  Biso   1.000  C
  C749     1.0000 0.36441  0.55849  0.11719  Biso   1.000  C
  C750     1.0000 0.38281  0.63559  0.05849  Biso   1.000  C
  N137     1.0000 0.54929  0.26759  0.04010  Biso   1.000  N
  H810     1.0000 0.47810  0.22820  0.05408  Biso   1.000  H
  C751     1.0000 0.53308  0.16690  0.03692  Biso   1.000  C
  C752     1.0000 0.50000  0.13031  0.00000  Biso   1.000  C
  H811     1.0000 0.42831  0.16599  0.97339  Biso   1.000  H
  H812     1.0000 0.47030  0.15510  0.92488  Biso   1.000  H
  N138     1.0000 0.54010  0.54929  0.76759  Biso   1.000  N
  H813     1.0000 0.55408  0.47810  0.72820  Biso   1.000  H
  C753     1.0000 0.53692  0.53308  0.66690  Biso   1.000  C
  C754     1.0000 0.50000  0.50000  0.63031  Biso   1.000  C
  H814     1.0000 0.47339  0.42831  0.66599  Biso   1.000  H
  H815     1.0000 0.42488  0.47030  0.65510  Biso   1.000  H
  C755     1.0000 0.40962  0.57161  0.14941  Biso   1.000  C
  H816     1.0000 0.34292  0.52789  0.12610  Biso   1.000  H
  C756     1.0000 0.42839  0.64941  0.09038  Biso   1.000  C
  H817     1.0000 0.37390  0.65708  0.02789  Biso   1.000  H
  C757     1.0000 0.53692  0.30311  0.07669  Biso   1.000  C
  H818     1.0000 0.57169  0.16599  0.02661  Biso   1.000  H
  H819     1.0000 0.52970  0.15510  0.07512  Biso   1.000  H
  H820     1.0000 0.47579  0.10688  0.02170  Biso   1.000  H
  H821     1.0000 0.52421  0.10688  0.97830  Biso   1.000  H
  C758     1.0000 0.57669  0.53692  0.80311  Biso   1.000  C
  H822     1.0000 0.52661  0.57169  0.66599  Biso   1.000  H
  H823     1.0000 0.57512  0.52970  0.65510  Biso   1.000  H
  H824     1.0000 0.52170  0.47579  0.60688  Biso   1.000  H
  H825     1.0000 0.47830  0.52421  0.60688  Biso   1.000  H
  C759     1.0000 0.42331  0.53692  0.19689  Biso   1.000  C
  C760     1.0000 0.44151  0.61719  0.13559  Biso   1.000  C
  C761     1.0000 0.46308  0.69689  0.07669  Biso   1.000  C
  C762     1.0000 0.57161  0.35059  0.09038  Biso   1.000  C
  H826     1.0000 0.50400  0.29861  0.09578  Biso   1.000  H
  C763     1.0000 0.59038  0.57161  0.85059  Biso   1.000  C
  H827     1.0000 0.59578  0.50400  0.79861  Biso   1.000  H
  N139     1.0000 0.45990  0.54929  0.23241  Biso   1.000  N
  H828     1.0000 0.40422  0.50400  0.20139  Biso   1.000  H
  H829     1.0000 0.47211  0.62610  0.15708  Biso   1.000  H
  N140     1.0000 0.45071  0.73241  0.04010  Biso   1.000  N
  H830     1.0000 0.49600  0.70139  0.09578  Biso   1.000  H
  C764     1.0000 0.61719  0.36441  0.05849  Biso   1.000  C
  C765     1.0000 0.55849  0.38281  0.13559  Biso   1.000  C
  C766     1.0000 0.63559  0.55849  0.88281  Biso   1.000  C
  C767     1.0000 0.55849  0.61719  0.86441  Biso   1.000  C
  C768     1.0000 0.47051  0.50990  0.27638  Biso   1.000  C
  C769     1.0000 0.49010  0.77638  0.02949  Biso   1.000  C
  H831     1.0000 0.62610  0.34292  0.02789  Biso   1.000  H
  C770     1.0000 0.64941  0.40962  0.07161  Biso   1.000  C
  C771     1.0000 0.59038  0.42839  0.14941  Biso   1.000  C
  H832     1.0000 0.52789  0.37390  0.15708  Biso   1.000  H
  C772     1.0000 0.64941  0.59038  0.92839  Biso   1.000  C
  H833     1.0000 0.65708  0.52789  0.87390  Biso   1.000  H
  C773     1.0000 0.57161  0.64941  0.90962  Biso   1.000  C
  H834     1.0000 0.52789  0.62610  0.84292  Biso   1.000  H
  C774     1.0000 0.52949  0.49010  0.27638  Biso   1.000  C
  H835     1.0000 0.44592  0.47810  0.27180  Biso   1.000  H
  C775     1.0000 0.46308  0.53308  0.33310  Biso   1.000  C
  C776     1.0000 0.50990  0.77638  0.97051  Biso   1.000  C
  H836     1.0000 0.52190  0.77180  0.05408  Biso   1.000  H
  C777     1.0000 0.46692  0.83310  0.03692  Biso   1.000  C
  C778     1.0000 0.63559  0.44151  0.11719  Biso   1.000  C
  C779     1.0000 0.69689  0.42331  0.03692  Biso   1.000  C
  C780     1.0000 0.57669  0.46308  0.19689  Biso   1.000  C
  C781     1.0000 0.69689  0.57669  0.96308  Biso   1.000  C
  C782     1.0000 0.61719  0.63559  0.94151  Biso   1.000  C
  C783     1.0000 0.53692  0.69689  0.92331  Biso   1.000  C
  N141     1.0000 0.54010  0.45071  0.23241  Biso   1.000  N
  H837     1.0000 0.55408  0.52190  0.27180  Biso   1.000  H
  C784     1.0000 0.53692  0.46692  0.33310  Biso   1.000  C
  C785     1.0000 0.50000  0.50000  0.36969  Biso   1.000  C
  H838     1.0000 0.47339  0.57169  0.33401  Biso   1.000  H
  H839     1.0000 0.42488  0.52970  0.34490  Biso   1.000  H
  N142     1.0000 0.54929  0.73241  0.95990  Biso   1.000  N
  H840     1.0000 0.47810  0.77180  0.94592  Biso   1.000  H
  C786     1.0000 0.53308  0.83310  0.96308  Biso   1.000  C
  C787     1.0000 0.50000  0.86969  0.00000  Biso   1.000  C
  H841     1.0000 0.42831  0.83401  0.02661  Biso   1.000  H
  H842     1.0000 0.47030  0.84490  0.07512  Biso   1.000  H
  H843     1.0000 0.65708  0.47211  0.12610  Biso   1.000  H
  N143     1.0000 0.73241  0.45990  0.04929  Biso   1.000  N
  H844     1.0000 0.70139  0.40422  0.00400  Biso   1.000  H
  H845     1.0000 0.59578  0.49600  0.20139  Biso   1.000  H
  N144     1.0000 0.73241  0.54010  0.95071  Biso   1.000  N
  H846     1.0000 0.70139  0.59578  0.99600  Biso   1.000  H
  H847     1.0000 0.62610  0.65708  0.97211  Biso   1.000  H
  H848     1.0000 0.50400  0.70139  0.90422  Biso   1.000  H
  H849     1.0000 0.52661  0.42831  0.33401  Biso   1.000  H
  H850     1.0000 0.57512  0.47030  0.34490  Biso   1.000  H
  H851     1.0000 0.52170  0.52421  0.39312  Biso   1.000  H
  H852     1.0000 0.47830  0.47579  0.39312  Biso   1.000  H
  H853     1.0000 0.57169  0.83401  0.97339  Biso   1.000  H
  H854     1.0000 0.52970  0.84490  0.92488  Biso   1.000  H
  H855     1.0000 0.52421  0.89312  0.02170  Biso   1.000  H
  H856     1.0000 0.47579  0.89312  0.97830  Biso   1.000  H
  C788     1.0000 0.77638  0.47051  0.00990  Biso   1.000  C
  C789     1.0000 0.77638  0.52949  0.99010  Biso   1.000  C
  C790     1.0000 0.83310  0.46308  0.03308  Biso   1.000  C
  H857     1.0000 0.77180  0.44592  0.97810  Biso   1.000  H
  H858     1.0000 0.77180  0.55408  0.02190  Biso   1.000  H
  C791     1.0000 0.83310  0.53692  0.96692  Biso   1.000  C
  H859     1.0000 0.83401  0.47339  0.07169  Biso   1.000  H
  H860     1.0000 0.84490  0.42488  0.02970  Biso   1.000  H
  C792     1.0000 0.86969  0.50000  0.00000  Biso   1.000  C
  H861     1.0000 0.83401  0.52661  0.92831  Biso   1.000  H
  H862     1.0000 0.84490  0.57512  0.97030  Biso   1.000  H
  H863     1.0000 0.89312  0.52170  0.02421  Biso   1.000  H
  H864     1.0000 0.89312  0.47830  0.97579  Biso   1.000  H
  C793     1.0000 0.30311  0.42331  0.96308  Biso   1.000  C
  C794     1.0000 0.35059  0.40962  0.92839  Biso   1.000  C
  N145     1.0000 0.26759  0.45990  0.95071  Biso   1.000  N
  H865     1.0000 0.29861  0.40422  0.99600  Biso   1.000  H
  C795     1.0000 0.38281  0.36441  0.94151  Biso   1.000  C
  C796     1.0000 0.36441  0.44151  0.88281  Biso   1.000  C
  C797     1.0000 0.22362  0.47051  0.99010  Biso   1.000  C
  C798     1.0000 0.42839  0.35059  0.90962  Biso   1.000  C
  H866     1.0000 0.37390  0.34292  0.97211  Biso   1.000  H
  C799     1.0000 0.40962  0.42839  0.85059  Biso   1.000  C
  H867     1.0000 0.34292  0.47211  0.87390  Biso   1.000  H
  C800     1.0000 0.22362  0.52949  0.00990  Biso   1.000  C
  H868     1.0000 0.22820  0.44592  0.02190  Biso   1.000  H
  C801     1.0000 0.16690  0.46308  0.96692  Biso   1.000  C
  C802     1.0000 0.46308  0.30311  0.92331  Biso   1.000  C
  C803     1.0000 0.44151  0.38281  0.86441  Biso   1.000  C
  C804     1.0000 0.42331  0.46308  0.80311  Biso   1.000  C
  N146     1.0000 0.26759  0.54010  0.04929  Biso   1.000  N
  C805     1.0000 0.16690  0.53692  0.03308  Biso   1.000  C
  H869     1.0000 0.22820  0.55408  0.97810  Biso   1.000  H
  C806     1.0000 0.13031  0.50000  0.00000  Biso   1.000  C
  H870     1.0000 0.16599  0.47339  0.92831  Biso   1.000  H
  H871     1.0000 0.15510  0.42488  0.97030  Biso   1.000  H
  N147     1.0000 0.45071  0.26759  0.95990  Biso   1.000  N
  H872     1.0000 0.49600  0.29861  0.90422  Biso   1.000  H
  H873     1.0000 0.47211  0.37390  0.84292  Biso   1.000  H
  N148     1.0000 0.45990  0.45071  0.76759  Biso   1.000  N
  H874     1.0000 0.40422  0.49600  0.79861  Biso   1.000  H
  C807     1.0000 0.30311  0.57669  0.03692  Biso   1.000  C
  H875     1.0000 0.16599  0.52661  0.07169  Biso   1.000  H
  H876     1.0000 0.15510  0.57512  0.02970  Biso   1.000  H
  H877     1.0000 0.10688  0.47830  0.02421  Biso   1.000  H
  H878     1.0000 0.10688  0.52170  0.97579  Biso   1.000  H
  C808     1.0000 0.49010  0.22362  0.97051  Biso   1.000  C
  C809     1.0000 0.47051  0.49010  0.72362  Biso   1.000  C
  C810     1.0000 0.35059  0.59038  0.07161  Biso   1.000  C
  H879     1.0000 0.29861  0.59578  0.00400  Biso   1.000  H
  C811     1.0000 0.50990  0.22362  0.02949  Biso   1.000  C
  H880     1.0000 0.52190  0.22820  0.94592  Biso   1.000  H
  C812     1.0000 0.46692  0.16690  0.96308  Biso   1.000  C
  C813     1.0000 0.52949  0.50990  0.72362  Biso   1.000  C
  H881     1.0000 0.44592  0.52190  0.72820  Biso   1.000  H
  C814     1.0000 0.46308  0.46692  0.66690  Biso   1.000  C
  C815     1.0000 0.36441  0.55849  0.11719  Biso   1.000  C
  C816     1.0000 0.38281  0.63559  0.05849  Biso   1.000  C
  N149     1.0000 0.54929  0.26759  0.04010  Biso   1.000  N
  H882     1.0000 0.47810  0.22820  0.05408  Biso   1.000  H
  C817     1.0000 0.53308  0.16690  0.03692  Biso   1.000  C
  C818     1.0000 0.50000  0.13031  0.00000  Biso   1.000  C
  H883     1.0000 0.42831  0.16599  0.97339  Biso   1.000  H
  H884     1.0000 0.47030  0.15510  0.92488  Biso   1.000  H
  N150     1.0000 0.54010  0.54929  0.76759  Biso   1.000  N
  H885     1.0000 0.55408  0.47810  0.72820  Biso   1.000  H
  C819     1.0000 0.53692  0.53308  0.66690  Biso   1.000  C
  C820     1.0000 0.50000  0.50000  0.63031  Biso   1.000  C
  H886     1.0000 0.47339  0.42831  0.66599  Biso   1.000  H
  H887     1.0000 0.42488  0.47030  0.65510  Biso   1.000  H
  C821     1.0000 0.40962  0.57161  0.14941  Biso   1.000  C
  H888     1.0000 0.34292  0.52789  0.12610  Biso   1.000  H
  C822     1.0000 0.42839  0.64941  0.09038  Biso   1.000  C
  H889     1.0000 0.37390  0.65708  0.02789  Biso   1.000  H
  C823     1.0000 0.53692  0.30311  0.07669  Biso   1.000  C
  H890     1.0000 0.57169  0.16599  0.02661  Biso   1.000  H
  H891     1.0000 0.52970  0.15510  0.07512  Biso   1.000  H
  H892     1.0000 0.47579  0.10688  0.02170  Biso   1.000  H
  H893     1.0000 0.52421  0.10688  0.97830  Biso   1.000  H
  C824     1.0000 0.57669  0.53692  0.80311  Biso   1.000  C
  H894     1.0000 0.52661  0.57169  0.66599  Biso   1.000  H
  H895     1.0000 0.57512  0.52970  0.65510  Biso   1.000  H
  H896     1.0000 0.52170  0.47579  0.60688  Biso   1.000  H
  H897     1.0000 0.47830  0.52421  0.60688  Biso   1.000  H
  C825     1.0000 0.42331  0.53692  0.19689  Biso   1.000  C
  C826     1.0000 0.44151  0.61719  0.13559  Biso   1.000  C
  C827     1.0000 0.46308  0.69689  0.07669  Biso   1.000  C
  C828     1.0000 0.57161  0.35059  0.09038  Biso   1.000  C
  H898     1.0000 0.50400  0.29861  0.09578  Biso   1.000  H
  C829     1.0000 0.59038  0.57161  0.85059  Biso   1.000  C
  H899     1.0000 0.59578  0.50400  0.79861  Biso   1.000  H
  N151     1.0000 0.45990  0.54929  0.23241  Biso   1.000  N
  H900     1.0000 0.40422  0.50400  0.20139  Biso   1.000  H
  H901     1.0000 0.47211  0.62610  0.15708  Biso   1.000  H
  N152     1.0000 0.45071  0.73241  0.04010  Biso   1.000  N
  H902     1.0000 0.49600  0.70139  0.09578  Biso   1.000  H
  C830     1.0000 0.61719  0.36441  0.05849  Biso   1.000  C
  C831     1.0000 0.55849  0.38281  0.13559  Biso   1.000  C
  C832     1.0000 0.63559  0.55849  0.88281  Biso   1.000  C
  C833     1.0000 0.55849  0.61719  0.86441  Biso   1.000  C
  C834     1.0000 0.47051  0.50990  0.27638  Biso   1.000  C
  C835     1.0000 0.49010  0.77638  0.02949  Biso   1.000  C
  H903     1.0000 0.62610  0.34292  0.02789  Biso   1.000  H
  C836     1.0000 0.64941  0.40962  0.07161  Biso   1.000  C
  C837     1.0000 0.59038  0.42839  0.14941  Biso   1.000  C
  H904     1.0000 0.52789  0.37390  0.15708  Biso   1.000  H
  C838     1.0000 0.64941  0.59038  0.92839  Biso   1.000  C
  H905     1.0000 0.65708  0.52789  0.87390  Biso   1.000  H
  C839     1.0000 0.57161  0.64941  0.90962  Biso   1.000  C
  H906     1.0000 0.52789  0.62610  0.84292  Biso   1.000  H
  C840     1.0000 0.52949  0.49010  0.27638  Biso   1.000  C
  H907     1.0000 0.44592  0.47810  0.27180  Biso   1.000  H
  C841     1.0000 0.46308  0.53308  0.33310  Biso   1.000  C
  C842     1.0000 0.50990  0.77638  0.97051  Biso   1.000  C
  H908     1.0000 0.52190  0.77180  0.05408  Biso   1.000  H
  C843     1.0000 0.46692  0.83310  0.03692  Biso   1.000  C
  C844     1.0000 0.63559  0.44151  0.11719  Biso   1.000  C
  C845     1.0000 0.69689  0.42331  0.03692  Biso   1.000  C
  C846     1.0000 0.57669  0.46308  0.19689  Biso   1.000  C
  C847     1.0000 0.69689  0.57669  0.96308  Biso   1.000  C
  C848     1.0000 0.61719  0.63559  0.94151  Biso   1.000  C
  C849     1.0000 0.53692  0.69689  0.92331  Biso   1.000  C
  N153     1.0000 0.54010  0.45071  0.23241  Biso   1.000  N
  H909     1.0000 0.55408  0.52190  0.27180  Biso   1.000  H
  C850     1.0000 0.53692  0.46692  0.33310  Biso   1.000  C
  C851     1.0000 0.50000  0.50000  0.36969  Biso   1.000  C
  H910     1.0000 0.47339  0.57169  0.33401  Biso   1.000  H
  H911     1.0000 0.42488  0.52970  0.34490  Biso   1.000  H
  N154     1.0000 0.54929  0.73241  0.95990  Biso   1.000  N
  H912     1.0000 0.47810  0.77180  0.94592  Biso   1.000  H
  C852     1.0000 0.53308  0.83310  0.96308  Biso   1.000  C
  C853     1.0000 0.50000  0.86969  0.00000  Biso   1.000  C
  H913     1.0000 0.42831  0.83401  0.02661  Biso   1.000  H
  H914     1.0000 0.47030  0.84490  0.07512  Biso   1.000  H
  H915     1.0000 0.65708  0.47211  0.12610  Biso   1.000  H
  N155     1.0000 0.73241  0.45990  0.04929  Biso   1.000  N
  H916     1.0000 0.70139  0.40422  0.00400  Biso   1.000  H
  H917     1.0000 0.59578  0.49600  0.20139  Biso   1.000  H
  N156     1.0000 0.73241  0.54010  0.95071  Biso   1.000  N
  H918     1.0000 0.70139  0.59578  0.99600  Biso   1.000  H
  H919     1.0000 0.62610  0.65708  0.97211  Biso   1.000  H
  H920     1.0000 0.50400  0.70139  0.90422  Biso   1.000  H
  H921     1.0000 0.52661  0.42831  0.33401  Biso   1.000  H
  H922     1.0000 0.57512  0.47030  0.34490  Biso   1.000  H
  H923     1.0000 0.52170  0.52421  0.39312  Biso   1.000  H
  H924     1.0000 0.47830  0.47579  0.39312  Biso   1.000  H
  H925     1.0000 0.57169  0.83401  0.97339  Biso   1.000  H
  H926     1.0000 0.52970  0.84490  0.92488  Biso   1.000  H
  H927     1.0000 0.52421  0.89312  0.02170  Biso   1.000  H
  H928     1.0000 0.47579  0.89312  0.97830  Biso   1.000  H
  C854     1.0000 0.77638  0.47051  0.00990  Biso   1.000  C
  C855     1.0000 0.77638  0.52949  0.99010  Biso   1.000  C
  C856     1.0000 0.83310  0.46308  0.03308  Biso   1.000  C
  H929     1.0000 0.77180  0.44592  0.97810  Biso   1.000  H
  H930     1.0000 0.77180  0.55408  0.02190  Biso   1.000  H
  C857     1.0000 0.83310  0.53692  0.96692  Biso   1.000  C
  H931     1.0000 0.83401  0.47339  0.07169  Biso   1.000  H
  H932     1.0000 0.84490  0.42488  0.02970  Biso   1.000  H
  C858     1.0000 0.86969  0.50000  0.00000  Biso   1.000  C
  H933     1.0000 0.83401  0.52661  0.92831  Biso   1.000  H
  H934     1.0000 0.84490  0.57512  0.97030  Biso   1.000  H
  H935     1.0000 0.89312  0.52170  0.02421  Biso   1.000  H
  H936     1.0000 0.89312  0.47830  0.97579  Biso   1.000  H
  C859     1.0000 0.96308  0.30311  0.42331  Biso   1.000  C
  N157     1.0000 0.95071  0.26759  0.45990  Biso   1.000  N
  C860     1.0000 0.92839  0.35059  0.40962  Biso   1.000  C
  H937     1.0000 0.99600  0.29861  0.40422  Biso   1.000  H
  C861     1.0000 0.99010  0.22362  0.47051  Biso   1.000  C
  C862     1.0000 0.94151  0.38281  0.36441  Biso   1.000  C
  C863     1.0000 0.88281  0.36441  0.44151  Biso   1.000  C
  C864     1.0000 0.00990  0.22362  0.52949  Biso   1.000  C
  H938     1.0000 0.02190  0.22820  0.44592  Biso   1.000  H
  C865     1.0000 0.96692  0.16690  0.46308  Biso   1.000  C
  H939     1.0000 0.97211  0.37390  0.34292  Biso   1.000  H
  C866     1.0000 0.90962  0.42839  0.35059  Biso   1.000  C
  H940     1.0000 0.87390  0.34292  0.47211  Biso   1.000  H
  C867     1.0000 0.85059  0.40962  0.42839  Biso   1.000  C
  N158     1.0000 0.04929  0.26759  0.54010  Biso   1.000  N
  C868     1.0000 0.03308  0.16690  0.53692  Biso   1.000  C
  H941     1.0000 0.97810  0.22820  0.55408  Biso   1.000  H
  C869     1.0000 0.00000  0.13031  0.50000  Biso   1.000  C
  H942     1.0000 0.92831  0.16599  0.47339  Biso   1.000  H
  H943     1.0000 0.97030  0.15510  0.42488  Biso   1.000  H
  C870     1.0000 0.86441  0.44151  0.38281  Biso   1.000  C
  C871     1.0000 0.92331  0.46308  0.30311  Biso   1.000  C
  C872     1.0000 0.80311  0.42331  0.46308  Biso   1.000  C
  C873     1.0000 0.03692  0.30311  0.57669  Biso   1.000  C
  H944     1.0000 0.07169  0.16599  0.52661  Biso   1.000  H
  H945     1.0000 0.02970  0.15510  0.57512  Biso   1.000  H
  H946     1.0000 0.02421  0.10688  0.47830  Biso   1.000  H
  H947     1.0000 0.97579  0.10688  0.52170  Biso   1.000  H
  H948     1.0000 0.84292  0.47211  0.37390  Biso   1.000  H
  N159     1.0000 0.95990  0.45071  0.26759  Biso   1.000  N
  H949     1.0000 0.90422  0.49600  0.29861  Biso   1.000  H
  N160     1.0000 0.76759  0.45990  0.45071  Biso   1.000  N
  H950     1.0000 0.79861  0.40422  0.49600  Biso   1.000  H
  C874     1.0000 0.07161  0.35059  0.59038  Biso   1.000  C
  H951     1.0000 0.00400  0.29861  0.59578  Biso   1.000  H
  C875     1.0000 0.97051  0.49010  0.22362  Biso   1.000  C
  C876     1.0000 0.72362  0.47051  0.49010  Biso   1.000  C
  C877     1.0000 0.11719  0.36441  0.55849  Biso   1.000  C
  C878     1.0000 0.05849  0.38281  0.63559  Biso   1.000  C
  C879     1.0000 0.02949  0.50990  0.22362  Biso   1.000  C
  H952     1.0000 0.94592  0.52190  0.22820  Biso   1.000  H
  C880     1.0000 0.96308  0.46692  0.16690  Biso   1.000  C
  C881     1.0000 0.72362  0.52949  0.50990  Biso   1.000  C
  H953     1.0000 0.72820  0.44592  0.52190  Biso   1.000  H
  C882     1.0000 0.66690  0.46308  0.46692  Biso   1.000  C
  C883     1.0000 0.14941  0.40962  0.57161  Biso   1.000  C
  H954     1.0000 0.12610  0.34292  0.52789  Biso   1.000  H
  C884     1.0000 0.09038  0.42839  0.64941  Biso   1.000  C
  H955     1.0000 0.02789  0.37390  0.65708  Biso   1.000  H
  N161     1.0000 0.04010  0.54929  0.26759  Biso   1.000  N
  H956     1.0000 0.05408  0.47810  0.22820  Biso   1.000  H
  C885     1.0000 0.03692  0.53308  0.16690  Biso   1.000  C
  C886     1.0000 0.00000  0.50000  0.13031  Biso   1.000  C
  H957     1.0000 0.97339  0.42831  0.16599  Biso   1.000  H
  H958     1.0000 0.92488  0.47030  0.15510  Biso   1.000  H
  N162     1.0000 0.76759  0.54010  0.54929  Biso   1.000  N
  H959     1.0000 0.72820  0.55408  0.47810  Biso   1.000  H
  C887     1.0000 0.66690  0.53692  0.53308  Biso   1.000  C
  C888     1.0000 0.63031  0.50000  0.50000  Biso   1.000  C
  H960     1.0000 0.66599  0.47339  0.42831  Biso   1.000  H
  H961     1.0000 0.65510  0.42488  0.47030  Biso   1.000  H
  C889     1.0000 0.19689  0.42331  0.53692  Biso   1.000  C
  C890     1.0000 0.13559  0.44151  0.61719  Biso   1.000  C
  C891     1.0000 0.07669  0.46308  0.69689  Biso   1.000  C
  C892     1.0000 0.07669  0.53692  0.30311  Biso   1.000  C
  H962     1.0000 0.02661  0.57169  0.16599  Biso   1.000  H
  H963     1.0000 0.07512  0.52970  0.15510  Biso   1.000  H
  H964     1.0000 0.02170  0.47579  0.10688  Biso   1.000  H
  H965     1.0000 0.97830  0.52421  0.10688  Biso   1.000  H
  C893     1.0000 0.80311  0.57669  0.53692  Biso   1.000  C
  H966     1.0000 0.66599  0.52661  0.57169  Biso   1.000  H
  H967     1.0000 0.65510  0.57512  0.52970  Biso   1.000  H
  H968     1.0000 0.60688  0.52170  0.47579  Biso   1.000  H
  H969     1.0000 0.60688  0.47830  0.52421  Biso   1.000  H
  N163     1.0000 0.23241  0.45990  0.54929  Biso   1.000  N
  H970     1.0000 0.20139  0.40422  0.50400  Biso   1.000  H
  H971     1.0000 0.15708  0.47211  0.62610  Biso   1.000  H
  N164     1.0000 0.04010  0.45071  0.73241  Biso   1.000  N
  H972     1.0000 0.09578  0.49600  0.70139  Biso   1.000  H
  C894     1.0000 0.09038  0.57161  0.35059  Biso   1.000  C
  H973     1.0000 0.09578  0.50400  0.29861  Biso   1.000  H
  C895     1.0000 0.85059  0.59038  0.57161  Biso   1.000  C
  H974     1.0000 0.79861  0.59578  0.50400  Biso   1.000  H
  C896     1.0000 0.27638  0.47051  0.50990  Biso   1.000  C
  C897     1.0000 0.02949  0.49010  0.77638  Biso   1.000  C
  C898     1.0000 0.13559  0.55849  0.38281  Biso   1.000  C
  C899     1.0000 0.05849  0.61719  0.36441  Biso   1.000  C
  C900     1.0000 0.86441  0.55849  0.61719  Biso   1.000  C
  C901     1.0000 0.88281  0.63559  0.55849  Biso   1.000  C
  C902     1.0000 0.27638  0.52949  0.49010  Biso   1.000  C
  H975     1.0000 0.27180  0.44592  0.47810  Biso   1.000  H
  C903     1.0000 0.33310  0.46308  0.53308  Biso   1.000  C
  H976     1.0000 0.05408  0.52190  0.77180  Biso   1.000  H
  C904     1.0000 0.03692  0.46692  0.83310  Biso   1.000  C
  C905     1.0000 0.97051  0.50990  0.77638  Biso   1.000  C
  C906     1.0000 0.14941  0.59038  0.42839  Biso   1.000  C
  H977     1.0000 0.15708  0.52789  0.37390  Biso   1.000  H
  C907     1.0000 0.07161  0.64941  0.40962  Biso   1.000  C
  H978     1.0000 0.02789  0.62610  0.34292  Biso   1.000  H
  C908     1.0000 0.90962  0.57161  0.64941  Biso   1.000  C
  H979     1.0000 0.84292  0.52789  0.62610  Biso   1.000  H
  C909     1.0000 0.92839  0.64941  0.59038  Biso   1.000  C
  H980     1.0000 0.87390  0.65708  0.52789  Biso   1.000  H
  N165     1.0000 0.23241  0.54010  0.45071  Biso   1.000  N
  H981     1.0000 0.27180  0.55408  0.52190  Biso   1.000  H
  C910     1.0000 0.33310  0.53692  0.46692  Biso   1.000  C
  C911     1.0000 0.36969  0.50000  0.50000  Biso   1.000  C
  H982     1.0000 0.33401  0.47339  0.57169  Biso   1.000  H
  H983     1.0000 0.34490  0.42488  0.52970  Biso   1.000  H
  H984     1.0000 0.02661  0.42831  0.83401  Biso   1.000  H
  H985     1.0000 0.07512  0.47030  0.84490  Biso   1.000  H
  C912     1.0000 0.00000  0.50000  0.86969  Biso   1.000  C
  N166     1.0000 0.95990  0.54929  0.73241  Biso   1.000  N
  H986     1.0000 0.94592  0.47810  0.77180  Biso   1.000  H
  C913     1.0000 0.96308  0.53308  0.83310  Biso   1.000  C
  C914     1.0000 0.19689  0.57669  0.46308  Biso   1.000  C
  C915     1.0000 0.11719  0.63559  0.44151  Biso   1.000  C
  C916     1.0000 0.03692  0.69689  0.42331  Biso   1.000  C
  C917     1.0000 0.92331  0.53692  0.69689  Biso   1.000  C
  C918     1.0000 0.94151  0.61719  0.63559  Biso   1.000  C
  C919     1.0000 0.96308  0.69689  0.57669  Biso   1.000  C
  H987     1.0000 0.33401  0.52661  0.42831  Biso   1.000  H
  H988     1.0000 0.34490  0.57512  0.47030  Biso   1.000  H
  H989     1.0000 0.39312  0.52170  0.52421  Biso   1.000  H
  H990     1.0000 0.39312  0.47830  0.47579  Biso   1.000  H
  H991     1.0000 0.02170  0.52421  0.89312  Biso   1.000  H
  H992     1.0000 0.97830  0.47579  0.89312  Biso   1.000  H
  H993     1.0000 0.97339  0.57169  0.83401  Biso   1.000  H
  H994     1.0000 0.92488  0.52970  0.84490  Biso   1.000  H
  H995     1.0000 0.20139  0.59578  0.49600  Biso   1.000  H
  H996     1.0000 0.12610  0.65708  0.47211  Biso   1.000  H
  N167     1.0000 0.04929  0.73241  0.45990  Biso   1.000  N
  H997     1.0000 0.00400  0.70139  0.40422  Biso   1.000  H
  H998     1.0000 0.90422  0.50400  0.70139  Biso   1.000  H
  H999     1.0000 0.97211  0.62610  0.65708  Biso   1.000  H
  N168     1.0000 0.95071  0.73241  0.54010  Biso   1.000  N
  H1000    1.0000 0.99600  0.70139  0.59578  Biso   1.000  H
  C920     1.0000 0.00990  0.77638  0.47051  Biso   1.000  C
  C921     1.0000 0.99010  0.77638  0.52949  Biso   1.000  C
  C922     1.0000 0.03308  0.83310  0.46308  Biso   1.000  C
  H1001    1.0000 0.97810  0.77180  0.44592  Biso   1.000  H
  H1002    1.0000 0.02190  0.77180  0.55408  Biso   1.000  H
  C923     1.0000 0.96692  0.83310  0.53692  Biso   1.000  C
  H1003    1.0000 0.07169  0.83401  0.47339  Biso   1.000  H
  H1004    1.0000 0.02970  0.84490  0.42488  Biso   1.000  H
  C924     1.0000 0.00000  0.86969  0.50000  Biso   1.000  C
  H1005    1.0000 0.92831  0.83401  0.52661  Biso   1.000  H
  H1006    1.0000 0.97030  0.84490  0.57512  Biso   1.000  H
  H1007    1.0000 0.02421  0.89312  0.52170  Biso   1.000  H
  H1008    1.0000 0.97579  0.89312  0.47830  Biso   1.000  H
  C925     1.0000 0.96308  0.30311  0.42331  Biso   1.000  C
  N169     1.0000 0.95071  0.26759  0.45990  Biso   1.000  N
  C926     1.0000 0.92839  0.35059  0.40962  Biso   1.000  C
  H1009    1.0000 0.99600  0.29861  0.40422  Biso   1.000  H
  C927     1.0000 0.99010  0.22362  0.47051  Biso   1.000  C
  C928     1.0000 0.94151  0.38281  0.36441  Biso   1.000  C
  C929     1.0000 0.88281  0.36441  0.44151  Biso   1.000  C
  C930     1.0000 0.00990  0.22362  0.52949  Biso   1.000  C
  H1010    1.0000 0.02190  0.22820  0.44592  Biso   1.000  H
  C931     1.0000 0.96692  0.16690  0.46308  Biso   1.000  C
  H1011    1.0000 0.97211  0.37390  0.34292  Biso   1.000  H
  C932     1.0000 0.90962  0.42839  0.35059  Biso   1.000  C
  H1012    1.0000 0.87390  0.34292  0.47211  Biso   1.000  H
  C933     1.0000 0.85059  0.40962  0.42839  Biso   1.000  C
  N170     1.0000 0.04929  0.26759  0.54010  Biso   1.000  N
  C934     1.0000 0.03308  0.16690  0.53692  Biso   1.000  C
  H1013    1.0000 0.97810  0.22820  0.55408  Biso   1.000  H
  C935     1.0000 0.00000  0.13031  0.50000  Biso   1.000  C
  H1014    1.0000 0.92831  0.16599  0.47339  Biso   1.000  H
  H1015    1.0000 0.97030  0.15510  0.42488  Biso   1.000  H
  C936     1.0000 0.86441  0.44151  0.38281  Biso   1.000  C
  C937     1.0000 0.92331  0.46308  0.30311  Biso   1.000  C
  C938     1.0000 0.80311  0.42331  0.46308  Biso   1.000  C
  C939     1.0000 0.03692  0.30311  0.57669  Biso   1.000  C
  H1016    1.0000 0.07169  0.16599  0.52661  Biso   1.000  H
  H1017    1.0000 0.02970  0.15510  0.57512  Biso   1.000  H
  H1018    1.0000 0.02421  0.10688  0.47830  Biso   1.000  H
  H1019    1.0000 0.97579  0.10688  0.52170  Biso   1.000  H
  H1020    1.0000 0.84292  0.47211  0.37390  Biso   1.000  H
  N171     1.0000 0.95990  0.45071  0.26759  Biso   1.000  N
  H1021    1.0000 0.90422  0.49600  0.29861  Biso   1.000  H
  N172     1.0000 0.76759  0.45990  0.45071  Biso   1.000  N
  H1022    1.0000 0.79861  0.40422  0.49600  Biso   1.000  H
  C940     1.0000 0.07161  0.35059  0.59038  Biso   1.000  C
  H1023    1.0000 0.00400  0.29861  0.59578  Biso   1.000  H
  C941     1.0000 0.97051  0.49010  0.22362  Biso   1.000  C
  C942     1.0000 0.72362  0.47051  0.49010  Biso   1.000  C
  C943     1.0000 0.11719  0.36441  0.55849  Biso   1.000  C
  C944     1.0000 0.05849  0.38281  0.63559  Biso   1.000  C
  C945     1.0000 0.02949  0.50990  0.22362  Biso   1.000  C
  H1024    1.0000 0.94592  0.52190  0.22820  Biso   1.000  H
  C946     1.0000 0.96308  0.46692  0.16690  Biso   1.000  C
  C947     1.0000 0.72362  0.52949  0.50990  Biso   1.000  C
  H1025    1.0000 0.72820  0.44592  0.52190  Biso   1.000  H
  C948     1.0000 0.66690  0.46308  0.46692  Biso   1.000  C
  C949     1.0000 0.14941  0.40962  0.57161  Biso   1.000  C
  H1026    1.0000 0.12610  0.34292  0.52789  Biso   1.000  H
  C950     1.0000 0.09038  0.42839  0.64941  Biso   1.000  C
  H1027    1.0000 0.02789  0.37390  0.65708  Biso   1.000  H
  N173     1.0000 0.04010  0.54929  0.26759  Biso   1.000  N
  H1028    1.0000 0.05408  0.47810  0.22820  Biso   1.000  H
  C951     1.0000 0.03692  0.53308  0.16690  Biso   1.000  C
  C952     1.0000 0.00000  0.50000  0.13031  Biso   1.000  C
  H1029    1.0000 0.97339  0.42831  0.16599  Biso   1.000  H
  H1030    1.0000 0.92488  0.47030  0.15510  Biso   1.000  H
  N174     1.0000 0.76759  0.54010  0.54929  Biso   1.000  N
  H1031    1.0000 0.72820  0.55408  0.47810  Biso   1.000  H
  C953     1.0000 0.66690  0.53692  0.53308  Biso   1.000  C
  C954     1.0000 0.63031  0.50000  0.50000  Biso   1.000  C
  H1032    1.0000 0.66599  0.47339  0.42831  Biso   1.000  H
  H1033    1.0000 0.65510  0.42488  0.47030  Biso   1.000  H
  C955     1.0000 0.19689  0.42331  0.53692  Biso   1.000  C
  C956     1.0000 0.13559  0.44151  0.61719  Biso   1.000  C
  C957     1.0000 0.07669  0.46308  0.69689  Biso   1.000  C
  C958     1.0000 0.07669  0.53692  0.30311  Biso   1.000  C
  H1034    1.0000 0.02661  0.57169  0.16599  Biso   1.000  H
  H1035    1.0000 0.07512  0.52970  0.15510  Biso   1.000  H
  H1036    1.0000 0.02170  0.47579  0.10688  Biso   1.000  H
  H1037    1.0000 0.97830  0.52421  0.10688  Biso   1.000  H
  C959     1.0000 0.80311  0.57669  0.53692  Biso   1.000  C
  H1038    1.0000 0.66599  0.52661  0.57169  Biso   1.000  H
  H1039    1.0000 0.65510  0.57512  0.52970  Biso   1.000  H
  H1040    1.0000 0.60688  0.52170  0.47579  Biso   1.000  H
  H1041    1.0000 0.60688  0.47830  0.52421  Biso   1.000  H
  N175     1.0000 0.23241  0.45990  0.54929  Biso   1.000  N
  H1042    1.0000 0.20139  0.40422  0.50400  Biso   1.000  H
  H1043    1.0000 0.15708  0.47211  0.62610  Biso   1.000  H
  N176     1.0000 0.04010  0.45071  0.73241  Biso   1.000  N
  H1044    1.0000 0.09578  0.49600  0.70139  Biso   1.000  H
  C960     1.0000 0.09038  0.57161  0.35059  Biso   1.000  C
  H1045    1.0000 0.09578  0.50400  0.29861  Biso   1.000  H
  C961     1.0000 0.85059  0.59038  0.57161  Biso   1.000  C
  H1046    1.0000 0.79861  0.59578  0.50400  Biso   1.000  H
  C962     1.0000 0.27638  0.47051  0.50990  Biso   1.000  C
  C963     1.0000 0.02949  0.49010  0.77638  Biso   1.000  C
  C964     1.0000 0.13559  0.55849  0.38281  Biso   1.000  C
  C965     1.0000 0.05849  0.61719  0.36441  Biso   1.000  C
  C966     1.0000 0.86441  0.55849  0.61719  Biso   1.000  C
  C967     1.0000 0.88281  0.63559  0.55849  Biso   1.000  C
  C968     1.0000 0.27638  0.52949  0.49010  Biso   1.000  C
  H1047    1.0000 0.27180  0.44592  0.47810  Biso   1.000  H
  C969     1.0000 0.33310  0.46308  0.53308  Biso   1.000  C
  H1048    1.0000 0.05408  0.52190  0.77180  Biso   1.000  H
  C970     1.0000 0.03692  0.46692  0.83310  Biso   1.000  C
  C971     1.0000 0.97051  0.50990  0.77638  Biso   1.000  C
  C972     1.0000 0.14941  0.59038  0.42839  Biso   1.000  C
  H1049    1.0000 0.15708  0.52789  0.37390  Biso   1.000  H
  C973     1.0000 0.07161  0.64941  0.40962  Biso   1.000  C
  H1050    1.0000 0.02789  0.62610  0.34292  Biso   1.000  H
  C974     1.0000 0.90962  0.57161  0.64941  Biso   1.000  C
  H1051    1.0000 0.84292  0.52789  0.62610  Biso   1.000  H
  C975     1.0000 0.92839  0.64941  0.59038  Biso   1.000  C
  H1052    1.0000 0.87390  0.65708  0.52789  Biso   1.000  H
  N177     1.0000 0.23241  0.54010  0.45071  Biso   1.000  N
  H1053    1.0000 0.27180  0.55408  0.52190  Biso   1.000  H
  C976     1.0000 0.33310  0.53692  0.46692  Biso   1.000  C
  C977     1.0000 0.36969  0.50000  0.50000  Biso   1.000  C
  H1054    1.0000 0.33401  0.47339  0.57169  Biso   1.000  H
  H1055    1.0000 0.34490  0.42488  0.52970  Biso   1.000  H
  H1056    1.0000 0.02661  0.42831  0.83401  Biso   1.000  H
  H1057    1.0000 0.07512  0.47030  0.84490  Biso   1.000  H
  C978     1.0000 0.00000  0.50000  0.86969  Biso   1.000  C
  N178     1.0000 0.95990  0.54929  0.73241  Biso   1.000  N
  H1058    1.0000 0.94592  0.47810  0.77180  Biso   1.000  H
  C979     1.0000 0.96308  0.53308  0.83310  Biso   1.000  C
  C980     1.0000 0.19689  0.57669  0.46308  Biso   1.000  C
  C981     1.0000 0.11719  0.63559  0.44151  Biso   1.000  C
  C982     1.0000 0.03692  0.69689  0.42331  Biso   1.000  C
  C983     1.0000 0.92331  0.53692  0.69689  Biso   1.000  C
  C984     1.0000 0.94151  0.61719  0.63559  Biso   1.000  C
  C985     1.0000 0.96308  0.69689  0.57669  Biso   1.000  C
  H1059    1.0000 0.33401  0.52661  0.42831  Biso   1.000  H
  H1060    1.0000 0.34490  0.57512  0.47030  Biso   1.000  H
  H1061    1.0000 0.39312  0.52170  0.52421  Biso   1.000  H
  H1062    1.0000 0.39312  0.47830  0.47579  Biso   1.000  H
  H1063    1.0000 0.02170  0.52421  0.89312  Biso   1.000  H
  H1064    1.0000 0.97830  0.47579  0.89312  Biso   1.000  H
  H1065    1.0000 0.97339  0.57169  0.83401  Biso   1.000  H
  H1066    1.0000 0.92488  0.52970  0.84490  Biso   1.000  H
  H1067    1.0000 0.20139  0.59578  0.49600  Biso   1.000  H
  H1068    1.0000 0.12610  0.65708  0.47211  Biso   1.000  H
  N179     1.0000 0.04929  0.73241  0.45990  Biso   1.000  N
  H1069    1.0000 0.00400  0.70139  0.40422  Biso   1.000  H
  H1070    1.0000 0.90422  0.50400  0.70139  Biso   1.000  H
  H1071    1.0000 0.97211  0.62610  0.65708  Biso   1.000  H
  N180     1.0000 0.95071  0.73241  0.54010  Biso   1.000  N
  H1072    1.0000 0.99600  0.70139  0.59578  Biso   1.000  H
  C986     1.0000 0.00990  0.77638  0.47051  Biso   1.000  C
  C987     1.0000 0.99010  0.77638  0.52949  Biso   1.000  C
  C988     1.0000 0.03308  0.83310  0.46308  Biso   1.000  C
  H1073    1.0000 0.97810  0.77180  0.44592  Biso   1.000  H
  H1074    1.0000 0.02190  0.77180  0.55408  Biso   1.000  H
  C989     1.0000 0.96692  0.83310  0.53692  Biso   1.000  C
  H1075    1.0000 0.07169  0.83401  0.47339  Biso   1.000  H
  H1076    1.0000 0.02970  0.84490  0.42488  Biso   1.000  H
  C990     1.0000 0.00000  0.86969  0.50000  Biso   1.000  C
  H1077    1.0000 0.92831  0.83401  0.52661  Biso   1.000  H
  H1078    1.0000 0.97030  0.84490  0.57512  Biso   1.000  H
  H1079    1.0000 0.02421  0.89312  0.52170  Biso   1.000  H
  H1080    1.0000 0.97579  0.89312  0.47830  Biso   1.000  H
  C991     1.0000 0.71310  0.41688  0.28310  Biso   1.000  C
  C992     1.0000 0.72049  0.47360  0.25988  Biso   1.000  C
  H1081    1.0000 0.72341  0.41601  0.32171  Biso   1.000  H
  H1082    1.0000 0.67490  0.40508  0.27968  Biso   1.000  H
  C993     1.0000 0.74998  0.38029  0.25002  Biso   1.000  C
  N181     1.0000 0.70988  0.51761  0.29932  Biso   1.000  N
  H1083    1.0000 0.69590  0.47822  0.22812  Biso   1.000  H
  C994     1.0000 0.77951  0.47360  0.24012  Biso   1.000  C
  H1084    1.0000 0.72828  0.35690  0.22581  Biso   1.000  H
  C995     1.0000 0.78690  0.41688  0.21690  Biso   1.000  C
  H1085    1.0000 0.77172  0.35690  0.27419  Biso   1.000  H
  C996     1.0000 0.67329  0.55309  0.28690  Biso   1.000  C
  N182     1.0000 0.79012  0.51761  0.20068  Biso   1.000  N
  H1086    1.0000 0.80410  0.47822  0.27188  Biso   1.000  H
  H1087    1.0000 0.77659  0.41601  0.17829  Biso   1.000  H
  H1088    1.0000 0.82510  0.40508  0.22032  Biso   1.000  H
  C997     1.0000 0.65960  0.60061  0.32159  Biso   1.000  C
  H1089    1.0000 0.65420  0.54859  0.25398  Biso   1.000  H
  C998     1.0000 0.82671  0.55309  0.21310  Biso   1.000  C
  C999     1.0000 0.69149  0.61439  0.36721  Biso   1.000  C
  C1000    1.0000 0.61439  0.63279  0.30851  Biso   1.000  C
  C1001    1.0000 0.84040  0.60061  0.17841  Biso   1.000  C
  H1090    1.0000 0.84580  0.54859  0.24602  Biso   1.000  H
  H1091    1.0000 0.72209  0.59290  0.37608  Biso   1.000  H
  C1002    1.0000 0.67841  0.65960  0.39939  Biso   1.000  C
  H1092    1.0000 0.59290  0.62392  0.27791  Biso   1.000  H
  C1003    1.0000 0.60061  0.67841  0.34040  Biso   1.000  C
  C1004    1.0000 0.88561  0.63279  0.19149  Biso   1.000  C
  C1005    1.0000 0.80851  0.61439  0.13279  Biso   1.000  C
  C1006    1.0000 0.71310  0.67329  0.44691  Biso   1.000  C
  C1007    1.0000 0.63279  0.69149  0.38561  Biso   1.000  C
  C1008    1.0000 0.55309  0.71310  0.32671  Biso   1.000  C
  H1093    1.0000 0.90710  0.62392  0.22209  Biso   1.000  H
  C1009    1.0000 0.89939  0.67841  0.15960  Biso   1.000  C
  H1094    1.0000 0.77791  0.59290  0.12392  Biso   1.000  H
  C1010    1.0000 0.82159  0.65960  0.10061  Biso   1.000  C
  N183     1.0000 0.70068  0.70988  0.48239  Biso   1.000  N
  H1095    1.0000 0.74602  0.65420  0.45141  Biso   1.000  H
  H1096    1.0000 0.62392  0.72209  0.40710  Biso   1.000  H
  N184     1.0000 0.51761  0.70068  0.29012  Biso   1.000  N
  H1097    1.0000 0.54859  0.74602  0.34580  Biso   1.000  H
  C1011    1.0000 0.86721  0.69149  0.11439  Biso   1.000  C
  C1012    1.0000 0.94691  0.71310  0.17329  Biso   1.000  C
  C1013    1.0000 0.78690  0.67329  0.05309  Biso   1.000  C
  C1014    1.0000 0.74012  0.72049  0.52640  Biso   1.000  C
  C1015    1.0000 0.47360  0.74012  0.27951  Biso   1.000  C
  H1098    1.0000 0.87608  0.72209  0.09290  Biso   1.000  H
  N185     1.0000 0.98239  0.70068  0.20988  Biso   1.000  N
  H1099    1.0000 0.95141  0.74602  0.15420  Biso   1.000  H
  N186     1.0000 0.79932  0.70988  0.01761  Biso   1.000  N
  H1100    1.0000 0.75398  0.65420  0.04859  Biso   1.000  H
  H1101    1.0000 0.77188  0.69590  0.52178  Biso   1.000  H
  C1016    1.0000 0.71690  0.71310  0.58312  Biso   1.000  C
  C1017    1.0000 0.75988  0.77951  0.52640  Biso   1.000  C
  H1102    1.0000 0.47822  0.77188  0.30410  Biso   1.000  H
  C1018    1.0000 0.41688  0.71690  0.28690  Biso   1.000  C
  C1019    1.0000 0.47360  0.75988  0.22049  Biso   1.000  C
  C1020    1.0000 0.02640  0.74012  0.22049  Biso   1.000  C
  C1021    1.0000 0.75988  0.72049  0.97360  Biso   1.000  C
  H1103    1.0000 0.67829  0.72341  0.58399  Biso   1.000  H
  H1104    1.0000 0.72032  0.67490  0.59492  Biso   1.000  H
  C1022    1.0000 0.74998  0.74998  0.61971  Biso   1.000  C
  N187     1.0000 0.79932  0.79012  0.48239  Biso   1.000  N
  H1105    1.0000 0.72812  0.80410  0.52178  Biso   1.000  H
  C1023    1.0000 0.78310  0.78690  0.58312  Biso   1.000  C
  H1106    1.0000 0.41601  0.67829  0.27659  Biso   1.000  H
  H1107    1.0000 0.40508  0.72032  0.32510  Biso   1.000  H
  C1024    1.0000 0.38029  0.74998  0.25002  Biso   1.000  C
  N188     1.0000 0.51761  0.79932  0.20988  Biso   1.000  N
  H1108    1.0000 0.47822  0.72812  0.19590  Biso   1.000  H
  C1025    1.0000 0.41688  0.78310  0.21310  Biso   1.000  C
  C1026    1.0000 0.02640  0.75988  0.27951  Biso   1.000  C
  H1109    1.0000 0.02178  0.77188  0.19590  Biso   1.000  H
  C1027    1.0000 0.08312  0.71690  0.21310  Biso   1.000  C
  H1110    1.0000 0.72812  0.69590  0.97822  Biso   1.000  H
  C1028    1.0000 0.78310  0.71310  0.91688  Biso   1.000  C
  C1029    1.0000 0.74012  0.77951  0.97360  Biso   1.000  C
  H1111    1.0000 0.77419  0.72828  0.64310  Biso   1.000  H
  H1112    1.0000 0.72581  0.77172  0.64310  Biso   1.000  H
  C1030    1.0000 0.78690  0.82671  0.44691  Biso   1.000  C
  H1113    1.0000 0.82171  0.77659  0.58399  Biso   1.000  H
  H1114    1.0000 0.77968  0.82510  0.59492  Biso   1.000  H
  H1115    1.0000 0.35690  0.77419  0.27172  Biso   1.000  H
  H1116    1.0000 0.35690  0.72581  0.22828  Biso   1.000  H
  C1031    1.0000 0.55309  0.78690  0.17329  Biso   1.000  C
  H1117    1.0000 0.41601  0.82171  0.22341  Biso   1.000  H
  H1118    1.0000 0.40508  0.77968  0.17490  Biso   1.000  H
  N189     1.0000 0.98239  0.79932  0.29012  Biso   1.000  N
  H1119    1.0000 0.02178  0.72812  0.30410  Biso   1.000  H
  C1032    1.0000 0.08312  0.78310  0.28690  Biso   1.000  C
  C1033    1.0000 0.11971  0.74998  0.25002  Biso   1.000  C
  H1120    1.0000 0.08399  0.67829  0.22341  Biso   1.000  H
  H1121    1.0000 0.09492  0.72032  0.17490  Biso   1.000  H
  H1122    1.0000 0.82171  0.72341  0.91601  Biso   1.000  H
  H1123    1.0000 0.77968  0.67490  0.90508  Biso   1.000  H
  C1034    1.0000 0.74998  0.74998  0.88029  Biso   1.000  C
  N190     1.0000 0.70068  0.79012  0.01761  Biso   1.000  N
  H1124    1.0000 0.77188  0.80410  0.97822  Biso   1.000  H
  C1035    1.0000 0.71690  0.78690  0.91688  Biso   1.000  C
  C1036    1.0000 0.82159  0.84040  0.39939  Biso   1.000  C
  H1125    1.0000 0.75398  0.84580  0.45141  Biso   1.000  H
  C1037    1.0000 0.60061  0.82159  0.15960  Biso   1.000  C
  H1126    1.0000 0.54859  0.75398  0.15420  Biso   1.000  H
  C1038    1.0000 0.94691  0.78690  0.32671  Biso   1.000  C
  H1127    1.0000 0.08399  0.82171  0.27659  Biso   1.000  H
  H1128    1.0000 0.09492  0.77968  0.32510  Biso   1.000  H
  H1129    1.0000 0.14310  0.72581  0.27172  Biso   1.000  H
  H1130    1.0000 0.14310  0.77419  0.22828  Biso   1.000  H
  H1131    1.0000 0.72581  0.72828  0.85690  Biso   1.000  H
  H1132    1.0000 0.77419  0.77172  0.85690  Biso   1.000  H
  C1039    1.0000 0.71310  0.82671  0.05309  Biso   1.000  C
  H1133    1.0000 0.67829  0.77659  0.91601  Biso   1.000  H
  H1134    1.0000 0.72032  0.82510  0.90508  Biso   1.000  H
  C1040    1.0000 0.80851  0.88561  0.36721  Biso   1.000  C
  C1041    1.0000 0.86721  0.80851  0.38561  Biso   1.000  C
  C1042    1.0000 0.61439  0.86721  0.19149  Biso   1.000  C
  C1043    1.0000 0.63279  0.80851  0.11439  Biso   1.000  C
  C1044    1.0000 0.89939  0.82159  0.34040  Biso   1.000  C
  H1135    1.0000 0.95141  0.75398  0.34580  Biso   1.000  H
  C1045    1.0000 0.67841  0.84040  0.10061  Biso   1.000  C
  H1136    1.0000 0.74602  0.84580  0.04859  Biso   1.000  H
  H1137    1.0000 0.77791  0.90710  0.37608  Biso   1.000  H
  C1046    1.0000 0.84040  0.89939  0.32159  Biso   1.000  C
  H1138    1.0000 0.87608  0.77791  0.40710  Biso   1.000  H
  H1139    1.0000 0.59290  0.87608  0.22209  Biso   1.000  H
  C1047    1.0000 0.65960  0.89939  0.17841  Biso   1.000  C
  H1140    1.0000 0.62392  0.77791  0.09290  Biso   1.000  H
  C1048    1.0000 0.88561  0.86721  0.30851  Biso   1.000  C
  C1049    1.0000 0.69149  0.88561  0.13279  Biso   1.000  C
  C1050    1.0000 0.82671  0.94691  0.28690  Biso   1.000  C
  C1051    1.0000 0.67329  0.94691  0.21310  Biso   1.000  C
  H1141    1.0000 0.90710  0.87608  0.27791  Biso   1.000  H
  H1142    1.0000 0.72209  0.90710  0.12392  Biso   1.000  H
  N191     1.0000 0.79012  0.98239  0.29932  Biso   1.000  N
  H1143    1.0000 0.84580  0.95141  0.25398  Biso   1.000  H
  N192     1.0000 0.70988  0.98239  0.20068  Biso   1.000  N
  H1144    1.0000 0.65420  0.95141  0.24602  Biso   1.000  H
  C1052    1.0000 0.77951  0.02640  0.25988  Biso   1.000  C
  C1053    1.0000 0.72049  0.02640  0.24012  Biso   1.000  C
  H1145    1.0000 0.80410  0.02178  0.22812  Biso   1.000  H
  C1054    1.0000 0.78690  0.08312  0.28310  Biso   1.000  C
  H1146    1.0000 0.69590  0.02178  0.27188  Biso   1.000  H
  C1055    1.0000 0.71310  0.08312  0.21690  Biso   1.000  C
  H1147    1.0000 0.77659  0.08399  0.32171  Biso   1.000  H
  H1148    1.0000 0.82510  0.09492  0.27968  Biso   1.000  H
  C1056    1.0000 0.74998  0.11971  0.25002  Biso   1.000  C
  H1149    1.0000 0.72341  0.08399  0.17829  Biso   1.000  H
  H1150    1.0000 0.67490  0.09492  0.22032  Biso   1.000  H
  H1151    1.0000 0.77172  0.14310  0.22581  Biso   1.000  H
  H1152    1.0000 0.72828  0.14310  0.27419  Biso   1.000  H
  C1057    1.0000 0.41688  0.28310  0.71310  Biso   1.000  C
  C1058    1.0000 0.47360  0.25988  0.72049  Biso   1.000  C
  H1153    1.0000 0.41601  0.32171  0.72341  Biso   1.000  H
  H1154    1.0000 0.40508  0.27968  0.67490  Biso   1.000  H
  C1059    1.0000 0.38029  0.25002  0.74998  Biso   1.000  C
  N193     1.0000 0.51761  0.29932  0.70988  Biso   1.000  N
  H1155    1.0000 0.47822  0.22812  0.69590  Biso   1.000  H
  C1060    1.0000 0.47360  0.24012  0.77951  Biso   1.000  C
  C1061    1.0000 0.41688  0.21690  0.78690  Biso   1.000  C
  H1156    1.0000 0.35690  0.22581  0.72828  Biso   1.000  H
  H1157    1.0000 0.35690  0.27419  0.77172  Biso   1.000  H
  C1062    1.0000 0.55309  0.28690  0.67329  Biso   1.000  C
  N194     1.0000 0.51761  0.20068  0.79012  Biso   1.000  N
  H1158    1.0000 0.47822  0.27188  0.80410  Biso   1.000  H
  H1159    1.0000 0.41601  0.17829  0.77659  Biso   1.000  H
  H1160    1.0000 0.40508  0.22032  0.82510  Biso   1.000  H
  C1063    1.0000 0.60061  0.32159  0.65960  Biso   1.000  C
  H1161    1.0000 0.54859  0.25398  0.65420  Biso   1.000  H
  C1064    1.0000 0.55309  0.21310  0.82671  Biso   1.000  C
  C1065    1.0000 0.63279  0.30851  0.61439  Biso   1.000  C
  C1066    1.0000 0.61439  0.36721  0.69149  Biso   1.000  C
  C1067    1.0000 0.60061  0.17841  0.84040  Biso   1.000  C
  H1162    1.0000 0.54859  0.24602  0.84580  Biso   1.000  H
  C1068    1.0000 0.67841  0.34040  0.60061  Biso   1.000  C
  H1163    1.0000 0.62392  0.27791  0.59290  Biso   1.000  H
  C1069    1.0000 0.65960  0.39939  0.67841  Biso   1.000  C
  H1164    1.0000 0.59290  0.37608  0.72209  Biso   1.000  H
  C1070    1.0000 0.63279  0.19149  0.88561  Biso   1.000  C
  C1071    1.0000 0.61439  0.13279  0.80851  Biso   1.000  C
  C1072    1.0000 0.71310  0.32671  0.55309  Biso   1.000  C
  C1073    1.0000 0.69149  0.38561  0.63279  Biso   1.000  C
  C1074    1.0000 0.67329  0.44691  0.71310  Biso   1.000  C
  H1165    1.0000 0.62392  0.22209  0.90710  Biso   1.000  H
  C1075    1.0000 0.67841  0.15960  0.89939  Biso   1.000  C
  C1076    1.0000 0.65960  0.10061  0.82159  Biso   1.000  C
  H1166    1.0000 0.59290  0.12392  0.77791  Biso   1.000  H
  N195     1.0000 0.70068  0.29012  0.51761  Biso   1.000  N
  H1167    1.0000 0.74602  0.34580  0.54859  Biso   1.000  H
  H1168    1.0000 0.72209  0.40710  0.62392  Biso   1.000  H
  N196     1.0000 0.70988  0.48239  0.70068  Biso   1.000  N
  H1169    1.0000 0.65420  0.45141  0.74602  Biso   1.000  H
  C1077    1.0000 0.69149  0.11439  0.86721  Biso   1.000  C
  C1078    1.0000 0.71310  0.17329  0.94691  Biso   1.000  C
  C1079    1.0000 0.67329  0.05309  0.78690  Biso   1.000  C
  C1080    1.0000 0.74012  0.27951  0.47360  Biso   1.000  C
  C1081    1.0000 0.72049  0.52640  0.74012  Biso   1.000  C
  H1170    1.0000 0.72209  0.09290  0.87608  Biso   1.000  H
  N197     1.0000 0.70068  0.20988  0.98239  Biso   1.000  N
  H1171    1.0000 0.74602  0.15420  0.95141  Biso   1.000  H
  N198     1.0000 0.70988  0.01761  0.79932  Biso   1.000  N
  H1172    1.0000 0.65420  0.04859  0.75398  Biso   1.000  H
  C1082    1.0000 0.71690  0.28690  0.41688  Biso   1.000  C
  H1173    1.0000 0.77188  0.30410  0.47822  Biso   1.000  H
  C1083    1.0000 0.75988  0.22049  0.47360  Biso   1.000  C
  C1084    1.0000 0.77951  0.52640  0.75988  Biso   1.000  C
  H1174    1.0000 0.69590  0.52178  0.77188  Biso   1.000  H
  C1085    1.0000 0.71310  0.58312  0.71690  Biso   1.000  C
  C1086    1.0000 0.74012  0.22049  0.02640  Biso   1.000  C
  C1087    1.0000 0.72049  0.97360  0.75988  Biso   1.000  C
  H1175    1.0000 0.67829  0.27659  0.41601  Biso   1.000  H
  H1176    1.0000 0.72032  0.32510  0.40508  Biso   1.000  H
  C1088    1.0000 0.74998  0.25002  0.38029  Biso   1.000  C
  C1089    1.0000 0.78310  0.21310  0.41688  Biso   1.000  C
  N199     1.0000 0.79932  0.20988  0.51761  Biso   1.000  N
  H1177    1.0000 0.72812  0.19590  0.47822  Biso   1.000  H
  N200     1.0000 0.79012  0.48239  0.79932  Biso   1.000  N
  H1178    1.0000 0.80410  0.52178  0.72812  Biso   1.000  H
  C1090    1.0000 0.78690  0.58312  0.78310  Biso   1.000  C
  C1091    1.0000 0.74998  0.61971  0.74998  Biso   1.000  C
  H1179    1.0000 0.72341  0.58399  0.67829  Biso   1.000  H
  H1180    1.0000 0.67490  0.59492  0.72032  Biso   1.000  H
  C1092    1.0000 0.75988  0.27951  0.02640  Biso   1.000  C
  H1181    1.0000 0.77188  0.19590  0.02178  Biso   1.000  H
  C1093    1.0000 0.71690  0.21310  0.08312  Biso   1.000  C
  C1094    1.0000 0.77951  0.97360  0.74012  Biso   1.000  C
  H1182    1.0000 0.69590  0.97822  0.72812  Biso   1.000  H
  C1095    1.0000 0.71310  0.91688  0.78310  Biso   1.000  C
  H1183    1.0000 0.77419  0.27172  0.35690  Biso   1.000  H
  H1184    1.0000 0.72581  0.22828  0.35690  Biso   1.000  H
  H1185    1.0000 0.82171  0.22341  0.41601  Biso   1.000  H
  H1186    1.0000 0.77968  0.17490  0.40508  Biso   1.000  H
  C1096    1.0000 0.78690  0.17329  0.55309  Biso   1.000  C
  C1097    1.0000 0.82671  0.44691  0.78690  Biso   1.000  C
  H1187    1.0000 0.77659  0.58399  0.82171  Biso   1.000  H
  H1188    1.0000 0.82510  0.59492  0.77968  Biso   1.000  H
  H1189    1.0000 0.77172  0.64310  0.72581  Biso   1.000  H
  H1190    1.0000 0.72828  0.64310  0.77419  Biso   1.000  H
  N201     1.0000 0.79932  0.29012  0.98239  Biso   1.000  N
  H1191    1.0000 0.72812  0.30410  0.02178  Biso   1.000  H
  C1098    1.0000 0.78310  0.28690  0.08312  Biso   1.000  C
  C1099    1.0000 0.74998  0.25002  0.11971  Biso   1.000  C
  H1192    1.0000 0.67829  0.22341  0.08399  Biso   1.000  H
  H1193    1.0000 0.72032  0.17490  0.09492  Biso   1.000  H
  N202     1.0000 0.79012  0.01761  0.70068  Biso   1.000  N
  H1194    1.0000 0.80410  0.97822  0.77188  Biso   1.000  H
  C1100    1.0000 0.78690  0.91688  0.71690  Biso   1.000  C
  C1101    1.0000 0.74998  0.88029  0.74998  Biso   1.000  C
  H1195    1.0000 0.72341  0.91601  0.82171  Biso   1.000  H
  H1196    1.0000 0.67490  0.90508  0.77968  Biso   1.000  H
  C1102    1.0000 0.82159  0.15960  0.60061  Biso   1.000  C
  H1197    1.0000 0.75398  0.15420  0.54859  Biso   1.000  H
  C1103    1.0000 0.84040  0.39939  0.82159  Biso   1.000  C
  H1198    1.0000 0.84580  0.45141  0.75398  Biso   1.000  H
  C1104    1.0000 0.78690  0.32671  0.94691  Biso   1.000  C
  H1199    1.0000 0.82171  0.27659  0.08399  Biso   1.000  H
  H1200    1.0000 0.77968  0.32510  0.09492  Biso   1.000  H
  H1201    1.0000 0.72581  0.27172  0.14310  Biso   1.000  H
  H1202    1.0000 0.77419  0.22828  0.14310  Biso   1.000  H
  C1105    1.0000 0.82671  0.05309  0.71310  Biso   1.000  C
  H1203    1.0000 0.77659  0.91601  0.67829  Biso   1.000  H
  H1204    1.0000 0.82510  0.90508  0.72032  Biso   1.000  H
  H1205    1.0000 0.77172  0.85690  0.77419  Biso   1.000  H
  H1206    1.0000 0.72828  0.85690  0.72581  Biso   1.000  H
  C1106    1.0000 0.86721  0.19149  0.61439  Biso   1.000  C
  C1107    1.0000 0.80851  0.11439  0.63279  Biso   1.000  C
  C1108    1.0000 0.88561  0.36721  0.80851  Biso   1.000  C
  C1109    1.0000 0.80851  0.38561  0.86721  Biso   1.000  C
  C1110    1.0000 0.82159  0.34040  0.89939  Biso   1.000  C
  H1207    1.0000 0.75398  0.34580  0.95141  Biso   1.000  H
  C1111    1.0000 0.84040  0.10061  0.67841  Biso   1.000  C
  H1208    1.0000 0.84580  0.04859  0.74602  Biso   1.000  H
  H1209    1.0000 0.87608  0.22209  0.59290  Biso   1.000  H
  C1112    1.0000 0.89939  0.17841  0.65960  Biso   1.000  C
  H1210    1.0000 0.77791  0.09290  0.62392  Biso   1.000  H
  C1113    1.0000 0.89939  0.32159  0.84040  Biso   1.000  C
  H1211    1.0000 0.90710  0.37608  0.77791  Biso   1.000  H
  H1212    1.0000 0.77791  0.40710  0.87608  Biso   1.000  H
  C1114    1.0000 0.86721  0.30851  0.88561  Biso   1.000  C
  C1115    1.0000 0.88561  0.13279  0.69149  Biso   1.000  C
  C1116    1.0000 0.94691  0.21310  0.67329  Biso   1.000  C
  C1117    1.0000 0.94691  0.28690  0.82671  Biso   1.000  C
  H1213    1.0000 0.87608  0.27791  0.90710  Biso   1.000  H
  H1214    1.0000 0.90710  0.12392  0.72209  Biso   1.000  H
  N203     1.0000 0.98239  0.20068  0.70988  Biso   1.000  N
  H1215    1.0000 0.95141  0.24602  0.65420  Biso   1.000  H
  N204     1.0000 0.98239  0.29932  0.79012  Biso   1.000  N
  H1216    1.0000 0.95141  0.25398  0.84580  Biso   1.000  H
  C1118    1.0000 0.02640  0.24012  0.72049  Biso   1.000  C
  C1119    1.0000 0.02640  0.25988  0.77951  Biso   1.000  C
  H1217    1.0000 0.02178  0.27188  0.69590  Biso   1.000  H
  C1120    1.0000 0.08312  0.21690  0.71310  Biso   1.000  C
  H1218    1.0000 0.02178  0.22812  0.80410  Biso   1.000  H
  C1121    1.0000 0.08312  0.28310  0.78690  Biso   1.000  C
  C1122    1.0000 0.11971  0.25002  0.74998  Biso   1.000  C
  H1219    1.0000 0.08399  0.17829  0.72341  Biso   1.000  H
  H1220    1.0000 0.09492  0.22032  0.67490  Biso   1.000  H
  H1221    1.0000 0.08399  0.32171  0.77659  Biso   1.000  H
  H1222    1.0000 0.09492  0.27968  0.82510  Biso   1.000  H
  H1223    1.0000 0.14310  0.22581  0.77172  Biso   1.000  H
  H1224    1.0000 0.14310  0.27419  0.72828  Biso   1.000  H
  C1123    1.0000 0.28310  0.71310  0.41688  Biso   1.000  C
  C1124    1.0000 0.25002  0.74998  0.38029  Biso   1.000  C
  C1125    1.0000 0.25988  0.72049  0.47360  Biso   1.000  C
  H1225    1.0000 0.32171  0.72341  0.41601  Biso   1.000  H
  H1226    1.0000 0.27968  0.67490  0.40508  Biso   1.000  H
  C1126    1.0000 0.21690  0.78690  0.41688  Biso   1.000  C
  H1227    1.0000 0.27419  0.77172  0.35690  Biso   1.000  H
  H1228    1.0000 0.22581  0.72828  0.35690  Biso   1.000  H
  C1127    1.0000 0.24012  0.77951  0.47360  Biso   1.000  C
  N205     1.0000 0.29932  0.70988  0.51761  Biso   1.000  N
  H1229    1.0000 0.22812  0.69590  0.47822  Biso   1.000  H
  H1230    1.0000 0.17829  0.77659  0.41601  Biso   1.000  H
  H1231    1.0000 0.22032  0.82510  0.40508  Biso   1.000  H
  N206     1.0000 0.20068  0.79012  0.51761  Biso   1.000  N
  H1232    1.0000 0.27188  0.80410  0.47822  Biso   1.000  H
  C1128    1.0000 0.28690  0.67329  0.55309  Biso   1.000  C
  C1129    1.0000 0.21310  0.82671  0.55309  Biso   1.000  C
  C1130    1.0000 0.32159  0.65960  0.60061  Biso   1.000  C
  H1233    1.0000 0.25398  0.65420  0.54859  Biso   1.000  H
  C1131    1.0000 0.17841  0.84040  0.60061  Biso   1.000  C
  H1234    1.0000 0.24602  0.84580  0.54859  Biso   1.000  H
  C1132    1.0000 0.30851  0.61439  0.63279  Biso   1.000  C
  C1133    1.0000 0.36721  0.69149  0.61439  Biso   1.000  C
  C1134    1.0000 0.13279  0.80851  0.61439  Biso   1.000  C
  C1135    1.0000 0.19149  0.88561  0.63279  Biso   1.000  C
  H1235    1.0000 0.27791  0.59290  0.62392  Biso   1.000  H
  C1136    1.0000 0.34040  0.60061  0.67841  Biso   1.000  C
  H1236    1.0000 0.37608  0.72209  0.59290  Biso   1.000  H
  C1137    1.0000 0.39939  0.67841  0.65960  Biso   1.000  C
  H1237    1.0000 0.12392  0.77791  0.59290  Biso   1.000  H
  C1138    1.0000 0.10061  0.82159  0.65960  Biso   1.000  C
  H1238    1.0000 0.22209  0.90710  0.62392  Biso   1.000  H
  C1139    1.0000 0.15960  0.89939  0.67841  Biso   1.000  C
  C1140    1.0000 0.38561  0.63279  0.69149  Biso   1.000  C
  C1141    1.0000 0.32671  0.55309  0.71310  Biso   1.000  C
  C1142    1.0000 0.44691  0.71310  0.67329  Biso   1.000  C
  C1143    1.0000 0.05309  0.78690  0.67329  Biso   1.000  C
  C1144    1.0000 0.11439  0.86721  0.69149  Biso   1.000  C
  C1145    1.0000 0.17329  0.94691  0.71310  Biso   1.000  C
  H1239    1.0000 0.40710  0.62392  0.72209  Biso   1.000  H
  N207     1.0000 0.29012  0.51761  0.70068  Biso   1.000  N
  H1240    1.0000 0.34580  0.54859  0.74602  Biso   1.000  H
  N208     1.0000 0.48239  0.70068  0.70988  Biso   1.000  N
  H1241    1.0000 0.45141  0.74602  0.65420  Biso   1.000  H
  N209     1.0000 0.01761  0.79932  0.70988  Biso   1.000  N
  H1242    1.0000 0.04859  0.75398  0.65420  Biso   1.000  H
  H1243    1.0000 0.09290  0.87608  0.72209  Biso   1.000  H
  N210     1.0000 0.20988  0.98239  0.70068  Biso   1.000  N
  H1244    1.0000 0.15420  0.95141  0.74602  Biso   1.000  H
  C1146    1.0000 0.27951  0.47360  0.74012  Biso   1.000  C
  C1147    1.0000 0.52640  0.74012  0.72049  Biso   1.000  C
  C1148    1.0000 0.97360  0.75988  0.72049  Biso   1.000  C
  C1149    1.0000 0.22049  0.02640  0.74012  Biso   1.000  C
  C1150    1.0000 0.22049  0.47360  0.75988  Biso   1.000  C
  H1245    1.0000 0.30410  0.47822  0.77188  Biso   1.000  H
  C1151    1.0000 0.28690  0.41688  0.71690  Biso   1.000  C
  C1152    1.0000 0.52640  0.75988  0.77951  Biso   1.000  C
  H1246    1.0000 0.52178  0.77188  0.69590  Biso   1.000  H
  C1153    1.0000 0.58312  0.71690  0.71310  Biso   1.000  C
  C1154    1.0000 0.97360  0.74012  0.77951  Biso   1.000  C
  H1247    1.0000 0.97822  0.72812  0.69590  Biso   1.000  H
  C1155    1.0000 0.91688  0.78310  0.71310  Biso   1.000  C
  H1248    1.0000 0.19590  0.02178  0.77188  Biso   1.000  H
  C1156    1.0000 0.21310  0.08312  0.71690  Biso   1.000  C
  C1157    1.0000 0.27951  0.02640  0.75988  Biso   1.000  C
  N211     1.0000 0.20988  0.51761  0.79932  Biso   1.000  N
  H1249    1.0000 0.19590  0.47822  0.72812  Biso   1.000  H
  C1158    1.0000 0.21310  0.41688  0.78310  Biso   1.000  C
  C1159    1.0000 0.25002  0.38029  0.74998  Biso   1.000  C
  H1250    1.0000 0.27659  0.41601  0.67829  Biso   1.000  H
  H1251    1.0000 0.32510  0.40508  0.72032  Biso   1.000  H
  N212     1.0000 0.48239  0.79932  0.79012  Biso   1.000  N
  H1252    1.0000 0.52178  0.72812  0.80410  Biso   1.000  H
  C1160    1.0000 0.58312  0.78310  0.78690  Biso   1.000  C
  C1161    1.0000 0.61971  0.74998  0.74998  Biso   1.000  C
  H1253    1.0000 0.58399  0.67829  0.72341  Biso   1.000  H
  H1254    1.0000 0.59492  0.72032  0.67490  Biso   1.000  H
  N213     1.0000 0.01761  0.70068  0.79012  Biso   1.000  N
  H1255    1.0000 0.97822  0.77188  0.80410  Biso   1.000  H
  C1162    1.0000 0.91688  0.71690  0.78690  Biso   1.000  C
  C1163    1.0000 0.88029  0.74998  0.74998  Biso   1.000  C
  H1256    1.0000 0.91601  0.82171  0.72341  Biso   1.000  H
  H1257    1.0000 0.90508  0.77968  0.67490  Biso   1.000  H
  H1258    1.0000 0.22341  0.08399  0.67829  Biso   1.000  H
  H1259    1.0000 0.17490  0.09492  0.72032  Biso   1.000  H
  C1164    1.0000 0.25002  0.11971  0.74998  Biso   1.000  C
  N214     1.0000 0.29012  0.98239  0.79932  Biso   1.000  N
  H1260    1.0000 0.30410  0.02178  0.72812  Biso   1.000  H
  C1165    1.0000 0.28690  0.08312  0.78310  Biso   1.000  C
  C1166    1.0000 0.17329  0.55309  0.78690  Biso   1.000  C
  H1261    1.0000 0.22341  0.41601  0.82171  Biso   1.000  H
  H1262    1.0000 0.17490  0.40508  0.77968  Biso   1.000  H
  H1263    1.0000 0.22828  0.35690  0.72581  Biso   1.000  H
  H1264    1.0000 0.27172  0.35690  0.77419  Biso   1.000  H
  C1167    1.0000 0.44691  0.78690  0.82671  Biso   1.000  C
  H1265    1.0000 0.58399  0.82171  0.77659  Biso   1.000  H
  H1266    1.0000 0.59492  0.77968  0.82510  Biso   1.000  H
  H1267    1.0000 0.64310  0.72581  0.77172  Biso   1.000  H
  H1268    1.0000 0.64310  0.77419  0.72828  Biso   1.000  H
  C1168    1.0000 0.05309  0.71310  0.82671  Biso   1.000  C
  H1269    1.0000 0.91601  0.67829  0.77659  Biso   1.000  H
  H1270    1.0000 0.90508  0.72032  0.82510  Biso   1.000  H
  H1271    1.0000 0.85690  0.77419  0.77172  Biso   1.000  H
  H1272    1.0000 0.85690  0.72581  0.72828  Biso   1.000  H
  H1273    1.0000 0.22828  0.14310  0.77419  Biso   1.000  H
  H1274    1.0000 0.27172  0.14310  0.72581  Biso   1.000  H
  C1169    1.0000 0.32671  0.94691  0.78690  Biso   1.000  C
  H1275    1.0000 0.27659  0.08399  0.82171  Biso   1.000  H
  H1276    1.0000 0.32510  0.09492  0.77968  Biso   1.000  H
  C1170    1.0000 0.15960  0.60061  0.82159  Biso   1.000  C
  H1277    1.0000 0.15420  0.54859  0.75398  Biso   1.000  H
  C1171    1.0000 0.39939  0.82159  0.84040  Biso   1.000  C
  H1278    1.0000 0.45141  0.75398  0.84580  Biso   1.000  H
  C1172    1.0000 0.10061  0.67841  0.84040  Biso   1.000  C
  H1279    1.0000 0.04859  0.74602  0.84580  Biso   1.000  H
  C1173    1.0000 0.34040  0.89939  0.82159  Biso   1.000  C
  H1280    1.0000 0.34580  0.95141  0.75398  Biso   1.000  H
  C1174    1.0000 0.19149  0.61439  0.86721  Biso   1.000  C
  C1175    1.0000 0.11439  0.63279  0.80851  Biso   1.000  C
  C1176    1.0000 0.36721  0.80851  0.88561  Biso   1.000  C
  C1177    1.0000 0.38561  0.86721  0.80851  Biso   1.000  C
  C1178    1.0000 0.13279  0.69149  0.88561  Biso   1.000  C
  C1179    1.0000 0.30851  0.88561  0.86721  Biso   1.000  C
  H1281    1.0000 0.22209  0.59290  0.87608  Biso   1.000  H
  C1180    1.0000 0.17841  0.65960  0.89939  Biso   1.000  C
  H1282    1.0000 0.09290  0.62392  0.77791  Biso   1.000  H
  C1181    1.0000 0.32159  0.84040  0.89939  Biso   1.000  C
  H1283    1.0000 0.37608  0.77791  0.90710  Biso   1.000  H
  H1284    1.0000 0.40710  0.87608  0.77791  Biso   1.000  H
  H1285    1.0000 0.12392  0.72209  0.90710  Biso   1.000  H
  H1286    1.0000 0.27791  0.90710  0.87608  Biso   1.000  H
  C1182    1.0000 0.21310  0.67329  0.94691  Biso   1.000  C
  C1183    1.0000 0.28690  0.82671  0.94691  Biso   1.000  C
  N215     1.0000 0.20068  0.70988  0.98239  Biso   1.000  N
  H1287    1.0000 0.24602  0.65420  0.95141  Biso   1.000  H
  N216     1.0000 0.29932  0.79012  0.98239  Biso   1.000  N
  H1288    1.0000 0.25398  0.84580  0.95141  Biso   1.000  H
  C1184    1.0000 0.24012  0.72049  0.02640  Biso   1.000  C
  C1185    1.0000 0.25988  0.77951  0.02640  Biso   1.000  C
  H1289    1.0000 0.27188  0.69590  0.02178  Biso   1.000  H
  C1186    1.0000 0.21690  0.71310  0.08312  Biso   1.000  C
  H1290    1.0000 0.22812  0.80410  0.02178  Biso   1.000  H
  C1187    1.0000 0.28310  0.78690  0.08312  Biso   1.000  C
  H1291    1.0000 0.17829  0.72341  0.08399  Biso   1.000  H
  H1292    1.0000 0.22032  0.67490  0.09492  Biso   1.000  H
  C1188    1.0000 0.25002  0.74998  0.11971  Biso   1.000  C
  H1293    1.0000 0.32171  0.77659  0.08399  Biso   1.000  H
  H1294    1.0000 0.27968  0.82510  0.09492  Biso   1.000  H
  H1295    1.0000 0.27419  0.72828  0.14310  Biso   1.000  H
  H1296    1.0000 0.22581  0.77172  0.14310  Biso   1.000  H
