data_image0
_cell_length_a       23.844
_cell_length_b       23.844
_cell_length_c       10.908
_cell_angle_alpha    90
_cell_angle_beta     90
_cell_angle_gamma    120

_symmetry_space_group_name_H-M    "P 1"
_symmetry_int_tables_number       1

loop_
  _symmetry_equiv_pos_as_xyz
  'x, y, z'

loop_
  _atom_site_label
  _atom_site_occupancy
  _atom_site_fract_x
  _atom_site_fract_y
  _atom_site_fract_z
  _atom_site_thermal_displace_type
  _atom_site_B_iso_or_equiv
  _atom_site_type_symbol
  C1       1.0000 0.84129  0.76520  0.76357  Biso   1.000  C
  N1       1.0000 0.86093  0.73813  0.68858  Biso   1.000  N
  N2       1.0000 0.86090  0.73808  0.68858  Biso   1.000  N
  C2       1.0000 0.87220  0.78651  0.88898  Biso   1.000  C
  H1       1.0000 0.80689  0.77232  0.74083  Biso   1.000  H
  C3       1.0000 0.82902  0.72103  0.56720  Biso   1.000  C
  C4       1.0000 0.82900  0.72099  0.56720  Biso   1.000  C
  C5       1.0000 0.92542  0.78331  0.92098  Biso   1.000  C
  C6       1.0000 0.84289  0.80951  0.96681  Biso   1.000  C
  C7       1.0000 0.79942  0.64951  0.54043  Biso   1.000  C
  C8       1.0000 0.87970  0.75503  0.46727  Biso   1.000  C
  C9       1.0000 0.87967  0.75498  0.46727  Biso   1.000  C
  H2       1.0000 0.79499  0.73392  0.56243  Biso   1.000  H
  H3       1.0000 0.94424  0.76685  0.86514  Biso   1.000  H
  H4       1.0000 0.94421  0.76680  0.86514  Biso   1.000  H
  C10      1.0000 0.95282  0.80491  0.03805  Biso   1.000  C
  H5       1.0000 0.80539  0.81092  0.94234  Biso   1.000  H
  C11      1.0000 0.86972  0.83063  0.08113  Biso   1.000  C
  C12      1.0000 0.86970  0.83058  0.08113  Biso   1.000  C
  C13      1.0000 0.79281  0.64810  0.40127  Biso   1.000  C
  H6       1.0000 0.75682  0.62394  0.58067  Biso   1.000  H
  H7       1.0000 0.82831  0.63314  0.56692  Biso   1.000  H
  H8       1.0000 0.75679  0.62389  0.58067  Biso   1.000  H
  H9       1.0000 0.82829  0.63309  0.56692  Biso   1.000  H
  C14      1.0000 0.84250  0.71561  0.35112  Biso   1.000  C
  N3       1.0000 0.89602  0.82283  0.45673  Biso   1.000  N
  H10      1.0000 0.91914  0.75154  0.48286  Biso   1.000  H
  N4       1.0000 0.89600  0.82278  0.45673  Biso   1.000  N
  H11      1.0000 0.91911  0.75149  0.48286  Biso   1.000  H
  C15      1.0000 0.92162  0.82830  0.11230  Biso   1.000  C
  C16      1.0000 0.01000  0.80544  0.07756  Biso   1.000  C
  C17      1.0000 0.00998  0.80539  0.07756  Biso   1.000  C
  C18      1.0000 0.84072  0.85532  0.17153  Biso   1.000  C
  H12      1.0000 0.74841  0.63740  0.37825  Biso   1.000  H
  H13      1.0000 0.80120  0.61474  0.36624  Biso   1.000  H
  H14      1.0000 0.80118  0.61469  0.36624  Biso   1.000  H
  H15      1.0000 0.82043  0.73614  0.30959  Biso   1.000  H
  H16      1.0000 0.87249  0.71251  0.29235  Biso   1.000  H
  H17      1.0000 0.82040  0.73609  0.30959  Biso   1.000  H
  C19      1.0000 0.95520  0.86360  0.46984  Biso   1.000  C
  H18      1.0000 0.93909  0.84370  0.19151  Biso   1.000  H
  N5       1.0000 0.02671  0.81421  0.19353  Biso   1.000  N
  H19      1.0000 0.03632  0.79944  0.01962  Biso   1.000  H
  H20      1.0000 0.03629  0.79939  0.01962  Biso   1.000  H
  N6       1.0000 0.78403  0.84544  0.16584  Biso   1.000  N
  H21      1.0000 0.86701  0.88031  0.23817  Biso   1.000  H
  N7       1.0000 0.78400  0.84540  0.16584  Biso   1.000  N
  C20      1.0000 0.97869  0.93223  0.47158  Biso   1.000  C
  H22      1.0000 0.98522  0.84874  0.47873  Biso   1.000  H
  C21      1.0000 0.97867  0.93218  0.47158  Biso   1.000  C
  H23      1.0000 0.98520  0.84869  0.47873  Biso   1.000  H
  C22      1.0000 0.08962  0.82544  0.23020  Biso   1.000  C
  C23      1.0000 0.08960  0.82539  0.23020  Biso   1.000  C
  C24      1.0000 0.76483  0.87213  0.26989  Biso   1.000  C
  C25      1.0000 0.76480  0.87208  0.26989  Biso   1.000  C
  C26      1.0000 0.93590  0.95702  0.47002  Biso   1.000  C
  C27      1.0000 0.04301  0.97891  0.47002  Biso   1.000  C
  C28      1.0000 0.12791  0.89271  0.26989  Biso   1.000  C
  H24      1.0000 0.11140  0.81590  0.16162  Biso   1.000  H
  C29      1.0000 0.08543  0.78602  0.34773  Biso   1.000  C
  H25      1.0000 0.80402  0.90002  0.32077  Biso   1.000  H
  C30      1.0000 0.73583  0.91043  0.23020  Biso   1.000  C
  C31      1.0000 0.71431  0.82050  0.34910  Biso   1.000  C
  C32      1.0000 0.73581  0.91038  0.23020  Biso   1.000  C
  H26      1.0000 0.89091  0.92651  0.46736  Biso   1.000  H
  C33      1.0000 0.95350  0.02133  0.47158  Biso   1.000  C
  C34      1.0000 0.95348  0.02128  0.47158  Biso   1.000  C
  H27      1.0000 0.07352  0.96443  0.46736  Biso   1.000  H
  H28      1.0000 0.07349  0.96438  0.46736  Biso   1.000  H
  C35      1.0000 0.06780  0.04651  0.47158  Biso   1.000  C
  N8       1.0000 0.15460  0.93862  0.16584  Biso   1.000  N
  H29      1.0000 0.10002  0.90404  0.32077  Biso   1.000  H
  C36      1.0000 0.17951  0.89382  0.34910  Biso   1.000  C
  H30      1.0000 0.10000  0.90399  0.32077  Biso   1.000  H
  H31      1.0000 0.04222  0.76762  0.38660  Biso   1.000  H
  H32      1.0000 0.09371  0.75024  0.32783  Biso   1.000  H
  C37      1.0000 0.13770  0.83513  0.43088  Biso   1.000  C
  H33      1.0000 0.09368  0.75019  0.32783  Biso   1.000  H
  C38      1.0000 0.13768  0.83508  0.43088  Biso   1.000  C
  N9       1.0000 0.78750  0.97334  0.19353  Biso   1.000  N
  H34      1.0000 0.70451  0.88864  0.16162  Biso   1.000  H
  C39      1.0000 0.70061  0.91465  0.34773  Biso   1.000  C
  N10      1.0000 0.78748  0.97329  0.19353  Biso   1.000  N
  H35      1.0000 0.70449  0.88859  0.16162  Biso   1.000  H
  C40      1.0000 0.70059  0.91460  0.34773  Biso   1.000  C
  C41      1.0000 0.69740  0.86234  0.43088  Biso   1.000  C
  H36      1.0000 0.73190  0.79765  0.39732  Biso   1.000  H
  H37      1.0000 0.67650  0.78883  0.30079  Biso   1.000  H
  C42      1.0000 0.69738  0.86230  0.43088  Biso   1.000  C
  H38      1.0000 0.73188  0.79760  0.39732  Biso   1.000  H
  H39      1.0000 0.67648  0.78878  0.30079  Biso   1.000  H
  C43      1.0000 0.90842  0.04482  0.46984  Biso   1.000  C
  C44      1.0000 0.02112  0.06414  0.47002  Biso   1.000  C
  C45      1.0000 0.02110  0.06409  0.47002  Biso   1.000  C
  C46      1.0000 0.13639  0.09160  0.46984  Biso   1.000  C
  C47      1.0000 0.14471  0.98545  0.17153  Biso   1.000  C
  C48      1.0000 0.14469  0.98540  0.17153  Biso   1.000  C
  H40      1.0000 0.20239  0.93431  0.39732  Biso   1.000  H
  H41      1.0000 0.21122  0.88772  0.30079  Biso   1.000  H
  H42      1.0000 0.16390  0.81740  0.46590  Biso   1.000  H
  H43      1.0000 0.11843  0.84733  0.49890  Biso   1.000  H
  H44      1.0000 0.11841  0.84728  0.49890  Biso   1.000  H
  C49      1.0000 0.79543  0.99005  0.07756  Biso   1.000  C
  C50      1.0000 0.79541  0.99000  0.07756  Biso   1.000  C
  H45      1.0000 0.72544  0.95784  0.38660  Biso   1.000  H
  H46      1.0000 0.65652  0.90632  0.32783  Biso   1.000  H
  H47      1.0000 0.72542  0.95780  0.38660  Biso   1.000  H
  H48      1.0000 0.65352  0.83615  0.46590  Biso   1.000  H
  H49      1.0000 0.72889  0.88162  0.49890  Biso   1.000  H
  H50      1.0000 0.65350  0.83610  0.46590  Biso   1.000  H
  N11      1.0000 0.92683  0.10405  0.45673  Biso   1.000  N
  H51      1.0000 0.86353  0.01484  0.47873  Biso   1.000  H
  N12      1.0000 0.92681  0.10400  0.45673  Biso   1.000  N
  H52      1.0000 0.86350  0.01479  0.47873  Biso   1.000  H
  H53      1.0000 0.03561  0.10913  0.46736  Biso   1.000  H
  H54      1.0000 0.03558  0.10908  0.46736  Biso   1.000  H
  N13      1.0000 0.17720  0.07325  0.45673  Biso   1.000  N
  H55      1.0000 0.15131  0.13654  0.47873  Biso   1.000  H
  N14      1.0000 0.17718  0.07320  0.45673  Biso   1.000  N
  H56      1.0000 0.15129  0.13649  0.47873  Biso   1.000  H
  H57      1.0000 0.11972  0.98671  0.23817  Biso   1.000  H
  C51      1.0000 0.16940  0.03910  0.08113  Biso   1.000  C
  H58      1.0000 0.76310  0.96370  0.01962  Biso   1.000  H
  C52      1.0000 0.85213  0.04724  0.03805  Biso   1.000  C
  C53      1.0000 0.85211  0.04719  0.03805  Biso   1.000  C
  C54      1.0000 0.87529  0.12032  0.46727  Biso   1.000  C
  C55      1.0000 0.24501  0.12472  0.46727  Biso   1.000  C
  C56      1.0000 0.19052  0.03344  0.96681  Biso   1.000  C
  C57      1.0000 0.19049  0.03339  0.96681  Biso   1.000  C
  C58      1.0000 0.17173  0.09334  0.11230  Biso   1.000  C
  C59      1.0000 0.17171  0.09329  0.11230  Biso   1.000  C
  C60      1.0000 0.85788  0.07460  0.92098  Biso   1.000  C
  C61      1.0000 0.90673  0.07843  0.11230  Biso   1.000  C
  C62      1.0000 0.90670  0.07838  0.11230  Biso   1.000  C
  H59      1.0000 0.83241  0.08095  0.48286  Biso   1.000  H
  C63      1.0000 0.89200  0.17102  0.56720  Biso   1.000  C
  C64      1.0000 0.87308  0.15751  0.35112  Biso   1.000  C
  H60      1.0000 0.83239  0.08090  0.48286  Biso   1.000  H
  H61      1.0000 0.24851  0.16763  0.48286  Biso   1.000  H
  C65      1.0000 0.27901  0.10802  0.56720  Biso   1.000  C
  C66      1.0000 0.28439  0.12690  0.35112  Biso   1.000  C
  H62      1.0000 0.24849  0.16758  0.48286  Biso   1.000  H
  C67      1.0000 0.21352  0.08574  0.88898  Biso   1.000  C
  C68      1.0000 0.21350  0.08569  0.88898  Biso   1.000  C
  H63      1.0000 0.18908  0.99450  0.94234  Biso   1.000  H
  C69      1.0000 0.19512  0.14792  0.03805  Biso   1.000  C
  H64      1.0000 0.15629  0.09543  0.19151  Biso   1.000  H
  H65      1.0000 0.15627  0.09538  0.19151  Biso   1.000  H
  C70      1.0000 0.91431  0.12782  0.88898  Biso   1.000  C
  H66      1.0000 0.82261  0.05581  0.86514  Biso   1.000  H
  H67      1.0000 0.90461  0.06095  0.19151  Biso   1.000  H
  C71      1.0000 0.96091  0.13034  0.08113  Biso   1.000  C
  H68      1.0000 0.90459  0.06090  0.19151  Biso   1.000  H
  C72      1.0000 0.96089  0.13029  0.08113  Biso   1.000  C
  N15      1.0000 0.87722  0.13911  0.68858  Biso   1.000  N
  H69      1.0000 0.93890  0.20502  0.56243  Biso   1.000  H
  C73      1.0000 0.85010  0.20061  0.54043  Biso   1.000  C
  C74      1.0000 0.85534  0.20724  0.40127  Biso   1.000  C
  H70      1.0000 0.91573  0.17964  0.30959  Biso   1.000  H
  H71      1.0000 0.84002  0.12753  0.29235  Biso   1.000  H
  C75      1.0000 0.85532  0.20720  0.40127  Biso   1.000  C
  H72      1.0000 0.91571  0.17959  0.30959  Biso   1.000  H
  H73      1.0000 0.84000  0.12748  0.29235  Biso   1.000  H
  N16      1.0000 0.26193  0.12284  0.68858  Biso   1.000  N
  H74      1.0000 0.26610  0.06114  0.56243  Biso   1.000  H
  C76      1.0000 0.35049  0.14991  0.54043  Biso   1.000  C
  N17      1.0000 0.26191  0.12279  0.68858  Biso   1.000  N
  H75      1.0000 0.26608  0.06109  0.56243  Biso   1.000  H
  C77      1.0000 0.35193  0.14472  0.40127  Biso   1.000  C
  H76      1.0000 0.26390  0.08434  0.30959  Biso   1.000  H
  H77      1.0000 0.28753  0.16003  0.29235  Biso   1.000  H
  C78      1.0000 0.35191  0.14468  0.40127  Biso   1.000  C
  H78      1.0000 0.26388  0.08429  0.30959  Biso   1.000  H
  H79      1.0000 0.28751  0.15998  0.29235  Biso   1.000  H
  C79      1.0000 0.23479  0.07610  0.76357  Biso   1.000  C
  C80      1.0000 0.21671  0.14211  0.92098  Biso   1.000  C
  C81      1.0000 0.19462  0.20463  0.07756  Biso   1.000  C
  C82      1.0000 0.19460  0.20458  0.07756  Biso   1.000  C
  C83      1.0000 0.92389  0.15872  0.76357  Biso   1.000  C
  C84      1.0000 0.96663  0.15712  0.96681  Biso   1.000  C
  C85      1.0000 0.01460  0.15930  0.17153  Biso   1.000  C
  H80      1.0000 0.86713  0.24323  0.58067  Biso   1.000  H
  H81      1.0000 0.80484  0.17175  0.56692  Biso   1.000  H
  H82      1.0000 0.86710  0.24318  0.58067  Biso   1.000  H
  H83      1.0000 0.80481  0.17170  0.56692  Biso   1.000  H
  H84      1.0000 0.88901  0.25160  0.37825  Biso   1.000  H
  H85      1.0000 0.81351  0.19882  0.36624  Biso   1.000  H
  H86      1.0000 0.37609  0.13291  0.58067  Biso   1.000  H
  H87      1.0000 0.36691  0.19523  0.56692  Biso   1.000  H
  H88      1.0000 0.36688  0.19519  0.56692  Biso   1.000  H
  H89      1.0000 0.36259  0.11102  0.37825  Biso   1.000  H
  H90      1.0000 0.38532  0.18652  0.36624  Biso   1.000  H
  H91      1.0000 0.22771  0.03460  0.74083  Biso   1.000  H
  H92      1.0000 0.23319  0.17741  0.86514  Biso   1.000  H
  N18      1.0000 0.18582  0.21252  0.19353  Biso   1.000  N
  H93      1.0000 0.20062  0.23693  0.01962  Biso   1.000  H
  H94      1.0000 0.20060  0.23688  0.01962  Biso   1.000  H
  H95      1.0000 0.96541  0.19310  0.74083  Biso   1.000  H
  H96      1.0000 0.00550  0.19460  0.94234  Biso   1.000  H
  N19      1.0000 0.06141  0.21601  0.16584  Biso   1.000  N
  H97      1.0000 0.01328  0.13301  0.23817  Biso   1.000  H
  C86      1.0000 0.17461  0.26424  0.23020  Biso   1.000  C
  C87      1.0000 0.17458  0.26419  0.23020  Biso   1.000  C
  C88      1.0000 0.10730  0.23524  0.26989  Biso   1.000  C
  C89      1.0000 0.10728  0.23519  0.26989  Biso   1.000  C
  H98      1.0000 0.18412  0.29553  0.16162  Biso   1.000  H
  C90      1.0000 0.21399  0.29940  0.34773  Biso   1.000  C
  H99      1.0000 0.18410  0.29548  0.16162  Biso   1.000  H
  H100     1.0000 0.09599  0.19601  0.32077  Biso   1.000  H
  C91      1.0000 0.10622  0.28574  0.34910  Biso   1.000  C
  C92      1.0000 0.10619  0.28570  0.34910  Biso   1.000  C
  H101     1.0000 0.23242  0.27461  0.38660  Biso   1.000  H
  H102     1.0000 0.24981  0.34352  0.32783  Biso   1.000  H
  C93      1.0000 0.16491  0.30265  0.43088  Biso   1.000  C
  C94      1.0000 0.16489  0.30260  0.43088  Biso   1.000  C
  H103     1.0000 0.06570  0.26812  0.39732  Biso   1.000  H
  H104     1.0000 0.11231  0.32352  0.30079  Biso   1.000  H
  H105     1.0000 0.18261  0.34652  0.46590  Biso   1.000  H
  H106     1.0000 0.15271  0.27112  0.49890  Biso   1.000  H
  C95      1.0000 0.84129  0.76520  0.76357  Biso   1.000  C
  N20      1.0000 0.86093  0.73813  0.68858  Biso   1.000  N
  N21      1.0000 0.86090  0.73808  0.68858  Biso   1.000  N
  C96      1.0000 0.87220  0.78651  0.88898  Biso   1.000  C
  H107     1.0000 0.80689  0.77232  0.74083  Biso   1.000  H
  C97      1.0000 0.82902  0.72103  0.56720  Biso   1.000  C
  C98      1.0000 0.82900  0.72099  0.56720  Biso   1.000  C
  C99      1.0000 0.92542  0.78331  0.92098  Biso   1.000  C
  C100     1.0000 0.84289  0.80951  0.96681  Biso   1.000  C
  C101     1.0000 0.79942  0.64951  0.54043  Biso   1.000  C
  C102     1.0000 0.87970  0.75503  0.46727  Biso   1.000  C
  C103     1.0000 0.87967  0.75498  0.46727  Biso   1.000  C
  H108     1.0000 0.79499  0.73392  0.56243  Biso   1.000  H
  H109     1.0000 0.94424  0.76685  0.86514  Biso   1.000  H
  H110     1.0000 0.94421  0.76680  0.86514  Biso   1.000  H
  C104     1.0000 0.95282  0.80491  0.03805  Biso   1.000  C
  H111     1.0000 0.80539  0.81092  0.94234  Biso   1.000  H
  C105     1.0000 0.86972  0.83063  0.08113  Biso   1.000  C
  C106     1.0000 0.86970  0.83058  0.08113  Biso   1.000  C
  C107     1.0000 0.79281  0.64810  0.40127  Biso   1.000  C
  H112     1.0000 0.75682  0.62394  0.58067  Biso   1.000  H
  H113     1.0000 0.82831  0.63314  0.56692  Biso   1.000  H
  H114     1.0000 0.75679  0.62389  0.58067  Biso   1.000  H
  H115     1.0000 0.82829  0.63309  0.56692  Biso   1.000  H
  C108     1.0000 0.84250  0.71561  0.35112  Biso   1.000  C
  N22      1.0000 0.89602  0.82283  0.45673  Biso   1.000  N
  H116     1.0000 0.91914  0.75154  0.48286  Biso   1.000  H
  N23      1.0000 0.89600  0.82278  0.45673  Biso   1.000  N
  H117     1.0000 0.91911  0.75149  0.48286  Biso   1.000  H
  C109     1.0000 0.92162  0.82830  0.11230  Biso   1.000  C
  C110     1.0000 0.01000  0.80544  0.07756  Biso   1.000  C
  C111     1.0000 0.00998  0.80539  0.07756  Biso   1.000  C
  C112     1.0000 0.84072  0.85532  0.17153  Biso   1.000  C
  H118     1.0000 0.74841  0.63740  0.37825  Biso   1.000  H
  H119     1.0000 0.80120  0.61474  0.36624  Biso   1.000  H
  H120     1.0000 0.80118  0.61469  0.36624  Biso   1.000  H
  H121     1.0000 0.87249  0.71251  0.29235  Biso   1.000  H
  H122     1.0000 0.82043  0.73614  0.30959  Biso   1.000  H
  H123     1.0000 0.82040  0.73609  0.30959  Biso   1.000  H
  C113     1.0000 0.95520  0.86360  0.46984  Biso   1.000  C
  H124     1.0000 0.93909  0.84370  0.19151  Biso   1.000  H
  N24      1.0000 0.02671  0.81421  0.19353  Biso   1.000  N
  H125     1.0000 0.03632  0.79944  0.01962  Biso   1.000  H
  H126     1.0000 0.03629  0.79939  0.01962  Biso   1.000  H
  N25      1.0000 0.78403  0.84544  0.16584  Biso   1.000  N
  H127     1.0000 0.86701  0.88031  0.23817  Biso   1.000  H
  N26      1.0000 0.78400  0.84540  0.16584  Biso   1.000  N
  C114     1.0000 0.97869  0.93223  0.47158  Biso   1.000  C
  H128     1.0000 0.98522  0.84874  0.47873  Biso   1.000  H
  C115     1.0000 0.97867  0.93218  0.47158  Biso   1.000  C
  H129     1.0000 0.98520  0.84869  0.47873  Biso   1.000  H
  C116     1.0000 0.08962  0.82544  0.23020  Biso   1.000  C
  C117     1.0000 0.08960  0.82539  0.23020  Biso   1.000  C
  C118     1.0000 0.76483  0.87213  0.26989  Biso   1.000  C
  C119     1.0000 0.76480  0.87208  0.26989  Biso   1.000  C
  C120     1.0000 0.93590  0.95702  0.47002  Biso   1.000  C
  C121     1.0000 0.04301  0.97891  0.47002  Biso   1.000  C
  C122     1.0000 0.12791  0.89271  0.26989  Biso   1.000  C
  H130     1.0000 0.11140  0.81590  0.16162  Biso   1.000  H
  C123     1.0000 0.08543  0.78602  0.34773  Biso   1.000  C
  H131     1.0000 0.80402  0.90002  0.32077  Biso   1.000  H
  C124     1.0000 0.73583  0.91043  0.23020  Biso   1.000  C
  C125     1.0000 0.71431  0.82050  0.34910  Biso   1.000  C
  C126     1.0000 0.73581  0.91038  0.23020  Biso   1.000  C
  H132     1.0000 0.89091  0.92651  0.46736  Biso   1.000  H
  C127     1.0000 0.95350  0.02133  0.47158  Biso   1.000  C
  C128     1.0000 0.95348  0.02128  0.47158  Biso   1.000  C
  H133     1.0000 0.07352  0.96443  0.46736  Biso   1.000  H
  H134     1.0000 0.07349  0.96438  0.46736  Biso   1.000  H
  C129     1.0000 0.06780  0.04651  0.47158  Biso   1.000  C
  N27      1.0000 0.15460  0.93862  0.16584  Biso   1.000  N
  H135     1.0000 0.10002  0.90404  0.32077  Biso   1.000  H
  C130     1.0000 0.17951  0.89382  0.34910  Biso   1.000  C
  H136     1.0000 0.10000  0.90399  0.32077  Biso   1.000  H
  H137     1.0000 0.04222  0.76762  0.38660  Biso   1.000  H
  H138     1.0000 0.09371  0.75024  0.32783  Biso   1.000  H
  C131     1.0000 0.13770  0.83513  0.43088  Biso   1.000  C
  H139     1.0000 0.09368  0.75019  0.32783  Biso   1.000  H
  C132     1.0000 0.13768  0.83508  0.43088  Biso   1.000  C
  N28      1.0000 0.78750  0.97334  0.19353  Biso   1.000  N
  H140     1.0000 0.70451  0.88864  0.16162  Biso   1.000  H
  C133     1.0000 0.70061  0.91465  0.34773  Biso   1.000  C
  N29      1.0000 0.78748  0.97329  0.19353  Biso   1.000  N
  H141     1.0000 0.70449  0.88859  0.16162  Biso   1.000  H
  C134     1.0000 0.70059  0.91460  0.34773  Biso   1.000  C
  C135     1.0000 0.69740  0.86234  0.43088  Biso   1.000  C
  H142     1.0000 0.73190  0.79765  0.39732  Biso   1.000  H
  H143     1.0000 0.67650  0.78883  0.30079  Biso   1.000  H
  C136     1.0000 0.69738  0.86230  0.43088  Biso   1.000  C
  H144     1.0000 0.73188  0.79760  0.39732  Biso   1.000  H
  H145     1.0000 0.67648  0.78878  0.30079  Biso   1.000  H
  C137     1.0000 0.90842  0.04482  0.46984  Biso   1.000  C
  C138     1.0000 0.02112  0.06414  0.47002  Biso   1.000  C
  C139     1.0000 0.02110  0.06409  0.47002  Biso   1.000  C
  C140     1.0000 0.13639  0.09160  0.46984  Biso   1.000  C
  C141     1.0000 0.14471  0.98545  0.17153  Biso   1.000  C
  C142     1.0000 0.14469  0.98540  0.17153  Biso   1.000  C
  H146     1.0000 0.20239  0.93431  0.39732  Biso   1.000  H
  H147     1.0000 0.21122  0.88772  0.30079  Biso   1.000  H
  H148     1.0000 0.16390  0.81740  0.46590  Biso   1.000  H
  H149     1.0000 0.11843  0.84733  0.49890  Biso   1.000  H
  H150     1.0000 0.11841  0.84728  0.49890  Biso   1.000  H
  C143     1.0000 0.79543  0.99005  0.07756  Biso   1.000  C
  C144     1.0000 0.79541  0.99000  0.07756  Biso   1.000  C
  H151     1.0000 0.72544  0.95784  0.38660  Biso   1.000  H
  H152     1.0000 0.65652  0.90632  0.32783  Biso   1.000  H
  H153     1.0000 0.72542  0.95780  0.38660  Biso   1.000  H
  H154     1.0000 0.65352  0.83615  0.46590  Biso   1.000  H
  H155     1.0000 0.72889  0.88162  0.49890  Biso   1.000  H
  H156     1.0000 0.65350  0.83610  0.46590  Biso   1.000  H
  N30      1.0000 0.92683  0.10405  0.45673  Biso   1.000  N
  H157     1.0000 0.86353  0.01484  0.47873  Biso   1.000  H
  N31      1.0000 0.92681  0.10400  0.45673  Biso   1.000  N
  H158     1.0000 0.86350  0.01479  0.47873  Biso   1.000  H
  H159     1.0000 0.03561  0.10913  0.46736  Biso   1.000  H
  H160     1.0000 0.03558  0.10908  0.46736  Biso   1.000  H
  N32      1.0000 0.17720  0.07325  0.45673  Biso   1.000  N
  H161     1.0000 0.15131  0.13654  0.47873  Biso   1.000  H
  N33      1.0000 0.17718  0.07320  0.45673  Biso   1.000  N
  H162     1.0000 0.15129  0.13649  0.47873  Biso   1.000  H
  H163     1.0000 0.11972  0.98671  0.23817  Biso   1.000  H
  C145     1.0000 0.16940  0.03910  0.08113  Biso   1.000  C
  H164     1.0000 0.76310  0.96370  0.01962  Biso   1.000  H
  C146     1.0000 0.85213  0.04724  0.03805  Biso   1.000  C
  C147     1.0000 0.85211  0.04719  0.03805  Biso   1.000  C
  C148     1.0000 0.87529  0.12032  0.46727  Biso   1.000  C
  C149     1.0000 0.24501  0.12472  0.46727  Biso   1.000  C
  C150     1.0000 0.19052  0.03344  0.96681  Biso   1.000  C
  C151     1.0000 0.19049  0.03339  0.96681  Biso   1.000  C
  C152     1.0000 0.17173  0.09334  0.11230  Biso   1.000  C
  C153     1.0000 0.17171  0.09329  0.11230  Biso   1.000  C
  C154     1.0000 0.85788  0.07460  0.92098  Biso   1.000  C
  C155     1.0000 0.90673  0.07843  0.11230  Biso   1.000  C
  C156     1.0000 0.90670  0.07838  0.11230  Biso   1.000  C
  H165     1.0000 0.83241  0.08095  0.48286  Biso   1.000  H
  C157     1.0000 0.89200  0.17102  0.56720  Biso   1.000  C
  C158     1.0000 0.87308  0.15751  0.35112  Biso   1.000  C
  H166     1.0000 0.83239  0.08090  0.48286  Biso   1.000  H
  H167     1.0000 0.24851  0.16763  0.48286  Biso   1.000  H
  C159     1.0000 0.27901  0.10802  0.56720  Biso   1.000  C
  C160     1.0000 0.28439  0.12690  0.35112  Biso   1.000  C
  H168     1.0000 0.24849  0.16758  0.48286  Biso   1.000  H
  C161     1.0000 0.21352  0.08574  0.88898  Biso   1.000  C
  C162     1.0000 0.21350  0.08569  0.88898  Biso   1.000  C
  H169     1.0000 0.18908  0.99450  0.94234  Biso   1.000  H
  C163     1.0000 0.19512  0.14792  0.03805  Biso   1.000  C
  H170     1.0000 0.15629  0.09543  0.19151  Biso   1.000  H
  H171     1.0000 0.15627  0.09538  0.19151  Biso   1.000  H
  C164     1.0000 0.91431  0.12782  0.88898  Biso   1.000  C
  H172     1.0000 0.82261  0.05581  0.86514  Biso   1.000  H
  H173     1.0000 0.90461  0.06095  0.19151  Biso   1.000  H
  C165     1.0000 0.96091  0.13034  0.08113  Biso   1.000  C
  H174     1.0000 0.90459  0.06090  0.19151  Biso   1.000  H
  C166     1.0000 0.96089  0.13029  0.08113  Biso   1.000  C
  N34      1.0000 0.87722  0.13911  0.68858  Biso   1.000  N
  H175     1.0000 0.93890  0.20502  0.56243  Biso   1.000  H
  C167     1.0000 0.85010  0.20061  0.54043  Biso   1.000  C
  C168     1.0000 0.85534  0.20724  0.40127  Biso   1.000  C
  H176     1.0000 0.91573  0.17964  0.30959  Biso   1.000  H
  H177     1.0000 0.84002  0.12753  0.29235  Biso   1.000  H
  C169     1.0000 0.85532  0.20720  0.40127  Biso   1.000  C
  H178     1.0000 0.91571  0.17959  0.30959  Biso   1.000  H
  H179     1.0000 0.84000  0.12748  0.29235  Biso   1.000  H
  N35      1.0000 0.26193  0.12284  0.68858  Biso   1.000  N
  H180     1.0000 0.26610  0.06114  0.56243  Biso   1.000  H
  C170     1.0000 0.35049  0.14991  0.54043  Biso   1.000  C
  N36      1.0000 0.26191  0.12279  0.68858  Biso   1.000  N
  H181     1.0000 0.26608  0.06109  0.56243  Biso   1.000  H
  C171     1.0000 0.35193  0.14472  0.40127  Biso   1.000  C
  H182     1.0000 0.26390  0.08434  0.30959  Biso   1.000  H
  H183     1.0000 0.28753  0.16003  0.29235  Biso   1.000  H
  C172     1.0000 0.35191  0.14468  0.40127  Biso   1.000  C
  H184     1.0000 0.26388  0.08429  0.30959  Biso   1.000  H
  H185     1.0000 0.28751  0.15998  0.29235  Biso   1.000  H
  C173     1.0000 0.23479  0.07610  0.76357  Biso   1.000  C
  C174     1.0000 0.21671  0.14211  0.92098  Biso   1.000  C
  C175     1.0000 0.19462  0.20463  0.07756  Biso   1.000  C
  C176     1.0000 0.19460  0.20458  0.07756  Biso   1.000  C
  C177     1.0000 0.92389  0.15872  0.76357  Biso   1.000  C
  C178     1.0000 0.96663  0.15712  0.96681  Biso   1.000  C
  C179     1.0000 0.01460  0.15930  0.17153  Biso   1.000  C
  H186     1.0000 0.86713  0.24323  0.58067  Biso   1.000  H
  H187     1.0000 0.80484  0.17175  0.56692  Biso   1.000  H
  H188     1.0000 0.86710  0.24318  0.58067  Biso   1.000  H
  H189     1.0000 0.80481  0.17170  0.56692  Biso   1.000  H
  H190     1.0000 0.88901  0.25160  0.37825  Biso   1.000  H
  H191     1.0000 0.81351  0.19882  0.36624  Biso   1.000  H
  H192     1.0000 0.37609  0.13291  0.58067  Biso   1.000  H
  H193     1.0000 0.36691  0.19523  0.56692  Biso   1.000  H
  H194     1.0000 0.36688  0.19519  0.56692  Biso   1.000  H
  H195     1.0000 0.36259  0.11102  0.37825  Biso   1.000  H
  H196     1.0000 0.38532  0.18652  0.36624  Biso   1.000  H
  H197     1.0000 0.22771  0.03460  0.74083  Biso   1.000  H
  H198     1.0000 0.23319  0.17741  0.86514  Biso   1.000  H
  N37      1.0000 0.18582  0.21252  0.19353  Biso   1.000  N
  H199     1.0000 0.20062  0.23693  0.01962  Biso   1.000  H
  H200     1.0000 0.20060  0.23688  0.01962  Biso   1.000  H
  H201     1.0000 0.96541  0.19310  0.74083  Biso   1.000  H
  H202     1.0000 0.00550  0.19460  0.94234  Biso   1.000  H
  N38      1.0000 0.06141  0.21601  0.16584  Biso   1.000  N
  H203     1.0000 0.01328  0.13301  0.23817  Biso   1.000  H
  C180     1.0000 0.17461  0.26424  0.23020  Biso   1.000  C
  C181     1.0000 0.17458  0.26419  0.23020  Biso   1.000  C
  C182     1.0000 0.10730  0.23524  0.26989  Biso   1.000  C
  C183     1.0000 0.10728  0.23519  0.26989  Biso   1.000  C
  H204     1.0000 0.18412  0.29553  0.16162  Biso   1.000  H
  C184     1.0000 0.21399  0.29940  0.34773  Biso   1.000  C
  H205     1.0000 0.18410  0.29548  0.16162  Biso   1.000  H
  H206     1.0000 0.09599  0.19601  0.32077  Biso   1.000  H
  C185     1.0000 0.10622  0.28574  0.34910  Biso   1.000  C
  C186     1.0000 0.10619  0.28570  0.34910  Biso   1.000  C
  H207     1.0000 0.23242  0.27461  0.38660  Biso   1.000  H
  H208     1.0000 0.24981  0.34352  0.32783  Biso   1.000  H
  C187     1.0000 0.16491  0.30265  0.43088  Biso   1.000  C
  C188     1.0000 0.16489  0.30260  0.43088  Biso   1.000  C
  H209     1.0000 0.06570  0.26812  0.39732  Biso   1.000  H
  H210     1.0000 0.11231  0.32352  0.30079  Biso   1.000  H
  H211     1.0000 0.18261  0.34652  0.46590  Biso   1.000  H
  H212     1.0000 0.15271  0.27112  0.49890  Biso   1.000  H
  C189     1.0000 0.84129  0.76520  0.76357  Biso   1.000  C
  N39      1.0000 0.86093  0.73813  0.68858  Biso   1.000  N
  N40      1.0000 0.86090  0.73808  0.68858  Biso   1.000  N
  C190     1.0000 0.87220  0.78651  0.88898  Biso   1.000  C
  H213     1.0000 0.80689  0.77232  0.74083  Biso   1.000  H
  C191     1.0000 0.82902  0.72103  0.56720  Biso   1.000  C
  C192     1.0000 0.82900  0.72099  0.56720  Biso   1.000  C
  C193     1.0000 0.92542  0.78331  0.92098  Biso   1.000  C
  C194     1.0000 0.84289  0.80951  0.96681  Biso   1.000  C
  C195     1.0000 0.79942  0.64951  0.54043  Biso   1.000  C
  C196     1.0000 0.87970  0.75503  0.46727  Biso   1.000  C
  C197     1.0000 0.87967  0.75498  0.46727  Biso   1.000  C
  H214     1.0000 0.79499  0.73392  0.56243  Biso   1.000  H
  H215     1.0000 0.94424  0.76685  0.86514  Biso   1.000  H
  H216     1.0000 0.94421  0.76680  0.86514  Biso   1.000  H
  C198     1.0000 0.95282  0.80491  0.03805  Biso   1.000  C
  H217     1.0000 0.80539  0.81092  0.94234  Biso   1.000  H
  C199     1.0000 0.86972  0.83063  0.08113  Biso   1.000  C
  C200     1.0000 0.86970  0.83058  0.08113  Biso   1.000  C
  C201     1.0000 0.79281  0.64810  0.40127  Biso   1.000  C
  H218     1.0000 0.75682  0.62394  0.58067  Biso   1.000  H
  H219     1.0000 0.82831  0.63314  0.56692  Biso   1.000  H
  H220     1.0000 0.75679  0.62389  0.58067  Biso   1.000  H
  H221     1.0000 0.82829  0.63309  0.56692  Biso   1.000  H
  C202     1.0000 0.84250  0.71561  0.35112  Biso   1.000  C
  N41      1.0000 0.89602  0.82283  0.45673  Biso   1.000  N
  H222     1.0000 0.91914  0.75154  0.48286  Biso   1.000  H
  N42      1.0000 0.89600  0.82278  0.45673  Biso   1.000  N
  H223     1.0000 0.91911  0.75149  0.48286  Biso   1.000  H
  C203     1.0000 0.92162  0.82830  0.11230  Biso   1.000  C
  C204     1.0000 0.01000  0.80544  0.07756  Biso   1.000  C
  C205     1.0000 0.00998  0.80539  0.07756  Biso   1.000  C
  C206     1.0000 0.84072  0.85532  0.17153  Biso   1.000  C
  H224     1.0000 0.74841  0.63740  0.37825  Biso   1.000  H
  H225     1.0000 0.80120  0.61474  0.36624  Biso   1.000  H
  H226     1.0000 0.80118  0.61469  0.36624  Biso   1.000  H
  H227     1.0000 0.87249  0.71251  0.29235  Biso   1.000  H
  H228     1.0000 0.82043  0.73614  0.30959  Biso   1.000  H
  H229     1.0000 0.82040  0.73609  0.30959  Biso   1.000  H
  C207     1.0000 0.95520  0.86360  0.46984  Biso   1.000  C
  H230     1.0000 0.93909  0.84370  0.19151  Biso   1.000  H
  N43      1.0000 0.02671  0.81421  0.19353  Biso   1.000  N
  H231     1.0000 0.03632  0.79944  0.01962  Biso   1.000  H
  H232     1.0000 0.03629  0.79939  0.01962  Biso   1.000  H
  N44      1.0000 0.78403  0.84544  0.16584  Biso   1.000  N
  H233     1.0000 0.86701  0.88031  0.23817  Biso   1.000  H
  N45      1.0000 0.78400  0.84540  0.16584  Biso   1.000  N
  C208     1.0000 0.97869  0.93223  0.47158  Biso   1.000  C
  H234     1.0000 0.98522  0.84874  0.47873  Biso   1.000  H
  C209     1.0000 0.97867  0.93218  0.47158  Biso   1.000  C
  H235     1.0000 0.98520  0.84869  0.47873  Biso   1.000  H
  C210     1.0000 0.08962  0.82544  0.23020  Biso   1.000  C
  C211     1.0000 0.08960  0.82539  0.23020  Biso   1.000  C
  C212     1.0000 0.76483  0.87213  0.26989  Biso   1.000  C
  C213     1.0000 0.76480  0.87208  0.26989  Biso   1.000  C
  C214     1.0000 0.93590  0.95702  0.47002  Biso   1.000  C
  C215     1.0000 0.04301  0.97891  0.47002  Biso   1.000  C
  C216     1.0000 0.12791  0.89271  0.26989  Biso   1.000  C
  H236     1.0000 0.11140  0.81590  0.16162  Biso   1.000  H
  C217     1.0000 0.08543  0.78602  0.34773  Biso   1.000  C
  H237     1.0000 0.80402  0.90002  0.32077  Biso   1.000  H
  C218     1.0000 0.73583  0.91043  0.23020  Biso   1.000  C
  C219     1.0000 0.71431  0.82050  0.34910  Biso   1.000  C
  C220     1.0000 0.73581  0.91038  0.23020  Biso   1.000  C
  H238     1.0000 0.89091  0.92651  0.46736  Biso   1.000  H
  C221     1.0000 0.95350  0.02133  0.47158  Biso   1.000  C
  C222     1.0000 0.95348  0.02128  0.47158  Biso   1.000  C
  H239     1.0000 0.07352  0.96443  0.46736  Biso   1.000  H
  H240     1.0000 0.07349  0.96438  0.46736  Biso   1.000  H
  C223     1.0000 0.06780  0.04651  0.47158  Biso   1.000  C
  N46      1.0000 0.15460  0.93862  0.16584  Biso   1.000  N
  H241     1.0000 0.10002  0.90404  0.32077  Biso   1.000  H
  C224     1.0000 0.17951  0.89382  0.34910  Biso   1.000  C
  H242     1.0000 0.10000  0.90399  0.32077  Biso   1.000  H
  H243     1.0000 0.04222  0.76762  0.38660  Biso   1.000  H
  H244     1.0000 0.09371  0.75024  0.32783  Biso   1.000  H
  C225     1.0000 0.13770  0.83513  0.43088  Biso   1.000  C
  H245     1.0000 0.09368  0.75019  0.32783  Biso   1.000  H
  C226     1.0000 0.13768  0.83508  0.43088  Biso   1.000  C
  N47      1.0000 0.78750  0.97334  0.19353  Biso   1.000  N
  H246     1.0000 0.70451  0.88864  0.16162  Biso   1.000  H
  C227     1.0000 0.70061  0.91465  0.34773  Biso   1.000  C
  N48      1.0000 0.78748  0.97329  0.19353  Biso   1.000  N
  H247     1.0000 0.70449  0.88859  0.16162  Biso   1.000  H
  C228     1.0000 0.70059  0.91460  0.34773  Biso   1.000  C
  C229     1.0000 0.69740  0.86234  0.43088  Biso   1.000  C
  H248     1.0000 0.73190  0.79765  0.39732  Biso   1.000  H
  H249     1.0000 0.67650  0.78883  0.30079  Biso   1.000  H
  C230     1.0000 0.69738  0.86230  0.43088  Biso   1.000  C
  H250     1.0000 0.73188  0.79760  0.39732  Biso   1.000  H
  H251     1.0000 0.67648  0.78878  0.30079  Biso   1.000  H
  C231     1.0000 0.90842  0.04482  0.46984  Biso   1.000  C
  C232     1.0000 0.02112  0.06414  0.47002  Biso   1.000  C
  C233     1.0000 0.02110  0.06409  0.47002  Biso   1.000  C
  C234     1.0000 0.13639  0.09160  0.46984  Biso   1.000  C
  C235     1.0000 0.14471  0.98545  0.17153  Biso   1.000  C
  C236     1.0000 0.14469  0.98540  0.17153  Biso   1.000  C
  H252     1.0000 0.20239  0.93431  0.39732  Biso   1.000  H
  H253     1.0000 0.21122  0.88772  0.30079  Biso   1.000  H
  H254     1.0000 0.16390  0.81740  0.46590  Biso   1.000  H
  H255     1.0000 0.11843  0.84733  0.49890  Biso   1.000  H
  H256     1.0000 0.11841  0.84728  0.49890  Biso   1.000  H
  C237     1.0000 0.79543  0.99005  0.07756  Biso   1.000  C
  C238     1.0000 0.79541  0.99000  0.07756  Biso   1.000  C
  H257     1.0000 0.72544  0.95784  0.38660  Biso   1.000  H
  H258     1.0000 0.65652  0.90632  0.32783  Biso   1.000  H
  H259     1.0000 0.72542  0.95780  0.38660  Biso   1.000  H
  H260     1.0000 0.65352  0.83615  0.46590  Biso   1.000  H
  H261     1.0000 0.72889  0.88162  0.49890  Biso   1.000  H
  H262     1.0000 0.65350  0.83610  0.46590  Biso   1.000  H
  N49      1.0000 0.92683  0.10405  0.45673  Biso   1.000  N
  H263     1.0000 0.86353  0.01484  0.47873  Biso   1.000  H
  N50      1.0000 0.92681  0.10400  0.45673  Biso   1.000  N
  H264     1.0000 0.86350  0.01479  0.47873  Biso   1.000  H
  H265     1.0000 0.03561  0.10913  0.46736  Biso   1.000  H
  H266     1.0000 0.03558  0.10908  0.46736  Biso   1.000  H
  N51      1.0000 0.17720  0.07325  0.45673  Biso   1.000  N
  H267     1.0000 0.15131  0.13654  0.47873  Biso   1.000  H
  N52      1.0000 0.17718  0.07320  0.45673  Biso   1.000  N
  H268     1.0000 0.15129  0.13649  0.47873  Biso   1.000  H
  H269     1.0000 0.11972  0.98671  0.23817  Biso   1.000  H
  C239     1.0000 0.16940  0.03910  0.08113  Biso   1.000  C
  H270     1.0000 0.76310  0.96370  0.01962  Biso   1.000  H
  C240     1.0000 0.85213  0.04724  0.03805  Biso   1.000  C
  C241     1.0000 0.85211  0.04719  0.03805  Biso   1.000  C
  C242     1.0000 0.87529  0.12032  0.46727  Biso   1.000  C
  C243     1.0000 0.24501  0.12472  0.46727  Biso   1.000  C
  C244     1.0000 0.19052  0.03344  0.96681  Biso   1.000  C
  C245     1.0000 0.19049  0.03339  0.96681  Biso   1.000  C
  C246     1.0000 0.17173  0.09334  0.11230  Biso   1.000  C
  C247     1.0000 0.17171  0.09329  0.11230  Biso   1.000  C
  C248     1.0000 0.85788  0.07460  0.92098  Biso   1.000  C
  C249     1.0000 0.90673  0.07843  0.11230  Biso   1.000  C
  C250     1.0000 0.90670  0.07838  0.11230  Biso   1.000  C
  H271     1.0000 0.83241  0.08095  0.48286  Biso   1.000  H
  C251     1.0000 0.89200  0.17102  0.56720  Biso   1.000  C
  C252     1.0000 0.87308  0.15751  0.35112  Biso   1.000  C
  H272     1.0000 0.83239  0.08090  0.48286  Biso   1.000  H
  H273     1.0000 0.24851  0.16763  0.48286  Biso   1.000  H
  C253     1.0000 0.27901  0.10802  0.56720  Biso   1.000  C
  C254     1.0000 0.28439  0.12690  0.35112  Biso   1.000  C
  H274     1.0000 0.24849  0.16758  0.48286  Biso   1.000  H
  C255     1.0000 0.21352  0.08574  0.88898  Biso   1.000  C
  C256     1.0000 0.21350  0.08569  0.88898  Biso   1.000  C
  H275     1.0000 0.18908  0.99450  0.94234  Biso   1.000  H
  C257     1.0000 0.19512  0.14792  0.03805  Biso   1.000  C
  H276     1.0000 0.15629  0.09543  0.19151  Biso   1.000  H
  H277     1.0000 0.15627  0.09538  0.19151  Biso   1.000  H
  C258     1.0000 0.91431  0.12782  0.88898  Biso   1.000  C
  H278     1.0000 0.82261  0.05581  0.86514  Biso   1.000  H
  H279     1.0000 0.90461  0.06095  0.19151  Biso   1.000  H
  C259     1.0000 0.96091  0.13034  0.08113  Biso   1.000  C
  H280     1.0000 0.90459  0.06090  0.19151  Biso   1.000  H
  C260     1.0000 0.96089  0.13029  0.08113  Biso   1.000  C
  N53      1.0000 0.87722  0.13911  0.68858  Biso   1.000  N
  H281     1.0000 0.93890  0.20502  0.56243  Biso   1.000  H
  C261     1.0000 0.85010  0.20061  0.54043  Biso   1.000  C
  C262     1.0000 0.85534  0.20724  0.40127  Biso   1.000  C
  H282     1.0000 0.91573  0.17964  0.30959  Biso   1.000  H
  H283     1.0000 0.84002  0.12753  0.29235  Biso   1.000  H
  C263     1.0000 0.85532  0.20720  0.40127  Biso   1.000  C
  H284     1.0000 0.91571  0.17959  0.30959  Biso   1.000  H
  H285     1.0000 0.84000  0.12748  0.29235  Biso   1.000  H
  N54      1.0000 0.26193  0.12284  0.68858  Biso   1.000  N
  H286     1.0000 0.26610  0.06114  0.56243  Biso   1.000  H
  C264     1.0000 0.35049  0.14991  0.54043  Biso   1.000  C
  N55      1.0000 0.26191  0.12279  0.68858  Biso   1.000  N
  H287     1.0000 0.26608  0.06109  0.56243  Biso   1.000  H
  C265     1.0000 0.35193  0.14472  0.40127  Biso   1.000  C
  H288     1.0000 0.26390  0.08434  0.30959  Biso   1.000  H
  H289     1.0000 0.28753  0.16003  0.29235  Biso   1.000  H
  C266     1.0000 0.35191  0.14468  0.40127  Biso   1.000  C
  H290     1.0000 0.26388  0.08429  0.30959  Biso   1.000  H
  H291     1.0000 0.28751  0.15998  0.29235  Biso   1.000  H
  C267     1.0000 0.23479  0.07610  0.76357  Biso   1.000  C
  C268     1.0000 0.21671  0.14211  0.92098  Biso   1.000  C
  C269     1.0000 0.19462  0.20463  0.07756  Biso   1.000  C
  C270     1.0000 0.19460  0.20458  0.07756  Biso   1.000  C
  C271     1.0000 0.92389  0.15872  0.76357  Biso   1.000  C
  C272     1.0000 0.96663  0.15712  0.96681  Biso   1.000  C
  C273     1.0000 0.01460  0.15930  0.17153  Biso   1.000  C
  H292     1.0000 0.86713  0.24323  0.58067  Biso   1.000  H
  H293     1.0000 0.80484  0.17175  0.56692  Biso   1.000  H
  H294     1.0000 0.86710  0.24318  0.58067  Biso   1.000  H
  H295     1.0000 0.80481  0.17170  0.56692  Biso   1.000  H
  H296     1.0000 0.88901  0.25160  0.37825  Biso   1.000  H
  H297     1.0000 0.81351  0.19882  0.36624  Biso   1.000  H
  H298     1.0000 0.37609  0.13291  0.58067  Biso   1.000  H
  H299     1.0000 0.36691  0.19523  0.56692  Biso   1.000  H
  H300     1.0000 0.36688  0.19519  0.56692  Biso   1.000  H
  H301     1.0000 0.36259  0.11102  0.37825  Biso   1.000  H
  H302     1.0000 0.38532  0.18652  0.36624  Biso   1.000  H
  H303     1.0000 0.22771  0.03460  0.74083  Biso   1.000  H
  H304     1.0000 0.23319  0.17741  0.86514  Biso   1.000  H
  N56      1.0000 0.18582  0.21252  0.19353  Biso   1.000  N
  H305     1.0000 0.20062  0.23693  0.01962  Biso   1.000  H
  H306     1.0000 0.20060  0.23688  0.01962  Biso   1.000  H
  H307     1.0000 0.96541  0.19310  0.74083  Biso   1.000  H
  H308     1.0000 0.00550  0.19460  0.94234  Biso   1.000  H
  N57      1.0000 0.06141  0.21601  0.16584  Biso   1.000  N
  H309     1.0000 0.01328  0.13301  0.23817  Biso   1.000  H
  C274     1.0000 0.17461  0.26424  0.23020  Biso   1.000  C
  C275     1.0000 0.17458  0.26419  0.23020  Biso   1.000  C
  C276     1.0000 0.10730  0.23524  0.26989  Biso   1.000  C
  C277     1.0000 0.10728  0.23519  0.26989  Biso   1.000  C
  H310     1.0000 0.18412  0.29553  0.16162  Biso   1.000  H
  C278     1.0000 0.21399  0.29940  0.34773  Biso   1.000  C
  H311     1.0000 0.18410  0.29548  0.16162  Biso   1.000  H
  H312     1.0000 0.09599  0.19601  0.32077  Biso   1.000  H
  C279     1.0000 0.10622  0.28574  0.34910  Biso   1.000  C
  C280     1.0000 0.10619  0.28570  0.34910  Biso   1.000  C
  H313     1.0000 0.23242  0.27461  0.38660  Biso   1.000  H
  H314     1.0000 0.24981  0.34352  0.32783  Biso   1.000  H
  C281     1.0000 0.16491  0.30265  0.43088  Biso   1.000  C
  C282     1.0000 0.16489  0.30260  0.43088  Biso   1.000  C
  H315     1.0000 0.06570  0.26812  0.39732  Biso   1.000  H
  H316     1.0000 0.11231  0.32352  0.30079  Biso   1.000  H
  H317     1.0000 0.18261  0.34652  0.46590  Biso   1.000  H
  H318     1.0000 0.15271  0.27112  0.49890  Biso   1.000  H
  C283     1.0000 0.84129  0.76520  0.76357  Biso   1.000  C
  N58      1.0000 0.86093  0.73813  0.68858  Biso   1.000  N
  N59      1.0000 0.86090  0.73808  0.68858  Biso   1.000  N
  C284     1.0000 0.87220  0.78651  0.88898  Biso   1.000  C
  H319     1.0000 0.80689  0.77232  0.74083  Biso   1.000  H
  C285     1.0000 0.82902  0.72103  0.56720  Biso   1.000  C
  C286     1.0000 0.82900  0.72099  0.56720  Biso   1.000  C
  C287     1.0000 0.92542  0.78331  0.92098  Biso   1.000  C
  C288     1.0000 0.84289  0.80951  0.96681  Biso   1.000  C
  C289     1.0000 0.79942  0.64951  0.54043  Biso   1.000  C
  C290     1.0000 0.87970  0.75503  0.46727  Biso   1.000  C
  C291     1.0000 0.87967  0.75498  0.46727  Biso   1.000  C
  H320     1.0000 0.79499  0.73392  0.56243  Biso   1.000  H
  H321     1.0000 0.94424  0.76685  0.86514  Biso   1.000  H
  H322     1.0000 0.94421  0.76680  0.86514  Biso   1.000  H
  C292     1.0000 0.95282  0.80491  0.03805  Biso   1.000  C
  H323     1.0000 0.80539  0.81092  0.94234  Biso   1.000  H
  C293     1.0000 0.86972  0.83063  0.08113  Biso   1.000  C
  C294     1.0000 0.86970  0.83058  0.08113  Biso   1.000  C
  C295     1.0000 0.79281  0.64810  0.40127  Biso   1.000  C
  H324     1.0000 0.75682  0.62394  0.58067  Biso   1.000  H
  H325     1.0000 0.82831  0.63314  0.56692  Biso   1.000  H
  H326     1.0000 0.75679  0.62389  0.58067  Biso   1.000  H
  H327     1.0000 0.82829  0.63309  0.56692  Biso   1.000  H
  C296     1.0000 0.84250  0.71561  0.35112  Biso   1.000  C
  N60      1.0000 0.89602  0.82283  0.45673  Biso   1.000  N
  H328     1.0000 0.91914  0.75154  0.48286  Biso   1.000  H
  N61      1.0000 0.89600  0.82278  0.45673  Biso   1.000  N
  H329     1.0000 0.91911  0.75149  0.48286  Biso   1.000  H
  C297     1.0000 0.92162  0.82830  0.11230  Biso   1.000  C
  C298     1.0000 0.01000  0.80544  0.07756  Biso   1.000  C
  C299     1.0000 0.00998  0.80539  0.07756  Biso   1.000  C
  C300     1.0000 0.84072  0.85532  0.17153  Biso   1.000  C
  H330     1.0000 0.74841  0.63740  0.37825  Biso   1.000  H
  H331     1.0000 0.80120  0.61474  0.36624  Biso   1.000  H
  H332     1.0000 0.80118  0.61469  0.36624  Biso   1.000  H
  H333     1.0000 0.87249  0.71251  0.29235  Biso   1.000  H
  H334     1.0000 0.82043  0.73614  0.30959  Biso   1.000  H
  H335     1.0000 0.82040  0.73609  0.30959  Biso   1.000  H
  C301     1.0000 0.95520  0.86360  0.46984  Biso   1.000  C
  H336     1.0000 0.93909  0.84370  0.19151  Biso   1.000  H
  N62      1.0000 0.02671  0.81421  0.19353  Biso   1.000  N
  H337     1.0000 0.03632  0.79944  0.01962  Biso   1.000  H
  H338     1.0000 0.03629  0.79939  0.01962  Biso   1.000  H
  N63      1.0000 0.78403  0.84544  0.16584  Biso   1.000  N
  H339     1.0000 0.86701  0.88031  0.23817  Biso   1.000  H
  N64      1.0000 0.78400  0.84540  0.16584  Biso   1.000  N
  C302     1.0000 0.97869  0.93223  0.47158  Biso   1.000  C
  H340     1.0000 0.98522  0.84874  0.47873  Biso   1.000  H
  C303     1.0000 0.97867  0.93218  0.47158  Biso   1.000  C
  H341     1.0000 0.98520  0.84869  0.47873  Biso   1.000  H
  C304     1.0000 0.08962  0.82544  0.23020  Biso   1.000  C
  C305     1.0000 0.08960  0.82539  0.23020  Biso   1.000  C
  C306     1.0000 0.76483  0.87213  0.26989  Biso   1.000  C
  C307     1.0000 0.76480  0.87208  0.26989  Biso   1.000  C
  C308     1.0000 0.93590  0.95702  0.47002  Biso   1.000  C
  C309     1.0000 0.04301  0.97891  0.47002  Biso   1.000  C
  C310     1.0000 0.12791  0.89271  0.26989  Biso   1.000  C
  H342     1.0000 0.11140  0.81590  0.16162  Biso   1.000  H
  C311     1.0000 0.08543  0.78602  0.34773  Biso   1.000  C
  H343     1.0000 0.80402  0.90002  0.32077  Biso   1.000  H
  C312     1.0000 0.73583  0.91043  0.23020  Biso   1.000  C
  C313     1.0000 0.71431  0.82050  0.34910  Biso   1.000  C
  C314     1.0000 0.73581  0.91038  0.23020  Biso   1.000  C
  H344     1.0000 0.89091  0.92651  0.46736  Biso   1.000  H
  C315     1.0000 0.95350  0.02133  0.47158  Biso   1.000  C
  C316     1.0000 0.95348  0.02128  0.47158  Biso   1.000  C
  H345     1.0000 0.07352  0.96443  0.46736  Biso   1.000  H
  H346     1.0000 0.07349  0.96438  0.46736  Biso   1.000  H
  C317     1.0000 0.06780  0.04651  0.47158  Biso   1.000  C
  N65      1.0000 0.15460  0.93862  0.16584  Biso   1.000  N
  H347     1.0000 0.10002  0.90404  0.32077  Biso   1.000  H
  C318     1.0000 0.17951  0.89382  0.34910  Biso   1.000  C
  H348     1.0000 0.10000  0.90399  0.32077  Biso   1.000  H
  H349     1.0000 0.04222  0.76762  0.38660  Biso   1.000  H
  H350     1.0000 0.09371  0.75024  0.32783  Biso   1.000  H
  C319     1.0000 0.13770  0.83513  0.43088  Biso   1.000  C
  H351     1.0000 0.09368  0.75019  0.32783  Biso   1.000  H
  C320     1.0000 0.13768  0.83508  0.43088  Biso   1.000  C
  N66      1.0000 0.78750  0.97334  0.19353  Biso   1.000  N
  H352     1.0000 0.70451  0.88864  0.16162  Biso   1.000  H
  C321     1.0000 0.70061  0.91465  0.34773  Biso   1.000  C
  N67      1.0000 0.78748  0.97329  0.19353  Biso   1.000  N
  H353     1.0000 0.70449  0.88859  0.16162  Biso   1.000  H
  C322     1.0000 0.70059  0.91460  0.34773  Biso   1.000  C
  C323     1.0000 0.69740  0.86234  0.43088  Biso   1.000  C
  H354     1.0000 0.73190  0.79765  0.39732  Biso   1.000  H
  H355     1.0000 0.67650  0.78883  0.30079  Biso   1.000  H
  C324     1.0000 0.69738  0.86230  0.43088  Biso   1.000  C
  H356     1.0000 0.73188  0.79760  0.39732  Biso   1.000  H
  H357     1.0000 0.67648  0.78878  0.30079  Biso   1.000  H
  C325     1.0000 0.90842  0.04482  0.46984  Biso   1.000  C
  C326     1.0000 0.02112  0.06414  0.47002  Biso   1.000  C
  C327     1.0000 0.02110  0.06409  0.47002  Biso   1.000  C
  C328     1.0000 0.13639  0.09160  0.46984  Biso   1.000  C
  C329     1.0000 0.14471  0.98545  0.17153  Biso   1.000  C
  C330     1.0000 0.14469  0.98540  0.17153  Biso   1.000  C
  H358     1.0000 0.20239  0.93431  0.39732  Biso   1.000  H
  H359     1.0000 0.21122  0.88772  0.30079  Biso   1.000  H
  H360     1.0000 0.16390  0.81740  0.46590  Biso   1.000  H
  H361     1.0000 0.11843  0.84733  0.49890  Biso   1.000  H
  H362     1.0000 0.11841  0.84728  0.49890  Biso   1.000  H
  C331     1.0000 0.79543  0.99005  0.07756  Biso   1.000  C
  C332     1.0000 0.79541  0.99000  0.07756  Biso   1.000  C
  H363     1.0000 0.72544  0.95784  0.38660  Biso   1.000  H
  H364     1.0000 0.65652  0.90632  0.32783  Biso   1.000  H
  H365     1.0000 0.72542  0.95780  0.38660  Biso   1.000  H
  H366     1.0000 0.65352  0.83615  0.46590  Biso   1.000  H
  H367     1.0000 0.72889  0.88162  0.49890  Biso   1.000  H
  H368     1.0000 0.65350  0.83610  0.46590  Biso   1.000  H
  N68      1.0000 0.92683  0.10405  0.45673  Biso   1.000  N
  H369     1.0000 0.86353  0.01484  0.47873  Biso   1.000  H
  N69      1.0000 0.92681  0.10400  0.45673  Biso   1.000  N
  H370     1.0000 0.86350  0.01479  0.47873  Biso   1.000  H
  H371     1.0000 0.03561  0.10913  0.46736  Biso   1.000  H
  H372     1.0000 0.03558  0.10908  0.46736  Biso   1.000  H
  N70      1.0000 0.17720  0.07325  0.45673  Biso   1.000  N
  H373     1.0000 0.15131  0.13654  0.47873  Biso   1.000  H
  N71      1.0000 0.17718  0.07320  0.45673  Biso   1.000  N
  H374     1.0000 0.15129  0.13649  0.47873  Biso   1.000  H
  H375     1.0000 0.11972  0.98671  0.23817  Biso   1.000  H
  C333     1.0000 0.16940  0.03910  0.08113  Biso   1.000  C
  H376     1.0000 0.76310  0.96370  0.01962  Biso   1.000  H
  C334     1.0000 0.85213  0.04724  0.03805  Biso   1.000  C
  C335     1.0000 0.85211  0.04719  0.03805  Biso   1.000  C
  C336     1.0000 0.87529  0.12032  0.46727  Biso   1.000  C
  C337     1.0000 0.24501  0.12472  0.46727  Biso   1.000  C
  C338     1.0000 0.19052  0.03344  0.96681  Biso   1.000  C
  C339     1.0000 0.19049  0.03339  0.96681  Biso   1.000  C
  C340     1.0000 0.17173  0.09334  0.11230  Biso   1.000  C
  C341     1.0000 0.17171  0.09329  0.11230  Biso   1.000  C
  C342     1.0000 0.85788  0.07460  0.92098  Biso   1.000  C
  C343     1.0000 0.90673  0.07843  0.11230  Biso   1.000  C
  C344     1.0000 0.90670  0.07838  0.11230  Biso   1.000  C
  H377     1.0000 0.83241  0.08095  0.48286  Biso   1.000  H
  C345     1.0000 0.89200  0.17102  0.56720  Biso   1.000  C
  C346     1.0000 0.87308  0.15751  0.35112  Biso   1.000  C
  H378     1.0000 0.83239  0.08090  0.48286  Biso   1.000  H
  H379     1.0000 0.24851  0.16763  0.48286  Biso   1.000  H
  C347     1.0000 0.27901  0.10802  0.56720  Biso   1.000  C
  C348     1.0000 0.28439  0.12690  0.35112  Biso   1.000  C
  H380     1.0000 0.24849  0.16758  0.48286  Biso   1.000  H
  C349     1.0000 0.21352  0.08574  0.88898  Biso   1.000  C
  C350     1.0000 0.21350  0.08569  0.88898  Biso   1.000  C
  H381     1.0000 0.18908  0.99450  0.94234  Biso   1.000  H
  C351     1.0000 0.19512  0.14792  0.03805  Biso   1.000  C
  H382     1.0000 0.15629  0.09543  0.19151  Biso   1.000  H
  H383     1.0000 0.15627  0.09538  0.19151  Biso   1.000  H
  C352     1.0000 0.91431  0.12782  0.88898  Biso   1.000  C
  H384     1.0000 0.82261  0.05581  0.86514  Biso   1.000  H
  H385     1.0000 0.90461  0.06095  0.19151  Biso   1.000  H
  C353     1.0000 0.96091  0.13034  0.08113  Biso   1.000  C
  H386     1.0000 0.90459  0.06090  0.19151  Biso   1.000  H
  C354     1.0000 0.96089  0.13029  0.08113  Biso   1.000  C
  N72      1.0000 0.87722  0.13911  0.68858  Biso   1.000  N
  H387     1.0000 0.93890  0.20502  0.56243  Biso   1.000  H
  C355     1.0000 0.85010  0.20061  0.54043  Biso   1.000  C
  C356     1.0000 0.85534  0.20724  0.40127  Biso   1.000  C
  H388     1.0000 0.91573  0.17964  0.30959  Biso   1.000  H
  H389     1.0000 0.84002  0.12753  0.29235  Biso   1.000  H
  C357     1.0000 0.85532  0.20720  0.40127  Biso   1.000  C
  H390     1.0000 0.91571  0.17959  0.30959  Biso   1.000  H
  H391     1.0000 0.84000  0.12748  0.29235  Biso   1.000  H
  N73      1.0000 0.26193  0.12284  0.68858  Biso   1.000  N
  H392     1.0000 0.26610  0.06114  0.56243  Biso   1.000  H
  C358     1.0000 0.35049  0.14991  0.54043  Biso   1.000  C
  N74      1.0000 0.26191  0.12279  0.68858  Biso   1.000  N
  H393     1.0000 0.26608  0.06109  0.56243  Biso   1.000  H
  C359     1.0000 0.35193  0.14472  0.40127  Biso   1.000  C
  H394     1.0000 0.26390  0.08434  0.30959  Biso   1.000  H
  H395     1.0000 0.28753  0.16003  0.29235  Biso   1.000  H
  C360     1.0000 0.35191  0.14468  0.40127  Biso   1.000  C
  H396     1.0000 0.26388  0.08429  0.30959  Biso   1.000  H
  H397     1.0000 0.28751  0.15998  0.29235  Biso   1.000  H
  C361     1.0000 0.23479  0.07610  0.76357  Biso   1.000  C
  C362     1.0000 0.21671  0.14211  0.92098  Biso   1.000  C
  C363     1.0000 0.19462  0.20463  0.07756  Biso   1.000  C
  C364     1.0000 0.19460  0.20458  0.07756  Biso   1.000  C
  C365     1.0000 0.92389  0.15872  0.76357  Biso   1.000  C
  C366     1.0000 0.96663  0.15712  0.96681  Biso   1.000  C
  C367     1.0000 0.01460  0.15930  0.17153  Biso   1.000  C
  H398     1.0000 0.86713  0.24323  0.58067  Biso   1.000  H
  H399     1.0000 0.80484  0.17175  0.56692  Biso   1.000  H
  H400     1.0000 0.86710  0.24318  0.58067  Biso   1.000  H
  H401     1.0000 0.80481  0.17170  0.56692  Biso   1.000  H
  H402     1.0000 0.88901  0.25160  0.37825  Biso   1.000  H
  H403     1.0000 0.81351  0.19882  0.36624  Biso   1.000  H
  H404     1.0000 0.37609  0.13291  0.58067  Biso   1.000  H
  H405     1.0000 0.36691  0.19523  0.56692  Biso   1.000  H
  H406     1.0000 0.36688  0.19519  0.56692  Biso   1.000  H
  H407     1.0000 0.36259  0.11102  0.37825  Biso   1.000  H
  H408     1.0000 0.38532  0.18652  0.36624  Biso   1.000  H
  H409     1.0000 0.22771  0.03460  0.74083  Biso   1.000  H
  H410     1.0000 0.23319  0.17741  0.86514  Biso   1.000  H
  N75      1.0000 0.18582  0.21252  0.19353  Biso   1.000  N
  H411     1.0000 0.20062  0.23693  0.01962  Biso   1.000  H
  H412     1.0000 0.20060  0.23688  0.01962  Biso   1.000  H
  H413     1.0000 0.96541  0.19310  0.74083  Biso   1.000  H
  H414     1.0000 0.00550  0.19460  0.94234  Biso   1.000  H
  N76      1.0000 0.06141  0.21601  0.16584  Biso   1.000  N
  H415     1.0000 0.01328  0.13301  0.23817  Biso   1.000  H
  C368     1.0000 0.17461  0.26424  0.23020  Biso   1.000  C
  C369     1.0000 0.17458  0.26419  0.23020  Biso   1.000  C
  C370     1.0000 0.10730  0.23524  0.26989  Biso   1.000  C
  C371     1.0000 0.10728  0.23519  0.26989  Biso   1.000  C
  H416     1.0000 0.18412  0.29553  0.16162  Biso   1.000  H
  C372     1.0000 0.21399  0.29940  0.34773  Biso   1.000  C
  H417     1.0000 0.18410  0.29548  0.16162  Biso   1.000  H
  H418     1.0000 0.09599  0.19601  0.32077  Biso   1.000  H
  C373     1.0000 0.10622  0.28574  0.34910  Biso   1.000  C
  C374     1.0000 0.10619  0.28570  0.34910  Biso   1.000  C
  H419     1.0000 0.23242  0.27461  0.38660  Biso   1.000  H
  H420     1.0000 0.24981  0.34352  0.32783  Biso   1.000  H
  C375     1.0000 0.16491  0.30265  0.43088  Biso   1.000  C
  C376     1.0000 0.16489  0.30260  0.43088  Biso   1.000  C
  H421     1.0000 0.06570  0.26812  0.39732  Biso   1.000  H
  H422     1.0000 0.11231  0.32352  0.30079  Biso   1.000  H
  H423     1.0000 0.18261  0.34652  0.46590  Biso   1.000  H
  H424     1.0000 0.15271  0.27112  0.49890  Biso   1.000  H
  C377     1.0000 0.62047  0.69808  0.58590  Biso   1.000  C
  C378     1.0000 0.55389  0.67270  0.53621  Biso   1.000  C
  C379     1.0000 0.61400  0.63750  0.65099  Biso   1.000  C
  H425     1.0000 0.63210  0.73401  0.64421  Biso   1.000  H
  H426     1.0000 0.65309  0.71290  0.51953  Biso   1.000  H
  C380     1.0000 0.53420  0.60539  0.48772  Biso   1.000  C
  N77      1.0000 0.55201  0.71382  0.43693  Biso   1.000  N
  H427     1.0000 0.52401  0.66922  0.60369  Biso   1.000  H
  C381     1.0000 0.55541  0.57861  0.58957  Biso   1.000  C
  H428     1.0000 0.60589  0.63880  0.74010  Biso   1.000  H
  H429     1.0000 0.65388  0.63498  0.64091  Biso   1.000  H
  N78      1.0000 0.46610  0.56951  0.46177  Biso   1.000  N
  H430     1.0000 0.55930  0.60922  0.41181  Biso   1.000  H
  C382     1.0000 0.51730  0.73968  0.44866  Biso   1.000  C
  H431     1.0000 0.56850  0.54800  0.55730  Biso   1.000  H
  H432     1.0000 0.51991  0.55551  0.64943  Biso   1.000  H
  C383     1.0000 0.44960  0.55420  0.34846  Biso   1.000  C
  C384     1.0000 0.51090  0.78099  0.36166  Biso   1.000  C
  H433     1.0000 0.49320  0.73091  0.52237  Biso   1.000  H
  C385     1.0000 0.38220  0.52350  0.31491  Biso   1.000  C
  H434     1.0000 0.48160  0.56302  0.28786  Biso   1.000  H
  C386     1.0000 0.48342  0.81460  0.39219  Biso   1.000  C
  C387     1.0000 0.53992  0.79121  0.24267  Biso   1.000  C
  C388     1.0000 0.36510  0.49619  0.19628  Biso   1.000  C
  C389     1.0000 0.33120  0.51662  0.39219  Biso   1.000  C
  C390     1.0000 0.47650  0.85871  0.31491  Biso   1.000  C
  H435     1.0000 0.46651  0.80888  0.47286  Biso   1.000  H
  C391     1.0000 0.53370  0.83329  0.16456  Biso   1.000  C
  H436     1.0000 0.56260  0.76980  0.21846  Biso   1.000  H
  C392     1.0000 0.29959  0.46631  0.16456  Biso   1.000  C
  H437     1.0000 0.39670  0.49798  0.14072  Biso   1.000  H
  C393     1.0000 0.27010  0.48912  0.36166  Biso   1.000  C
  H438     1.0000 0.34242  0.53352  0.47286  Biso   1.000  H
  C394     1.0000 0.50381  0.86888  0.19628  Biso   1.000  C
  C395     1.0000 0.44582  0.89542  0.34846  Biso   1.000  C
  C396     1.0000 0.56341  0.84389  0.03805  Biso   1.000  C
  C397     1.0000 0.28051  0.43662  0.03805  Biso   1.000  C
  C398     1.0000 0.25132  0.46011  0.24267  Biso   1.000  C
  C399     1.0000 0.22241  0.48272  0.44866  Biso   1.000  C
  H439     1.0000 0.50199  0.89871  0.14072  Biso   1.000  H
  N79      1.0000 0.43051  0.89658  0.46177  Biso   1.000  N
  H440     1.0000 0.43700  0.91862  0.28786  Biso   1.000  H
  N80      1.0000 0.56503  0.88782  0.96691  Biso   1.000  N
  H441     1.0000 0.58099  0.81799  0.01082  Biso   1.000  H
  H442     1.0000 0.23701  0.41899  0.01082  Biso   1.000  H
  N81      1.0000 0.32282  0.43502  0.96691  Biso   1.000  N
  H443     1.0000 0.20721  0.43740  0.21846  Biso   1.000  H
  N82      1.0000 0.16180  0.44800  0.43693  Biso   1.000  N
  H444     1.0000 0.23771  0.50679  0.52237  Biso   1.000  H
  C400     1.0000 0.39461  0.92879  0.48772  Biso   1.000  C
  C401     1.0000 0.59199  0.89242  0.84388  Biso   1.000  C
  C402     1.0000 0.30042  0.40800  0.84388  Biso   1.000  C
  C403     1.0000 0.11880  0.44611  0.53621  Biso   1.000  C
  C404     1.0000 0.32727  0.88118  0.53621  Biso   1.000  C
  H445     1.0000 0.39079  0.95010  0.41181  Biso   1.000  H
  C405     1.0000 0.42137  0.97678  0.58957  Biso   1.000  C
  C406     1.0000 0.54290  0.88331  0.74688  Biso   1.000  C
  H446     1.0000 0.60821  0.86128  0.83306  Biso   1.000  H
  C407     1.0000 0.64480  0.96172  0.82041  Biso   1.000  C
  C408     1.0000 0.34040  0.45711  0.74688  Biso   1.000  C
  H447     1.0000 0.25309  0.39178  0.83306  Biso   1.000  H
  C409     1.0000 0.31689  0.35521  0.82041  Biso   1.000  C
  H448     1.0000 0.14518  0.47599  0.60369  Biso   1.000  H
  C410     1.0000 0.07759  0.37948  0.58590  Biso   1.000  C
  C411     1.0000 0.07119  0.46582  0.48772  Biso   1.000  C
  N83      1.0000 0.28618  0.83818  0.43693  Biso   1.000  N
  H449     1.0000 0.33081  0.85479  0.60369  Biso   1.000  H
  C412     1.0000 0.30191  0.92239  0.58590  Biso   1.000  C
  H450     1.0000 0.44449  0.96438  0.64943  Biso   1.000  H
  C413     1.0000 0.36251  0.97649  0.65099  Biso   1.000  C
  H451     1.0000 0.45200  0.02051  0.55730  Biso   1.000  H
  N84      1.0000 0.49670  0.81532  0.73377  Biso   1.000  N
  H452     1.0000 0.52061  0.90811  0.76797  Biso   1.000  H
  C414     1.0000 0.58639  0.91242  0.63449  Biso   1.000  C
  C415     1.0000 0.65162  0.96772  0.68023  Biso   1.000  C
  H453     1.0000 0.68600  0.97048  0.85882  Biso   1.000  H
  H454     1.0000 0.63231  0.99252  0.85378  Biso   1.000  H
  N85      1.0000 0.31859  0.50330  0.73377  Biso   1.000  N
  H455     1.0000 0.38748  0.47938  0.76797  Biso   1.000  H
  C416     1.0000 0.32600  0.41362  0.63449  Biso   1.000  C
  H456     1.0000 0.28450  0.31400  0.85882  Biso   1.000  H
  H457     1.0000 0.36021  0.36771  0.85378  Biso   1.000  H
  C417     1.0000 0.31607  0.34839  0.68023  Biso   1.000  C
  H458     1.0000 0.10192  0.36790  0.64421  Biso   1.000  H
  H459     1.0000 0.05979  0.34688  0.51953  Biso   1.000  H
  C418     1.0000 0.02349  0.38601  0.65099  Biso   1.000  C
  N86      1.0000 0.10339  0.53391  0.46177  Biso   1.000  N
  H460     1.0000 0.04990  0.44069  0.41181  Biso   1.000  H
  C419     1.0000 0.02322  0.44461  0.58957  Biso   1.000  C
  C420     1.0000 0.26030  0.77760  0.44866  Biso   1.000  C
  H461     1.0000 0.26598  0.89808  0.64421  Biso   1.000  H
  H462     1.0000 0.28713  0.94022  0.51953  Biso   1.000  H
  H463     1.0000 0.36121  0.96709  0.74010  Biso   1.000  H
  H464     1.0000 0.36502  0.01891  0.64091  Biso   1.000  H
  C421     1.0000 0.43681  0.79561  0.74312  Biso   1.000  C
  H465     1.0000 0.56649  0.92908  0.57600  Biso   1.000  H
  H466     1.0000 0.59259  0.87910  0.59241  Biso   1.000  H
  H467     1.0000 0.68790  0.96211  0.65154  Biso   1.000  H
  H468     1.0000 0.65868  0.01029  0.65200  Biso   1.000  H
  C422     1.0000 0.35881  0.56321  0.74312  Biso   1.000  C
  H469     1.0000 0.36263  0.43352  0.57600  Biso   1.000  H
  H470     1.0000 0.28650  0.40742  0.59241  Biso   1.000  H
  H471     1.0000 0.35163  0.34132  0.65200  Biso   1.000  H
  H472     1.0000 0.27420  0.31211  0.65154  Biso   1.000  H
  H473     1.0000 0.03290  0.39410  0.74010  Biso   1.000  H
  H474     1.0000 0.98110  0.34611  0.64091  Biso   1.000  H
  C423     1.0000 0.10458  0.55038  0.34846  Biso   1.000  C
  H475     1.0000 0.03560  0.48011  0.64943  Biso   1.000  H
  H476     1.0000 0.97950  0.43149  0.55730  Biso   1.000  H
  C424     1.0000 0.21900  0.72990  0.36166  Biso   1.000  C
  H477     1.0000 0.26909  0.76229  0.52237  Biso   1.000  H
  C425     1.0000 0.38449  0.73149  0.74441  Biso   1.000  C
  H478     1.0000 0.42561  0.82849  0.75009  Biso   1.000  H
  C426     1.0000 0.34701  0.61551  0.74441  Biso   1.000  C
  H479     1.0000 0.40291  0.57440  0.75009  Biso   1.000  H
  C427     1.0000 0.14130  0.61779  0.31491  Biso   1.000  C
  H480     1.0000 0.08143  0.51841  0.28786  Biso   1.000  H
  C428     1.0000 0.18538  0.66878  0.39219  Biso   1.000  C
  C429     1.0000 0.20881  0.74869  0.24267  Biso   1.000  C
  C430     1.0000 0.39728  0.67939  0.74092  Biso   1.000  C
  C431     1.0000 0.32061  0.71789  0.74092  Biso   1.000  C
  C432     1.0000 0.28209  0.60268  0.74092  Biso   1.000  C
  C433     1.0000 0.13110  0.63488  0.19628  Biso   1.000  C
  H481     1.0000 0.19111  0.65759  0.47286  Biso   1.000  H
  C434     1.0000 0.16672  0.70040  0.16456  Biso   1.000  C
  H482     1.0000 0.23020  0.79280  0.21846  Biso   1.000  H
  H483     1.0000 0.44078  0.68839  0.73597  Biso   1.000  H
  C435     1.0000 0.26849  0.65299  0.74441  Biso   1.000  C
  H484     1.0000 0.31162  0.75241  0.73597  Biso   1.000  H
  H485     1.0000 0.24760  0.55919  0.73597  Biso   1.000  H
  H486     1.0000 0.10131  0.60331  0.14072  Biso   1.000  H
  C436     1.0000 0.15609  0.71948  0.03805  Biso   1.000  C
  C437     1.0000 0.20438  0.64118  0.74312  Biso   1.000  C
  N87      1.0000 0.11222  0.67721  0.96691  Biso   1.000  N
  H487     1.0000 0.18201  0.76302  0.01082  Biso   1.000  H
  N88      1.0000 0.18470  0.68142  0.73377  Biso   1.000  N
  H488     1.0000 0.17152  0.59711  0.75009  Biso   1.000  H
  C438     1.0000 0.10759  0.69958  0.84388  Biso   1.000  C
  C439     1.0000 0.11670  0.65958  0.74688  Biso   1.000  C
  H489     1.0000 0.13871  0.74689  0.83306  Biso   1.000  H
  C440     1.0000 0.03829  0.68312  0.82041  Biso   1.000  C
  H490     1.0000 0.09190  0.61251  0.76797  Biso   1.000  H
  C441     1.0000 0.08759  0.67401  0.63449  Biso   1.000  C
  C442     1.0000 0.03231  0.68389  0.68023  Biso   1.000  C
  H491     1.0000 0.02950  0.71551  0.85882  Biso   1.000  H
  H492     1.0000 0.00751  0.63982  0.85378  Biso   1.000  H
  H493     1.0000 0.07088  0.63740  0.57600  Biso   1.000  H
  H494     1.0000 0.12087  0.71348  0.59241  Biso   1.000  H
  H495     1.0000 0.98969  0.64839  0.65200  Biso   1.000  H
  H496     1.0000 0.03790  0.72578  0.65154  Biso   1.000  H
  C443     1.0000 0.75840  0.64471  0.08636  Biso   1.000  C
  C444     1.0000 0.73009  0.59590  0.98607  Biso   1.000  C
  C445     1.0000 0.70682  0.66200  0.11918  Biso   1.000  C
  H497     1.0000 0.79839  0.68350  0.05831  Biso   1.000  H
  H498     1.0000 0.76891  0.62631  0.15842  Biso   1.000  H
  C446     1.0000 0.66351  0.55541  0.02979  Biso   1.000  C
  N89      1.0000 0.76142  0.55890  0.96480  Biso   1.000  N
  H499     1.0000 0.72981  0.61798  0.90851  Biso   1.000  H
  C447     1.0000 0.64138  0.60578  0.07022  Biso   1.000  C
  H500     1.0000 0.71679  0.70350  0.08040  Biso   1.000  H
  H501     1.0000 0.70482  0.66631  0.20911  Biso   1.000  H
  N90      1.0000 0.61708  0.51188  0.93390  Biso   1.000  N
  H502     1.0000 0.66278  0.52931  0.10213  Biso   1.000  H
  C448     1.0000 0.78349  0.56229  0.85671  Biso   1.000  C
  H503     1.0000 0.62512  0.61972  0.99982  Biso   1.000  H
  H504     1.0000 0.60790  0.58781  0.13522  Biso   1.000  H
  C449     1.0000 0.59090  0.45299  0.95554  Biso   1.000  C
  C450     1.0000 0.81469  0.52519  0.82389  Biso   1.000  C
  H505     1.0000 0.77960  0.58931  0.79730  Biso   1.000  H
  C451     1.0000 0.54749  0.40248  0.86689  Biso   1.000  C
  H506     1.0000 0.59911  0.43962  0.03209  Biso   1.000  H
  C452     1.0000 0.84172  0.53372  0.70572  Biso   1.000  C
  C453     1.0000 0.82131  0.48098  0.90108  Biso   1.000  C
  C454     1.0000 0.53991  0.42011  0.75037  Biso   1.000  C
  C455     1.0000 0.51900  0.34030  0.90108  Biso   1.000  C
  C456     1.0000 0.87361  0.50238  0.67244  Biso   1.000  C
  H507     1.0000 0.83760  0.56171  0.64897  Biso   1.000  H
  H508     1.0000 0.80128  0.47129  0.97937  Biso   1.000  H
  C457     1.0000 0.85501  0.45250  0.86689  Biso   1.000  C
  C458     1.0000 0.49758  0.37120  0.67244  Biso   1.000  C
  H509     1.0000 0.56289  0.46398  0.72451  Biso   1.000  H
  C459     1.0000 0.47481  0.28950  0.82389  Biso   1.000  C
  H510     1.0000 0.52869  0.32998  0.97937  Biso   1.000  H
  C460     1.0000 0.89950  0.50970  0.54144  Biso   1.000  C
  C461     1.0000 0.88020  0.46011  0.75037  Biso   1.000  C
  C462     1.0000 0.86212  0.40911  0.95554  Biso   1.000  C
  C463     1.0000 0.49032  0.38979  0.54144  Biso   1.000  C
  C464     1.0000 0.46628  0.30800  0.70572  Biso   1.000  C
  C465     1.0000 0.43769  0.22122  0.85671  Biso   1.000  C
  N91      1.0000 0.89767  0.55009  0.46846  Biso   1.000  N
  H511     1.0000 0.91698  0.48369  0.51458  Biso   1.000  H
  H512     1.0000 0.90111  0.43710  0.72451  Biso   1.000  H
  N92      1.0000 0.89482  0.38291  0.93390  Biso   1.000  N
  H513     1.0000 0.84048  0.40088  0.03209  Biso   1.000  H
  N93      1.0000 0.44989  0.34761  0.46846  Biso   1.000  N
  H514     1.0000 0.51630  0.43328  0.51458  Biso   1.000  H
  H515     1.0000 0.43831  0.27589  0.64897  Biso   1.000  H
  N94      1.0000 0.44110  0.20252  0.96480  Biso   1.000  N
  H516     1.0000 0.41071  0.19032  0.79730  Biso   1.000  H
  C466     1.0000 0.92679  0.55740  0.34626  Biso   1.000  C
  C467     1.0000 0.89192  0.33652  0.02979  Biso   1.000  C
  C468     1.0000 0.44259  0.36940  0.34626  Biso   1.000  C
  C469     1.0000 0.40408  0.13419  0.98607  Biso   1.000  C
  C470     1.0000 0.87840  0.54660  0.24780  Biso   1.000  C
  H517     1.0000 0.94181  0.52529  0.33673  Biso   1.000  H
  C471     1.0000 0.98181  0.62340  0.32866  Biso   1.000  C
  C472     1.0000 0.86578  0.26989  0.98607  Biso   1.000  C
  C473     1.0000 0.96441  0.35860  0.07022  Biso   1.000  C
  H518     1.0000 0.86651  0.33720  0.10213  Biso   1.000  H
  C474     1.0000 0.37661  0.35841  0.32866  Biso   1.000  C
  C475     1.0000 0.45341  0.33182  0.24780  Biso   1.000  C
  H519     1.0000 0.47470  0.41652  0.33673  Biso   1.000  H
  H520     1.0000 0.38203  0.11182  0.90851  Biso   1.000  H
  C476     1.0000 0.35529  0.11371  0.08636  Biso   1.000  C
  C477     1.0000 0.44458  0.10809  0.02979  Biso   1.000  C
  N95      1.0000 0.83001  0.47909  0.23231  Biso   1.000  N
  H521     1.0000 0.85670  0.57231  0.26650  Biso   1.000  H
  C478     1.0000 0.92147  0.57478  0.13733  Biso   1.000  C
  C479     1.0000 0.97678  0.63759  0.18876  Biso   1.000  C
  H522     1.0000 0.97761  0.65469  0.38201  Biso   1.000  H
  H523     1.0000 0.02330  0.62520  0.34644  Biso   1.000  H
  N96      1.0000 0.79750  0.23860  0.96480  Biso   1.000  N
  H524     1.0000 0.88819  0.27018  0.90851  Biso   1.000  H
  C480     1.0000 0.88632  0.24160  0.08636  Biso   1.000  C
  C481     1.0000 0.95518  0.29318  0.11918  Biso   1.000  C
  H525     1.0000 0.99463  0.37492  0.99982  Biso   1.000  H
  H526     1.0000 0.97990  0.39212  0.13522  Biso   1.000  H
  C482     1.0000 0.36239  0.33918  0.18876  Biso   1.000  C
  H527     1.0000 0.37483  0.39812  0.34644  Biso   1.000  H
  H528     1.0000 0.34532  0.32291  0.38201  Biso   1.000  H
  C483     1.0000 0.42519  0.34669  0.13733  Biso   1.000  C
  N97      1.0000 0.52091  0.35090  0.23231  Biso   1.000  N
  H529     1.0000 0.42769  0.28441  0.26650  Biso   1.000  H
  H530     1.0000 0.31652  0.11492  0.05831  Biso   1.000  H
  H531     1.0000 0.37369  0.14262  0.15842  Biso   1.000  H
  C484     1.0000 0.33799  0.04480  0.11918  Biso   1.000  C
  N98      1.0000 0.48809  0.10518  0.93390  Biso   1.000  N
  C485     1.0000 0.39420  0.03559  0.07022  Biso   1.000  C
  H532     1.0000 0.47072  0.13351  0.10213  Biso   1.000  H
  C486     1.0000 0.77161  0.46321  0.23927  Biso   1.000  C
  H533     1.0000 0.89889  0.58321  0.06986  Biso   1.000  H
  H534     1.0000 0.93710  0.54582  0.10717  Biso   1.000  H
  H535     1.0000 0.96737  0.67338  0.17987  Biso   1.000  H
  H536     1.0000 0.01781  0.64960  0.14558  Biso   1.000  H
  C487     1.0000 0.77883  0.21652  0.85671  Biso   1.000  C
  H537     1.0000 0.88511  0.20160  0.05831  Biso   1.000  H
  H538     1.0000 0.85741  0.23110  0.15842  Biso   1.000  H
  H539     1.0000 0.98672  0.28320  0.08040  Biso   1.000  H
  H540     1.0000 0.96152  0.29521  0.20911  Biso   1.000  H
  H541     1.0000 0.32659  0.29400  0.17987  Biso   1.000  H
  H542     1.0000 0.35039  0.36819  0.14558  Biso   1.000  H
  H543     1.0000 0.41678  0.31570  0.06986  Biso   1.000  H
  H544     1.0000 0.45420  0.39129  0.10717  Biso   1.000  H
  C488     1.0000 0.53680  0.30839  0.23927  Biso   1.000  C
  H545     1.0000 0.29650  0.01332  0.08040  Biso   1.000  H
  H546     1.0000 0.33371  0.03850  0.20911  Biso   1.000  H
  C489     1.0000 0.54703  0.13792  0.95554  Biso   1.000  C
  H547     1.0000 0.38029  0.00542  0.99982  Biso   1.000  H
  H548     1.0000 0.41220  0.02010  0.13522  Biso   1.000  H
  C490     1.0000 0.71880  0.39599  0.23616  Biso   1.000  C
  H549     1.0000 0.76090  0.49648  0.24697  Biso   1.000  H
  C491     1.0000 0.71049  0.18528  0.82389  Biso   1.000  C
  H550     1.0000 0.80970  0.22039  0.79730  Biso   1.000  H
  C492     1.0000 0.60399  0.32282  0.23616  Biso   1.000  C
  H551     1.0000 0.50349  0.26441  0.24697  Biso   1.000  H
  C493     1.0000 0.59749  0.14499  0.86689  Biso   1.000  C
  H552     1.0000 0.56043  0.15952  0.03209  Biso   1.000  H
  C494     1.0000 0.65551  0.38442  0.23387  Biso   1.000  C
  C495     1.0000 0.72892  0.34451  0.23387  Biso   1.000  C
  C496     1.0000 0.65968  0.17870  0.90108  Biso   1.000  C
  C497     1.0000 0.69201  0.15831  0.70572  Biso   1.000  C
  C498     1.0000 0.61558  0.27110  0.23387  Biso   1.000  C
  C499     1.0000 0.57991  0.11981  0.75037  Biso   1.000  C
  H553     1.0000 0.64810  0.42001  0.23066  Biso   1.000  H
  C500     1.0000 0.67722  0.28122  0.23616  Biso   1.000  C
  H554     1.0000 0.77192  0.35192  0.23066  Biso   1.000  H
  H555     1.0000 0.67002  0.19870  0.97937  Biso   1.000  H
  C501     1.0000 0.62879  0.12640  0.67244  Biso   1.000  C
  H556     1.0000 0.72408  0.16238  0.64897  Biso   1.000  H
  H557     1.0000 0.57999  0.22809  0.23066  Biso   1.000  H
  H558     1.0000 0.53598  0.09889  0.72451  Biso   1.000  H
  C502     1.0000 0.69161  0.22838  0.23927  Biso   1.000  C
  C503     1.0000 0.61017  0.10049  0.54144  Biso   1.000  C
  N99      1.0000 0.64907  0.16998  0.23231  Biso   1.000  N
  H559     1.0000 0.73559  0.23909  0.24697  Biso   1.000  H
  N100     1.0000 0.65238  0.10228  0.46846  Biso   1.000  N
  H560     1.0000 0.56671  0.08300  0.51458  Biso   1.000  H
  C504     1.0000 0.66821  0.12160  0.24780  Biso   1.000  C
  C505     1.0000 0.63060  0.07322  0.34626  Biso   1.000  C
  H561     1.0000 0.71558  0.14330  0.26650  Biso   1.000  H
  C506     1.0000 0.65328  0.07850  0.13733  Biso   1.000  C
  H562     1.0000 0.58350  0.05821  0.33673  Biso   1.000  H
  C507     1.0000 0.64159  0.01821  0.32866  Biso   1.000  C
  C508     1.0000 0.66082  0.02320  0.18876  Biso   1.000  C
  H563     1.0000 0.68430  0.10112  0.06986  Biso   1.000  H
  H564     1.0000 0.60871  0.06291  0.10717  Biso   1.000  H
  H565     1.0000 0.67712  0.02242  0.38201  Biso   1.000  H
  H566     1.0000 0.60188  0.97671  0.34644  Biso   1.000  H
  H567     1.0000 0.70599  0.03259  0.17987  Biso   1.000  H
  H568     1.0000 0.63180  0.98218  0.14558  Biso   1.000  H
