data_image0
_cell_length_a       24.073
_cell_length_b       24.073
_cell_length_c       10.971
_cell_angle_alpha    90
_cell_angle_beta     90
_cell_angle_gamma    120

_symmetry_space_group_name_H-M    "P 1"
_symmetry_int_tables_number       1

loop_
  _symmetry_equiv_pos_as_xyz
  'x, y, z'

loop_
  _atom_site_label
  _atom_site_occupancy
  _atom_site_fract_x
  _atom_site_fract_y
  _atom_site_fract_z
  _atom_site_thermal_displace_type
  _atom_site_B_iso_or_equiv
  _atom_site_type_symbol
  C1       1.0000 0.84351  0.76699  0.76493  Biso   1.000  C
  N1       1.0000 0.86262  0.74032  0.69000  Biso   1.000  N
  C2       1.0000 0.87254  0.78732  0.88889  Biso   1.000  C
  H1       1.0000 0.81054  0.77433  0.74232  Biso   1.000  H
  C3       1.0000 0.87247  0.78728  0.88889  Biso   1.000  C
  H2       1.0000 0.81048  0.77428  0.74232  Biso   1.000  H
  C4       1.0000 0.82882  0.72281  0.57087  Biso   1.000  C
  C5       1.0000 0.92713  0.78493  0.92425  Biso   1.000  C
  C6       1.0000 0.84261  0.80939  0.96928  Biso   1.000  C
  C7       1.0000 0.92710  0.78488  0.92425  Biso   1.000  C
  C8       1.0000 0.80005  0.65273  0.54179  Biso   1.000  C
  C9       1.0000 0.79998  0.65268  0.54179  Biso   1.000  C
  C10      1.0000 0.87804  0.75571  0.46769  Biso   1.000  C
  C11      1.0000 0.87800  0.75571  0.46769  Biso   1.000  C
  H3       1.0000 0.79604  0.73552  0.56832  Biso   1.000  H
  H4       1.0000 0.79600  0.73552  0.56832  Biso   1.000  H
  H5       1.0000 0.94611  0.76938  0.87057  Biso   1.000  H
  C12      1.0000 0.95301  0.80579  0.03901  Biso   1.000  C
  H6       1.0000 0.80584  0.81011  0.94549  Biso   1.000  H
  H7       1.0000 0.80579  0.81011  0.94549  Biso   1.000  H
  C13      1.0000 0.86814  0.83011  0.08431  Biso   1.000  C
  C14      1.0000 0.86809  0.83011  0.08431  Biso   1.000  C
  C15      1.0000 0.79492  0.65062  0.40397  Biso   1.000  C
  H8       1.0000 0.75821  0.62779  0.57916  Biso   1.000  H
  H9       1.0000 0.82763  0.63661  0.56941  Biso   1.000  H
  H10      1.0000 0.82759  0.63661  0.56941  Biso   1.000  H
  C16      1.0000 0.83972  0.71571  0.35621  Biso   1.000  C
  N2       1.0000 0.89582  0.82301  0.45830  Biso   1.000  N
  H11      1.0000 0.91603  0.75159  0.48127  Biso   1.000  H
  H12      1.0000 0.91598  0.75159  0.48127  Biso   1.000  H
  C17      1.0000 0.92343  0.82963  0.11512  Biso   1.000  C
  C18      1.0000 0.92341  0.82958  0.11512  Biso   1.000  C
  C19      1.0000 0.01111  0.80709  0.08094  Biso   1.000  C
  C20      1.0000 0.83874  0.85390  0.17419  Biso   1.000  C
  C21      1.0000 0.83870  0.85390  0.17419  Biso   1.000  C
  H13      1.0000 0.80582  0.61982  0.37152  Biso   1.000  H
  H14      1.0000 0.75124  0.63752  0.37964  Biso   1.000  H
  H15      1.0000 0.80580  0.61978  0.37152  Biso   1.000  H
  H16      1.0000 0.75117  0.63748  0.37964  Biso   1.000  H
  H17      1.0000 0.81634  0.73432  0.31866  Biso   1.000  H
  H18      1.0000 0.86842  0.71403  0.29596  Biso   1.000  H
  H19      1.0000 0.81629  0.73432  0.31866  Biso   1.000  H
  H20      1.0000 0.86839  0.71398  0.29596  Biso   1.000  H
  C22      1.0000 0.95432  0.86441  0.47307  Biso   1.000  C
  H21      1.0000 0.94192  0.84599  0.19059  Biso   1.000  H
  H22      1.0000 0.94187  0.84599  0.19059  Biso   1.000  H
  N3       1.0000 0.02701  0.81529  0.19123  Biso   1.000  N
  H23      1.0000 0.03705  0.80171  0.02470  Biso   1.000  H
  H24      1.0000 0.03701  0.80171  0.02470  Biso   1.000  H
  N4       1.0000 0.78242  0.84469  0.16644  Biso   1.000  N
  H25      1.0000 0.86343  0.87712  0.24073  Biso   1.000  H
  N5       1.0000 0.78238  0.84469  0.16644  Biso   1.000  N
  H26      1.0000 0.86339  0.87712  0.24073  Biso   1.000  H
  C23      1.0000 0.97712  0.93309  0.47142  Biso   1.000  C
  H27      1.0000 0.98360  0.85059  0.48564  Biso   1.000  H
  C24      1.0000 0.97708  0.93309  0.47142  Biso   1.000  C
  C25      1.0000 0.08890  0.82551  0.22951  Biso   1.000  C
  C26      1.0000 0.76414  0.87112  0.27008  Biso   1.000  C
  C27      1.0000 0.76410  0.87112  0.27008  Biso   1.000  C
  C28      1.0000 0.93451  0.95770  0.47188  Biso   1.000  C
  C29      1.0000 0.04234  0.97679  0.47188  Biso   1.000  C
  C30      1.0000 0.04229  0.97679  0.47188  Biso   1.000  C
  C31      1.0000 0.12892  0.89299  0.27008  Biso   1.000  C
  H28      1.0000 0.10993  0.81630  0.16234  Biso   1.000  H
  C32      1.0000 0.08523  0.78641  0.34318  Biso   1.000  C
  C33      1.0000 0.12888  0.89299  0.27008  Biso   1.000  C
  H29      1.0000 0.10989  0.81630  0.16234  Biso   1.000  H
  H30      1.0000 0.80203  0.89722  0.32048  Biso   1.000  H
  C34      1.0000 0.73662  0.91113  0.22951  Biso   1.000  C
  C35      1.0000 0.71233  0.82033  0.34828  Biso   1.000  C
  H31      1.0000 0.80199  0.89722  0.32048  Biso   1.000  H
  C36      1.0000 0.73660  0.91108  0.22951  Biso   1.000  C
  C37      1.0000 0.71230  0.82028  0.34828  Biso   1.000  C
  H32      1.0000 0.89063  0.92902  0.47270  Biso   1.000  H
  C38      1.0000 0.95597  0.02289  0.47142  Biso   1.000  C
  H33      1.0000 0.07100  0.96159  0.47270  Biso   1.000  H
  C39      1.0000 0.06688  0.04399  0.47142  Biso   1.000  C
  N6       1.0000 0.15530  0.93770  0.16644  Biso   1.000  N
  H34      1.0000 0.10284  0.90479  0.32048  Biso   1.000  H
  C40      1.0000 0.17972  0.89199  0.34828  Biso   1.000  C
  H35      1.0000 0.10279  0.90479  0.32048  Biso   1.000  H
  C41      1.0000 0.17968  0.89199  0.34828  Biso   1.000  C
  H36      1.0000 0.04423  0.77030  0.38383  Biso   1.000  H
  H37      1.0000 0.09060  0.75039  0.32121  Biso   1.000  H
  C42      1.0000 0.13992  0.83299  0.42558  Biso   1.000  C
  H38      1.0000 0.04419  0.77030  0.38383  Biso   1.000  H
  C43      1.0000 0.13988  0.83299  0.42558  Biso   1.000  C
  N7       1.0000 0.78833  0.97300  0.19123  Biso   1.000  N
  H39      1.0000 0.70643  0.89012  0.16234  Biso   1.000  H
  C44      1.0000 0.70121  0.91482  0.34318  Biso   1.000  C
  N8       1.0000 0.78829  0.97300  0.19123  Biso   1.000  N
  H40      1.0000 0.70639  0.89012  0.16234  Biso   1.000  H
  C45      1.0000 0.69312  0.86009  0.42558  Biso   1.000  C
  H41      1.0000 0.72852  0.79821  0.39787  Biso   1.000  H
  H42      1.0000 0.67661  0.78919  0.29943  Biso   1.000  H
  C46      1.0000 0.69308  0.86009  0.42558  Biso   1.000  C
  C47      1.0000 0.91010  0.04572  0.47307  Biso   1.000  C
  C48      1.0000 0.02319  0.06553  0.47188  Biso   1.000  C
  C49      1.0000 0.02317  0.06548  0.47188  Biso   1.000  C
  C50      1.0000 0.13561  0.08990  0.47307  Biso   1.000  C
  C51      1.0000 0.14612  0.98480  0.17419  Biso   1.000  C
  H43      1.0000 0.20183  0.93031  0.39787  Biso   1.000  H
  H44      1.0000 0.21084  0.88743  0.29943  Biso   1.000  H
  H45      1.0000 0.20179  0.93031  0.39787  Biso   1.000  H
  H46      1.0000 0.21077  0.88738  0.29943  Biso   1.000  H
  H47      1.0000 0.12324  0.84383  0.49658  Biso   1.000  H
  H48      1.0000 0.16545  0.81443  0.45237  Biso   1.000  H
  H49      1.0000 0.12317  0.84378  0.49658  Biso   1.000  H
  H50      1.0000 0.16538  0.81438  0.45237  Biso   1.000  H
  C52      1.0000 0.79605  0.98893  0.08094  Biso   1.000  C
  C53      1.0000 0.79598  0.98888  0.08094  Biso   1.000  C
  H51      1.0000 0.72612  0.95583  0.38383  Biso   1.000  H
  H52      1.0000 0.65983  0.90940  0.32121  Biso   1.000  H
  H53      1.0000 0.72609  0.95578  0.38383  Biso   1.000  H
  H54      1.0000 0.65978  0.90940  0.32121  Biso   1.000  H
  H55      1.0000 0.72064  0.87683  0.49658  Biso   1.000  H
  H56      1.0000 0.64902  0.83462  0.45237  Biso   1.000  H
  H57      1.0000 0.72057  0.87678  0.49658  Biso   1.000  H
  N9       1.0000 0.92720  0.10419  0.45830  Biso   1.000  N
  H58      1.0000 0.86699  0.01641  0.48564  Biso   1.000  H
  H59      1.0000 0.86695  0.01641  0.48564  Biso   1.000  H
  H60      1.0000 0.03845  0.10942  0.47270  Biso   1.000  H
  H61      1.0000 0.03836  0.10942  0.47270  Biso   1.000  H
  N10      1.0000 0.17700  0.07282  0.45830  Biso   1.000  N
  H62      1.0000 0.14945  0.13302  0.48564  Biso   1.000  H
  H63      1.0000 0.14936  0.13302  0.48564  Biso   1.000  H
  H64      1.0000 0.12290  0.98629  0.24073  Biso   1.000  H
  C54      1.0000 0.16989  0.03800  0.08431  Biso   1.000  C
  C55      1.0000 0.16985  0.03800  0.08431  Biso   1.000  C
  H65      1.0000 0.76473  0.96303  0.02470  Biso   1.000  H
  H66      1.0000 0.76467  0.96298  0.02470  Biso   1.000  H
  C56      1.0000 0.85284  0.04702  0.03901  Biso   1.000  C
  C57      1.0000 0.85276  0.04702  0.03901  Biso   1.000  C
  C58      1.0000 0.87766  0.12199  0.46769  Biso   1.000  C
  C59      1.0000 0.24429  0.12232  0.46769  Biso   1.000  C
  C60      1.0000 0.19063  0.03320  0.96928  Biso   1.000  C
  C61      1.0000 0.19055  0.03320  0.96928  Biso   1.000  C
  C62      1.0000 0.17039  0.09383  0.11512  Biso   1.000  C
  C63      1.0000 0.17037  0.09378  0.11512  Biso   1.000  C
  C64      1.0000 0.85781  0.07292  0.92425  Biso   1.000  C
  C65      1.0000 0.90623  0.07661  0.11512  Biso   1.000  C
  C66      1.0000 0.90614  0.07661  0.11512  Biso   1.000  C
  H67      1.0000 0.83556  0.08400  0.48127  Biso   1.000  H
  C67      1.0000 0.89404  0.17120  0.57087  Biso   1.000  C
  C68      1.0000 0.87601  0.16031  0.35621  Biso   1.000  C
  C69      1.0000 0.89395  0.17120  0.57087  Biso   1.000  C
  H68      1.0000 0.24842  0.16439  0.48127  Biso   1.000  H
  C70      1.0000 0.27718  0.10601  0.57087  Biso   1.000  C
  C71      1.0000 0.28426  0.12400  0.35621  Biso   1.000  C
  H69      1.0000 0.24838  0.16439  0.48127  Biso   1.000  H
  C72      1.0000 0.21269  0.08520  0.88889  Biso   1.000  C
  H70      1.0000 0.18991  0.99569  0.94549  Biso   1.000  H
  C73      1.0000 0.19422  0.14722  0.03901  Biso   1.000  C
  H71      1.0000 0.15398  0.09589  0.19059  Biso   1.000  H
  H72      1.0000 0.15394  0.09589  0.19059  Biso   1.000  H
  C74      1.0000 0.91477  0.12750  0.88889  Biso   1.000  C
  H73      1.0000 0.82335  0.05392  0.87057  Biso   1.000  H
  H74      1.0000 0.82327  0.05392  0.87057  Biso   1.000  H
  H75      1.0000 0.90407  0.05810  0.19059  Biso   1.000  H
  C75      1.0000 0.96200  0.13192  0.08431  Biso   1.000  C
  N11      1.0000 0.87771  0.13738  0.69000  Biso   1.000  N
  H76      1.0000 0.93948  0.20401  0.56832  Biso   1.000  H
  C76      1.0000 0.85270  0.20003  0.54179  Biso   1.000  C
  C77      1.0000 0.85264  0.19998  0.54179  Biso   1.000  C
  C78      1.0000 0.85574  0.20511  0.40397  Biso   1.000  C
  H77      1.0000 0.91799  0.18372  0.31866  Biso   1.000  H
  H78      1.0000 0.84563  0.13163  0.29596  Biso   1.000  H
  C79      1.0000 0.85566  0.20511  0.40397  Biso   1.000  C
  H79      1.0000 0.84561  0.13158  0.29596  Biso   1.000  H
  N12      1.0000 0.25975  0.12232  0.69000  Biso   1.000  N
  H80      1.0000 0.26447  0.06049  0.56832  Biso   1.000  H
  C80      1.0000 0.34735  0.14731  0.54179  Biso   1.000  C
  N13      1.0000 0.25970  0.12232  0.69000  Biso   1.000  N
  C81      1.0000 0.34726  0.14731  0.54179  Biso   1.000  C
  C82      1.0000 0.34937  0.14429  0.40397  Biso   1.000  C
  H81      1.0000 0.26569  0.08203  0.31866  Biso   1.000  H
  H82      1.0000 0.28597  0.15441  0.29596  Biso   1.000  H
  H83      1.0000 0.26566  0.08198  0.31866  Biso   1.000  H
  C83      1.0000 0.23298  0.07651  0.76493  Biso   1.000  C
  C84      1.0000 0.21516  0.14223  0.92425  Biso   1.000  C
  C85      1.0000 0.21505  0.14218  0.92425  Biso   1.000  C
  C86      1.0000 0.19292  0.20401  0.08094  Biso   1.000  C
  C87      1.0000 0.92354  0.15652  0.76493  Biso   1.000  C
  C88      1.0000 0.92346  0.15652  0.76493  Biso   1.000  C
  C89      1.0000 0.96676  0.15739  0.96928  Biso   1.000  C
  C90      1.0000 0.01517  0.16132  0.17419  Biso   1.000  C
  H84      1.0000 0.86961  0.24181  0.57916  Biso   1.000  H
  H85      1.0000 0.80902  0.17240  0.56941  Biso   1.000  H
  H86      1.0000 0.80894  0.17240  0.56941  Biso   1.000  H
  H87      1.0000 0.81399  0.19423  0.37152  Biso   1.000  H
  H88      1.0000 0.88628  0.24881  0.37964  Biso   1.000  H
  H89      1.0000 0.81397  0.19418  0.37152  Biso   1.000  H
  H90      1.0000 0.37222  0.13043  0.57916  Biso   1.000  H
  H91      1.0000 0.36338  0.19101  0.56941  Biso   1.000  H
  H92      1.0000 0.37219  0.13038  0.57916  Biso   1.000  H
  H93      1.0000 0.38024  0.18602  0.37152  Biso   1.000  H
  H94      1.0000 0.36252  0.11369  0.37964  Biso   1.000  H
  H95      1.0000 0.38020  0.18602  0.37152  Biso   1.000  H
  H96      1.0000 0.36244  0.11369  0.37964  Biso   1.000  H
  H97      1.0000 0.22575  0.03622  0.74232  Biso   1.000  H
  H98      1.0000 0.22571  0.03622  0.74232  Biso   1.000  H
  H99      1.0000 0.23057  0.17672  0.87057  Biso   1.000  H
  N14      1.0000 0.18467  0.21168  0.19123  Biso   1.000  N
  H100     1.0000 0.19825  0.23528  0.02470  Biso   1.000  H
  H101     1.0000 0.96381  0.18952  0.74232  Biso   1.000  H
  H102     1.0000 0.96374  0.18948  0.74232  Biso   1.000  H
  H103     1.0000 0.00433  0.19423  0.94549  Biso   1.000  H
  H104     1.0000 0.00431  0.19418  0.94549  Biso   1.000  H
  N15      1.0000 0.06233  0.21758  0.16644  Biso   1.000  N
  H105     1.0000 0.01375  0.13662  0.24073  Biso   1.000  H
  N16      1.0000 0.06225  0.21758  0.16644  Biso   1.000  N
  H106     1.0000 0.01370  0.13662  0.24073  Biso   1.000  H
  C91      1.0000 0.17446  0.26339  0.22951  Biso   1.000  C
  C92      1.0000 0.10701  0.23591  0.27008  Biso   1.000  C
  H107     1.0000 0.18371  0.29361  0.16234  Biso   1.000  H
  C93      1.0000 0.21360  0.29879  0.34318  Biso   1.000  C
  H108     1.0000 0.09521  0.19801  0.32048  Biso   1.000  H
  C94      1.0000 0.10803  0.28771  0.34828  Biso   1.000  C
  H109     1.0000 0.09516  0.19801  0.32048  Biso   1.000  H
  C95      1.0000 0.10794  0.28771  0.34828  Biso   1.000  C
  H110     1.0000 0.22973  0.27390  0.38383  Biso   1.000  H
  H111     1.0000 0.24958  0.34019  0.32121  Biso   1.000  H
  C96      1.0000 0.16701  0.30690  0.42558  Biso   1.000  C
  H112     1.0000 0.22965  0.27390  0.38383  Biso   1.000  H
  H113     1.0000 0.06972  0.27150  0.39787  Biso   1.000  H
  H114     1.0000 0.11258  0.32340  0.29943  Biso   1.000  H
  H115     1.0000 0.06964  0.27150  0.39787  Biso   1.000  H
  H116     1.0000 0.15622  0.27941  0.49658  Biso   1.000  H
  H117     1.0000 0.18563  0.35103  0.45237  Biso   1.000  H
  H118     1.0000 0.18561  0.35098  0.45237  Biso   1.000  H
  C97      1.0000 0.84351  0.76699  0.76493  Biso   1.000  C
  N17      1.0000 0.86262  0.74032  0.69000  Biso   1.000  N
  C98      1.0000 0.87254  0.78732  0.88889  Biso   1.000  C
  H119     1.0000 0.81054  0.77433  0.74232  Biso   1.000  H
  C99      1.0000 0.87247  0.78728  0.88889  Biso   1.000  C
  H120     1.0000 0.81048  0.77428  0.74232  Biso   1.000  H
  C100     1.0000 0.82882  0.72281  0.57087  Biso   1.000  C
  C101     1.0000 0.84261  0.80939  0.96928  Biso   1.000  C
  C102     1.0000 0.92713  0.78493  0.92425  Biso   1.000  C
  C103     1.0000 0.92710  0.78488  0.92425  Biso   1.000  C
  C104     1.0000 0.80005  0.65273  0.54179  Biso   1.000  C
  C105     1.0000 0.79998  0.65268  0.54179  Biso   1.000  C
  C106     1.0000 0.87804  0.75571  0.46769  Biso   1.000  C
  C107     1.0000 0.87800  0.75571  0.46769  Biso   1.000  C
  H121     1.0000 0.79604  0.73552  0.56832  Biso   1.000  H
  H122     1.0000 0.79600  0.73552  0.56832  Biso   1.000  H
  H123     1.0000 0.80584  0.81011  0.94549  Biso   1.000  H
  H124     1.0000 0.80579  0.81011  0.94549  Biso   1.000  H
  C108     1.0000 0.86814  0.83011  0.08431  Biso   1.000  C
  C109     1.0000 0.86809  0.83011  0.08431  Biso   1.000  C
  H125     1.0000 0.94611  0.76938  0.87057  Biso   1.000  H
  C110     1.0000 0.95301  0.80579  0.03901  Biso   1.000  C
  C111     1.0000 0.79492  0.65062  0.40397  Biso   1.000  C
  H126     1.0000 0.75821  0.62779  0.57916  Biso   1.000  H
  H127     1.0000 0.82763  0.63661  0.56941  Biso   1.000  H
  H128     1.0000 0.82759  0.63661  0.56941  Biso   1.000  H
  C112     1.0000 0.83972  0.71571  0.35621  Biso   1.000  C
  N18      1.0000 0.89582  0.82301  0.45830  Biso   1.000  N
  H129     1.0000 0.91603  0.75159  0.48127  Biso   1.000  H
  H130     1.0000 0.91598  0.75159  0.48127  Biso   1.000  H
  C113     1.0000 0.92343  0.82963  0.11512  Biso   1.000  C
  C114     1.0000 0.83874  0.85390  0.17419  Biso   1.000  C
  C115     1.0000 0.92341  0.82958  0.11512  Biso   1.000  C
  C116     1.0000 0.83870  0.85390  0.17419  Biso   1.000  C
  C117     1.0000 0.01111  0.80709  0.08094  Biso   1.000  C
  H131     1.0000 0.80582  0.61982  0.37152  Biso   1.000  H
  H132     1.0000 0.75124  0.63752  0.37964  Biso   1.000  H
  H133     1.0000 0.80580  0.61978  0.37152  Biso   1.000  H
  H134     1.0000 0.75117  0.63748  0.37964  Biso   1.000  H
  H135     1.0000 0.81634  0.73432  0.31866  Biso   1.000  H
  H136     1.0000 0.86842  0.71403  0.29596  Biso   1.000  H
  H137     1.0000 0.81629  0.73432  0.31866  Biso   1.000  H
  H138     1.0000 0.86839  0.71398  0.29596  Biso   1.000  H
  C118     1.0000 0.95432  0.86441  0.47307  Biso   1.000  C
  H139     1.0000 0.94192  0.84599  0.19059  Biso   1.000  H
  H140     1.0000 0.94187  0.84599  0.19059  Biso   1.000  H
  N19      1.0000 0.78242  0.84469  0.16644  Biso   1.000  N
  H141     1.0000 0.86343  0.87712  0.24073  Biso   1.000  H
  N20      1.0000 0.78238  0.84469  0.16644  Biso   1.000  N
  H142     1.0000 0.86339  0.87712  0.24073  Biso   1.000  H
  N21      1.0000 0.02701  0.81529  0.19123  Biso   1.000  N
  H143     1.0000 0.03705  0.80171  0.02470  Biso   1.000  H
  H144     1.0000 0.03701  0.80171  0.02470  Biso   1.000  H
  H145     1.0000 0.98360  0.85059  0.48564  Biso   1.000  H
  C119     1.0000 0.97712  0.93309  0.47142  Biso   1.000  C
  C120     1.0000 0.97708  0.93309  0.47142  Biso   1.000  C
  C121     1.0000 0.76414  0.87112  0.27008  Biso   1.000  C
  C122     1.0000 0.76410  0.87112  0.27008  Biso   1.000  C
  C123     1.0000 0.08890  0.82551  0.22951  Biso   1.000  C
  C124     1.0000 0.93451  0.95770  0.47188  Biso   1.000  C
  C125     1.0000 0.04234  0.97679  0.47188  Biso   1.000  C
  C126     1.0000 0.04229  0.97679  0.47188  Biso   1.000  C
  H146     1.0000 0.80203  0.89722  0.32048  Biso   1.000  H
  C127     1.0000 0.73662  0.91113  0.22951  Biso   1.000  C
  C128     1.0000 0.71233  0.82033  0.34828  Biso   1.000  C
  H147     1.0000 0.80199  0.89722  0.32048  Biso   1.000  H
  C129     1.0000 0.73660  0.91108  0.22951  Biso   1.000  C
  C130     1.0000 0.71230  0.82028  0.34828  Biso   1.000  C
  C131     1.0000 0.12892  0.89299  0.27008  Biso   1.000  C
  H148     1.0000 0.10993  0.81630  0.16234  Biso   1.000  H
  C132     1.0000 0.08523  0.78641  0.34318  Biso   1.000  C
  C133     1.0000 0.12888  0.89299  0.27008  Biso   1.000  C
  H149     1.0000 0.10989  0.81630  0.16234  Biso   1.000  H
  H150     1.0000 0.89063  0.92902  0.47270  Biso   1.000  H
  C134     1.0000 0.95597  0.02289  0.47142  Biso   1.000  C
  C135     1.0000 0.06688  0.04399  0.47142  Biso   1.000  C
  H151     1.0000 0.07100  0.96159  0.47270  Biso   1.000  H
  N22      1.0000 0.78833  0.97300  0.19123  Biso   1.000  N
  H152     1.0000 0.70643  0.89012  0.16234  Biso   1.000  H
  C136     1.0000 0.70121  0.91482  0.34318  Biso   1.000  C
  N23      1.0000 0.78829  0.97300  0.19123  Biso   1.000  N
  H153     1.0000 0.70639  0.89012  0.16234  Biso   1.000  H
  C137     1.0000 0.69312  0.86009  0.42558  Biso   1.000  C
  H154     1.0000 0.72852  0.79821  0.39787  Biso   1.000  H
  H155     1.0000 0.67661  0.78919  0.29943  Biso   1.000  H
  C138     1.0000 0.69308  0.86009  0.42558  Biso   1.000  C
  N24      1.0000 0.15530  0.93770  0.16644  Biso   1.000  N
  H156     1.0000 0.10284  0.90479  0.32048  Biso   1.000  H
  C139     1.0000 0.17972  0.89199  0.34828  Biso   1.000  C
  H157     1.0000 0.10279  0.90479  0.32048  Biso   1.000  H
  C140     1.0000 0.17968  0.89199  0.34828  Biso   1.000  C
  H158     1.0000 0.04423  0.77030  0.38383  Biso   1.000  H
  H159     1.0000 0.09060  0.75039  0.32121  Biso   1.000  H
  C141     1.0000 0.13992  0.83299  0.42558  Biso   1.000  C
  H160     1.0000 0.04419  0.77030  0.38383  Biso   1.000  H
  C142     1.0000 0.13988  0.83299  0.42558  Biso   1.000  C
  C143     1.0000 0.91010  0.04572  0.47307  Biso   1.000  C
  C144     1.0000 0.02319  0.06553  0.47188  Biso   1.000  C
  C145     1.0000 0.02317  0.06548  0.47188  Biso   1.000  C
  C146     1.0000 0.13561  0.08990  0.47307  Biso   1.000  C
  C147     1.0000 0.79605  0.98893  0.08094  Biso   1.000  C
  C148     1.0000 0.79598  0.98888  0.08094  Biso   1.000  C
  H161     1.0000 0.72612  0.95583  0.38383  Biso   1.000  H
  H162     1.0000 0.65983  0.90940  0.32121  Biso   1.000  H
  H163     1.0000 0.72609  0.95578  0.38383  Biso   1.000  H
  H164     1.0000 0.65978  0.90940  0.32121  Biso   1.000  H
  H165     1.0000 0.72064  0.87683  0.49658  Biso   1.000  H
  H166     1.0000 0.64902  0.83462  0.45237  Biso   1.000  H
  H167     1.0000 0.72057  0.87678  0.49658  Biso   1.000  H
  C149     1.0000 0.14612  0.98480  0.17419  Biso   1.000  C
  H168     1.0000 0.20183  0.93031  0.39787  Biso   1.000  H
  H169     1.0000 0.21084  0.88743  0.29943  Biso   1.000  H
  H170     1.0000 0.20179  0.93031  0.39787  Biso   1.000  H
  H171     1.0000 0.21077  0.88738  0.29943  Biso   1.000  H
  H172     1.0000 0.12324  0.84383  0.49658  Biso   1.000  H
  H173     1.0000 0.16545  0.81443  0.45237  Biso   1.000  H
  H174     1.0000 0.12317  0.84378  0.49658  Biso   1.000  H
  H175     1.0000 0.16538  0.81438  0.45237  Biso   1.000  H
  N25      1.0000 0.92720  0.10419  0.45830  Biso   1.000  N
  H176     1.0000 0.86699  0.01641  0.48564  Biso   1.000  H
  H177     1.0000 0.86695  0.01641  0.48564  Biso   1.000  H
  H178     1.0000 0.03845  0.10942  0.47270  Biso   1.000  H
  H179     1.0000 0.03836  0.10942  0.47270  Biso   1.000  H
  N26      1.0000 0.17700  0.07282  0.45830  Biso   1.000  N
  H180     1.0000 0.14945  0.13302  0.48564  Biso   1.000  H
  H181     1.0000 0.14936  0.13302  0.48564  Biso   1.000  H
  H182     1.0000 0.76473  0.96303  0.02470  Biso   1.000  H
  H183     1.0000 0.76467  0.96298  0.02470  Biso   1.000  H
  C150     1.0000 0.85284  0.04702  0.03901  Biso   1.000  C
  C151     1.0000 0.85276  0.04702  0.03901  Biso   1.000  C
  H184     1.0000 0.12290  0.98629  0.24073  Biso   1.000  H
  C152     1.0000 0.16989  0.03800  0.08431  Biso   1.000  C
  C153     1.0000 0.16985  0.03800  0.08431  Biso   1.000  C
  C154     1.0000 0.87766  0.12199  0.46769  Biso   1.000  C
  C155     1.0000 0.24429  0.12232  0.46769  Biso   1.000  C
  C156     1.0000 0.85781  0.07292  0.92425  Biso   1.000  C
  C157     1.0000 0.90623  0.07661  0.11512  Biso   1.000  C
  C158     1.0000 0.90614  0.07661  0.11512  Biso   1.000  C
  C159     1.0000 0.19063  0.03320  0.96928  Biso   1.000  C
  C160     1.0000 0.19055  0.03320  0.96928  Biso   1.000  C
  C161     1.0000 0.17039  0.09383  0.11512  Biso   1.000  C
  C162     1.0000 0.17037  0.09378  0.11512  Biso   1.000  C
  H185     1.0000 0.83556  0.08400  0.48127  Biso   1.000  H
  C163     1.0000 0.89404  0.17120  0.57087  Biso   1.000  C
  C164     1.0000 0.87601  0.16031  0.35621  Biso   1.000  C
  C165     1.0000 0.89395  0.17120  0.57087  Biso   1.000  C
  H186     1.0000 0.24842  0.16439  0.48127  Biso   1.000  H
  C166     1.0000 0.27718  0.10601  0.57087  Biso   1.000  C
  C167     1.0000 0.28426  0.12400  0.35621  Biso   1.000  C
  H187     1.0000 0.24838  0.16439  0.48127  Biso   1.000  H
  C168     1.0000 0.91477  0.12750  0.88889  Biso   1.000  C
  H188     1.0000 0.82335  0.05392  0.87057  Biso   1.000  H
  H189     1.0000 0.82327  0.05392  0.87057  Biso   1.000  H
  C169     1.0000 0.96200  0.13192  0.08431  Biso   1.000  C
  H190     1.0000 0.90407  0.05810  0.19059  Biso   1.000  H
  C170     1.0000 0.21269  0.08520  0.88889  Biso   1.000  C
  H191     1.0000 0.18991  0.99569  0.94549  Biso   1.000  H
  C171     1.0000 0.19422  0.14722  0.03901  Biso   1.000  C
  H192     1.0000 0.15398  0.09589  0.19059  Biso   1.000  H
  H193     1.0000 0.15394  0.09589  0.19059  Biso   1.000  H
  N27      1.0000 0.87771  0.13738  0.69000  Biso   1.000  N
  H194     1.0000 0.93948  0.20401  0.56832  Biso   1.000  H
  C172     1.0000 0.85270  0.20003  0.54179  Biso   1.000  C
  C173     1.0000 0.85264  0.19998  0.54179  Biso   1.000  C
  H195     1.0000 0.91799  0.18372  0.31866  Biso   1.000  H
  C174     1.0000 0.85574  0.20511  0.40397  Biso   1.000  C
  H196     1.0000 0.84563  0.13163  0.29596  Biso   1.000  H
  C175     1.0000 0.85566  0.20511  0.40397  Biso   1.000  C
  H197     1.0000 0.84561  0.13158  0.29596  Biso   1.000  H
  N28      1.0000 0.25975  0.12232  0.69000  Biso   1.000  N
  H198     1.0000 0.26447  0.06049  0.56832  Biso   1.000  H
  C176     1.0000 0.34735  0.14731  0.54179  Biso   1.000  C
  N29      1.0000 0.25970  0.12232  0.69000  Biso   1.000  N
  C177     1.0000 0.34726  0.14731  0.54179  Biso   1.000  C
  C178     1.0000 0.34937  0.14429  0.40397  Biso   1.000  C
  H199     1.0000 0.26569  0.08203  0.31866  Biso   1.000  H
  H200     1.0000 0.28597  0.15441  0.29596  Biso   1.000  H
  H201     1.0000 0.26566  0.08198  0.31866  Biso   1.000  H
  C179     1.0000 0.92354  0.15652  0.76493  Biso   1.000  C
  C180     1.0000 0.92346  0.15652  0.76493  Biso   1.000  C
  C181     1.0000 0.96676  0.15739  0.96928  Biso   1.000  C
  C182     1.0000 0.01517  0.16132  0.17419  Biso   1.000  C
  C183     1.0000 0.23298  0.07651  0.76493  Biso   1.000  C
  C184     1.0000 0.21516  0.14223  0.92425  Biso   1.000  C
  C185     1.0000 0.21505  0.14218  0.92425  Biso   1.000  C
  C186     1.0000 0.19292  0.20401  0.08094  Biso   1.000  C
  H202     1.0000 0.86961  0.24181  0.57916  Biso   1.000  H
  H203     1.0000 0.80902  0.17240  0.56941  Biso   1.000  H
  H204     1.0000 0.80894  0.17240  0.56941  Biso   1.000  H
  H205     1.0000 0.81399  0.19423  0.37152  Biso   1.000  H
  H206     1.0000 0.88628  0.24881  0.37964  Biso   1.000  H
  H207     1.0000 0.81397  0.19418  0.37152  Biso   1.000  H
  H208     1.0000 0.37222  0.13043  0.57916  Biso   1.000  H
  H209     1.0000 0.36338  0.19101  0.56941  Biso   1.000  H
  H210     1.0000 0.37219  0.13038  0.57916  Biso   1.000  H
  H211     1.0000 0.38024  0.18602  0.37152  Biso   1.000  H
  H212     1.0000 0.36252  0.11369  0.37964  Biso   1.000  H
  H213     1.0000 0.38020  0.18602  0.37152  Biso   1.000  H
  H214     1.0000 0.36244  0.11369  0.37964  Biso   1.000  H
  H215     1.0000 0.96381  0.18952  0.74232  Biso   1.000  H
  H216     1.0000 0.96374  0.18948  0.74232  Biso   1.000  H
  H217     1.0000 0.00433  0.19423  0.94549  Biso   1.000  H
  H218     1.0000 0.00431  0.19418  0.94549  Biso   1.000  H
  N30      1.0000 0.06233  0.21758  0.16644  Biso   1.000  N
  H219     1.0000 0.01375  0.13662  0.24073  Biso   1.000  H
  N31      1.0000 0.06225  0.21758  0.16644  Biso   1.000  N
  H220     1.0000 0.01370  0.13662  0.24073  Biso   1.000  H
  H221     1.0000 0.22575  0.03622  0.74232  Biso   1.000  H
  H222     1.0000 0.22571  0.03622  0.74232  Biso   1.000  H
  H223     1.0000 0.23057  0.17672  0.87057  Biso   1.000  H
  N32      1.0000 0.18467  0.21168  0.19123  Biso   1.000  N
  H224     1.0000 0.19825  0.23528  0.02470  Biso   1.000  H
  C187     1.0000 0.10701  0.23591  0.27008  Biso   1.000  C
  C188     1.0000 0.17446  0.26339  0.22951  Biso   1.000  C
  H225     1.0000 0.09521  0.19801  0.32048  Biso   1.000  H
  C189     1.0000 0.10803  0.28771  0.34828  Biso   1.000  C
  H226     1.0000 0.09516  0.19801  0.32048  Biso   1.000  H
  C190     1.0000 0.10794  0.28771  0.34828  Biso   1.000  C
  H227     1.0000 0.18371  0.29361  0.16234  Biso   1.000  H
  C191     1.0000 0.21360  0.29879  0.34318  Biso   1.000  C
  C192     1.0000 0.16701  0.30690  0.42558  Biso   1.000  C
  H228     1.0000 0.06972  0.27150  0.39787  Biso   1.000  H
  H229     1.0000 0.11258  0.32340  0.29943  Biso   1.000  H
  H230     1.0000 0.06964  0.27150  0.39787  Biso   1.000  H
  H231     1.0000 0.24958  0.34019  0.32121  Biso   1.000  H
  H232     1.0000 0.22973  0.27390  0.38383  Biso   1.000  H
  H233     1.0000 0.22965  0.27390  0.38383  Biso   1.000  H
  H234     1.0000 0.15622  0.27941  0.49658  Biso   1.000  H
  H235     1.0000 0.18563  0.35103  0.45237  Biso   1.000  H
  H236     1.0000 0.18561  0.35098  0.45237  Biso   1.000  H
  C193     1.0000 0.84351  0.76699  0.76493  Biso   1.000  C
  N33      1.0000 0.86262  0.74032  0.69000  Biso   1.000  N
  C194     1.0000 0.87254  0.78732  0.88889  Biso   1.000  C
  H237     1.0000 0.81054  0.77433  0.74232  Biso   1.000  H
  C195     1.0000 0.87247  0.78728  0.88889  Biso   1.000  C
  H238     1.0000 0.81048  0.77428  0.74232  Biso   1.000  H
  C196     1.0000 0.82882  0.72281  0.57087  Biso   1.000  C
  C197     1.0000 0.84261  0.80939  0.96928  Biso   1.000  C
  C198     1.0000 0.92713  0.78493  0.92425  Biso   1.000  C
  C199     1.0000 0.92710  0.78488  0.92425  Biso   1.000  C
  C200     1.0000 0.80005  0.65273  0.54179  Biso   1.000  C
  C201     1.0000 0.79998  0.65268  0.54179  Biso   1.000  C
  C202     1.0000 0.87804  0.75571  0.46769  Biso   1.000  C
  C203     1.0000 0.87800  0.75571  0.46769  Biso   1.000  C
  H239     1.0000 0.79604  0.73552  0.56832  Biso   1.000  H
  H240     1.0000 0.79600  0.73552  0.56832  Biso   1.000  H
  H241     1.0000 0.80584  0.81011  0.94549  Biso   1.000  H
  H242     1.0000 0.80579  0.81011  0.94549  Biso   1.000  H
  C204     1.0000 0.86814  0.83011  0.08431  Biso   1.000  C
  C205     1.0000 0.86809  0.83011  0.08431  Biso   1.000  C
  H243     1.0000 0.94611  0.76938  0.87057  Biso   1.000  H
  C206     1.0000 0.95301  0.80579  0.03901  Biso   1.000  C
  C207     1.0000 0.79492  0.65062  0.40397  Biso   1.000  C
  H244     1.0000 0.75821  0.62779  0.57916  Biso   1.000  H
  H245     1.0000 0.82763  0.63661  0.56941  Biso   1.000  H
  H246     1.0000 0.82759  0.63661  0.56941  Biso   1.000  H
  C208     1.0000 0.83972  0.71571  0.35621  Biso   1.000  C
  N34      1.0000 0.89582  0.82301  0.45830  Biso   1.000  N
  H247     1.0000 0.91603  0.75159  0.48127  Biso   1.000  H
  H248     1.0000 0.91598  0.75159  0.48127  Biso   1.000  H
  C209     1.0000 0.92343  0.82963  0.11512  Biso   1.000  C
  C210     1.0000 0.83874  0.85390  0.17419  Biso   1.000  C
  C211     1.0000 0.92341  0.82958  0.11512  Biso   1.000  C
  C212     1.0000 0.83870  0.85390  0.17419  Biso   1.000  C
  C213     1.0000 0.01111  0.80709  0.08094  Biso   1.000  C
  H249     1.0000 0.80582  0.61982  0.37152  Biso   1.000  H
  H250     1.0000 0.75124  0.63752  0.37964  Biso   1.000  H
  H251     1.0000 0.80580  0.61978  0.37152  Biso   1.000  H
  H252     1.0000 0.75117  0.63748  0.37964  Biso   1.000  H
  H253     1.0000 0.81634  0.73432  0.31866  Biso   1.000  H
  H254     1.0000 0.86842  0.71403  0.29596  Biso   1.000  H
  H255     1.0000 0.81629  0.73432  0.31866  Biso   1.000  H
  H256     1.0000 0.86839  0.71398  0.29596  Biso   1.000  H
  C214     1.0000 0.95432  0.86441  0.47307  Biso   1.000  C
  H257     1.0000 0.94192  0.84599  0.19059  Biso   1.000  H
  H258     1.0000 0.94187  0.84599  0.19059  Biso   1.000  H
  N35      1.0000 0.78242  0.84469  0.16644  Biso   1.000  N
  H259     1.0000 0.86343  0.87712  0.24073  Biso   1.000  H
  N36      1.0000 0.78238  0.84469  0.16644  Biso   1.000  N
  H260     1.0000 0.86339  0.87712  0.24073  Biso   1.000  H
  N37      1.0000 0.02701  0.81529  0.19123  Biso   1.000  N
  H261     1.0000 0.03705  0.80171  0.02470  Biso   1.000  H
  H262     1.0000 0.03701  0.80171  0.02470  Biso   1.000  H
  H263     1.0000 0.98360  0.85059  0.48564  Biso   1.000  H
  C215     1.0000 0.97712  0.93309  0.47142  Biso   1.000  C
  C216     1.0000 0.97708  0.93309  0.47142  Biso   1.000  C
  C217     1.0000 0.76414  0.87112  0.27008  Biso   1.000  C
  C218     1.0000 0.76410  0.87112  0.27008  Biso   1.000  C
  C219     1.0000 0.08890  0.82551  0.22951  Biso   1.000  C
  C220     1.0000 0.93451  0.95770  0.47188  Biso   1.000  C
  C221     1.0000 0.04234  0.97679  0.47188  Biso   1.000  C
  C222     1.0000 0.04229  0.97679  0.47188  Biso   1.000  C
  H264     1.0000 0.80203  0.89722  0.32048  Biso   1.000  H
  C223     1.0000 0.73662  0.91113  0.22951  Biso   1.000  C
  C224     1.0000 0.71233  0.82033  0.34828  Biso   1.000  C
  H265     1.0000 0.80199  0.89722  0.32048  Biso   1.000  H
  C225     1.0000 0.73660  0.91108  0.22951  Biso   1.000  C
  C226     1.0000 0.71230  0.82028  0.34828  Biso   1.000  C
  C227     1.0000 0.12892  0.89299  0.27008  Biso   1.000  C
  H266     1.0000 0.10993  0.81630  0.16234  Biso   1.000  H
  C228     1.0000 0.08523  0.78641  0.34318  Biso   1.000  C
  C229     1.0000 0.12888  0.89299  0.27008  Biso   1.000  C
  H267     1.0000 0.10989  0.81630  0.16234  Biso   1.000  H
  H268     1.0000 0.89063  0.92902  0.47270  Biso   1.000  H
  C230     1.0000 0.95597  0.02289  0.47142  Biso   1.000  C
  C231     1.0000 0.06688  0.04399  0.47142  Biso   1.000  C
  H269     1.0000 0.07100  0.96159  0.47270  Biso   1.000  H
  N38      1.0000 0.78833  0.97300  0.19123  Biso   1.000  N
  H270     1.0000 0.70643  0.89012  0.16234  Biso   1.000  H
  C232     1.0000 0.70121  0.91482  0.34318  Biso   1.000  C
  N39      1.0000 0.78829  0.97300  0.19123  Biso   1.000  N
  H271     1.0000 0.70639  0.89012  0.16234  Biso   1.000  H
  C233     1.0000 0.69312  0.86009  0.42558  Biso   1.000  C
  H272     1.0000 0.72852  0.79821  0.39787  Biso   1.000  H
  H273     1.0000 0.67661  0.78919  0.29943  Biso   1.000  H
  C234     1.0000 0.69308  0.86009  0.42558  Biso   1.000  C
  N40      1.0000 0.15530  0.93770  0.16644  Biso   1.000  N
  H274     1.0000 0.10284  0.90479  0.32048  Biso   1.000  H
  C235     1.0000 0.17972  0.89199  0.34828  Biso   1.000  C
  H275     1.0000 0.10279  0.90479  0.32048  Biso   1.000  H
  C236     1.0000 0.17968  0.89199  0.34828  Biso   1.000  C
  H276     1.0000 0.04423  0.77030  0.38383  Biso   1.000  H
  H277     1.0000 0.09060  0.75039  0.32121  Biso   1.000  H
  C237     1.0000 0.13992  0.83299  0.42558  Biso   1.000  C
  H278     1.0000 0.04419  0.77030  0.38383  Biso   1.000  H
  C238     1.0000 0.13988  0.83299  0.42558  Biso   1.000  C
  C239     1.0000 0.91010  0.04572  0.47307  Biso   1.000  C
  C240     1.0000 0.02319  0.06553  0.47188  Biso   1.000  C
  C241     1.0000 0.02317  0.06548  0.47188  Biso   1.000  C
  C242     1.0000 0.13561  0.08990  0.47307  Biso   1.000  C
  C243     1.0000 0.79605  0.98893  0.08094  Biso   1.000  C
  C244     1.0000 0.79598  0.98888  0.08094  Biso   1.000  C
  H279     1.0000 0.72612  0.95583  0.38383  Biso   1.000  H
  H280     1.0000 0.65983  0.90940  0.32121  Biso   1.000  H
  H281     1.0000 0.72609  0.95578  0.38383  Biso   1.000  H
  H282     1.0000 0.65978  0.90940  0.32121  Biso   1.000  H
  H283     1.0000 0.72064  0.87683  0.49658  Biso   1.000  H
  H284     1.0000 0.64902  0.83462  0.45237  Biso   1.000  H
  H285     1.0000 0.72057  0.87678  0.49658  Biso   1.000  H
  C245     1.0000 0.14612  0.98480  0.17419  Biso   1.000  C
  H286     1.0000 0.20183  0.93031  0.39787  Biso   1.000  H
  H287     1.0000 0.21084  0.88743  0.29943  Biso   1.000  H
  H288     1.0000 0.20179  0.93031  0.39787  Biso   1.000  H
  H289     1.0000 0.21077  0.88738  0.29943  Biso   1.000  H
  H290     1.0000 0.12324  0.84383  0.49658  Biso   1.000  H
  H291     1.0000 0.16545  0.81443  0.45237  Biso   1.000  H
  H292     1.0000 0.12317  0.84378  0.49658  Biso   1.000  H
  H293     1.0000 0.16538  0.81438  0.45237  Biso   1.000  H
  N41      1.0000 0.92720  0.10419  0.45830  Biso   1.000  N
  H294     1.0000 0.86699  0.01641  0.48564  Biso   1.000  H
  H295     1.0000 0.86695  0.01641  0.48564  Biso   1.000  H
  H296     1.0000 0.03845  0.10942  0.47270  Biso   1.000  H
  H297     1.0000 0.03836  0.10942  0.47270  Biso   1.000  H
  N42      1.0000 0.17700  0.07282  0.45830  Biso   1.000  N
  H298     1.0000 0.14945  0.13302  0.48564  Biso   1.000  H
  H299     1.0000 0.14936  0.13302  0.48564  Biso   1.000  H
  H300     1.0000 0.76473  0.96303  0.02470  Biso   1.000  H
  H301     1.0000 0.76467  0.96298  0.02470  Biso   1.000  H
  C246     1.0000 0.85284  0.04702  0.03901  Biso   1.000  C
  C247     1.0000 0.85276  0.04702  0.03901  Biso   1.000  C
  H302     1.0000 0.12290  0.98629  0.24073  Biso   1.000  H
  C248     1.0000 0.16989  0.03800  0.08431  Biso   1.000  C
  C249     1.0000 0.16985  0.03800  0.08431  Biso   1.000  C
  C250     1.0000 0.87766  0.12199  0.46769  Biso   1.000  C
  C251     1.0000 0.24429  0.12232  0.46769  Biso   1.000  C
  C252     1.0000 0.85781  0.07292  0.92425  Biso   1.000  C
  C253     1.0000 0.90623  0.07661  0.11512  Biso   1.000  C
  C254     1.0000 0.90614  0.07661  0.11512  Biso   1.000  C
  C255     1.0000 0.19063  0.03320  0.96928  Biso   1.000  C
  C256     1.0000 0.19055  0.03320  0.96928  Biso   1.000  C
  C257     1.0000 0.17039  0.09383  0.11512  Biso   1.000  C
  C258     1.0000 0.17037  0.09378  0.11512  Biso   1.000  C
  H303     1.0000 0.83556  0.08400  0.48127  Biso   1.000  H
  C259     1.0000 0.89404  0.17120  0.57087  Biso   1.000  C
  C260     1.0000 0.87601  0.16031  0.35621  Biso   1.000  C
  C261     1.0000 0.89395  0.17120  0.57087  Biso   1.000  C
  H304     1.0000 0.24842  0.16439  0.48127  Biso   1.000  H
  C262     1.0000 0.27718  0.10601  0.57087  Biso   1.000  C
  C263     1.0000 0.28426  0.12400  0.35621  Biso   1.000  C
  H305     1.0000 0.24838  0.16439  0.48127  Biso   1.000  H
  C264     1.0000 0.91477  0.12750  0.88889  Biso   1.000  C
  H306     1.0000 0.82335  0.05392  0.87057  Biso   1.000  H
  H307     1.0000 0.82327  0.05392  0.87057  Biso   1.000  H
  C265     1.0000 0.96200  0.13192  0.08431  Biso   1.000  C
  H308     1.0000 0.90407  0.05810  0.19059  Biso   1.000  H
  C266     1.0000 0.21269  0.08520  0.88889  Biso   1.000  C
  H309     1.0000 0.18991  0.99569  0.94549  Biso   1.000  H
  C267     1.0000 0.19422  0.14722  0.03901  Biso   1.000  C
  H310     1.0000 0.15398  0.09589  0.19059  Biso   1.000  H
  H311     1.0000 0.15394  0.09589  0.19059  Biso   1.000  H
  N43      1.0000 0.87771  0.13738  0.69000  Biso   1.000  N
  H312     1.0000 0.93948  0.20401  0.56832  Biso   1.000  H
  C268     1.0000 0.85270  0.20003  0.54179  Biso   1.000  C
  C269     1.0000 0.85264  0.19998  0.54179  Biso   1.000  C
  H313     1.0000 0.91799  0.18372  0.31866  Biso   1.000  H
  C270     1.0000 0.85574  0.20511  0.40397  Biso   1.000  C
  H314     1.0000 0.84563  0.13163  0.29596  Biso   1.000  H
  C271     1.0000 0.85566  0.20511  0.40397  Biso   1.000  C
  H315     1.0000 0.84561  0.13158  0.29596  Biso   1.000  H
  N44      1.0000 0.25975  0.12232  0.69000  Biso   1.000  N
  H316     1.0000 0.26447  0.06049  0.56832  Biso   1.000  H
  C272     1.0000 0.34735  0.14731  0.54179  Biso   1.000  C
  N45      1.0000 0.25970  0.12232  0.69000  Biso   1.000  N
  C273     1.0000 0.34726  0.14731  0.54179  Biso   1.000  C
  C274     1.0000 0.34937  0.14429  0.40397  Biso   1.000  C
  H317     1.0000 0.26569  0.08203  0.31866  Biso   1.000  H
  H318     1.0000 0.28597  0.15441  0.29596  Biso   1.000  H
  H319     1.0000 0.26566  0.08198  0.31866  Biso   1.000  H
  C275     1.0000 0.92354  0.15652  0.76493  Biso   1.000  C
  C276     1.0000 0.92346  0.15652  0.76493  Biso   1.000  C
  C277     1.0000 0.96676  0.15739  0.96928  Biso   1.000  C
  C278     1.0000 0.01517  0.16132  0.17419  Biso   1.000  C
  C279     1.0000 0.23298  0.07651  0.76493  Biso   1.000  C
  C280     1.0000 0.21516  0.14223  0.92425  Biso   1.000  C
  C281     1.0000 0.21505  0.14218  0.92425  Biso   1.000  C
  C282     1.0000 0.19292  0.20401  0.08094  Biso   1.000  C
  H320     1.0000 0.86961  0.24181  0.57916  Biso   1.000  H
  H321     1.0000 0.80902  0.17240  0.56941  Biso   1.000  H
  H322     1.0000 0.80894  0.17240  0.56941  Biso   1.000  H
  H323     1.0000 0.81399  0.19423  0.37152  Biso   1.000  H
  H324     1.0000 0.88628  0.24881  0.37964  Biso   1.000  H
  H325     1.0000 0.81397  0.19418  0.37152  Biso   1.000  H
  H326     1.0000 0.37222  0.13043  0.57916  Biso   1.000  H
  H327     1.0000 0.36338  0.19101  0.56941  Biso   1.000  H
  H328     1.0000 0.37219  0.13038  0.57916  Biso   1.000  H
  H329     1.0000 0.38024  0.18602  0.37152  Biso   1.000  H
  H330     1.0000 0.36252  0.11369  0.37964  Biso   1.000  H
  H331     1.0000 0.38020  0.18602  0.37152  Biso   1.000  H
  H332     1.0000 0.36244  0.11369  0.37964  Biso   1.000  H
  H333     1.0000 0.96381  0.18952  0.74232  Biso   1.000  H
  H334     1.0000 0.96374  0.18948  0.74232  Biso   1.000  H
  H335     1.0000 0.00433  0.19423  0.94549  Biso   1.000  H
  H336     1.0000 0.00431  0.19418  0.94549  Biso   1.000  H
  N46      1.0000 0.06233  0.21758  0.16644  Biso   1.000  N
  H337     1.0000 0.01375  0.13662  0.24073  Biso   1.000  H
  N47      1.0000 0.06225  0.21758  0.16644  Biso   1.000  N
  H338     1.0000 0.01370  0.13662  0.24073  Biso   1.000  H
  H339     1.0000 0.22575  0.03622  0.74232  Biso   1.000  H
  H340     1.0000 0.22571  0.03622  0.74232  Biso   1.000  H
  H341     1.0000 0.23057  0.17672  0.87057  Biso   1.000  H
  N48      1.0000 0.18467  0.21168  0.19123  Biso   1.000  N
  H342     1.0000 0.19825  0.23528  0.02470  Biso   1.000  H
  C283     1.0000 0.10701  0.23591  0.27008  Biso   1.000  C
  C284     1.0000 0.17446  0.26339  0.22951  Biso   1.000  C
  H343     1.0000 0.09521  0.19801  0.32048  Biso   1.000  H
  C285     1.0000 0.10803  0.28771  0.34828  Biso   1.000  C
  H344     1.0000 0.09516  0.19801  0.32048  Biso   1.000  H
  C286     1.0000 0.10794  0.28771  0.34828  Biso   1.000  C
  H345     1.0000 0.18371  0.29361  0.16234  Biso   1.000  H
  C287     1.0000 0.21360  0.29879  0.34318  Biso   1.000  C
  C288     1.0000 0.16701  0.30690  0.42558  Biso   1.000  C
  H346     1.0000 0.06972  0.27150  0.39787  Biso   1.000  H
  H347     1.0000 0.11258  0.32340  0.29943  Biso   1.000  H
  H348     1.0000 0.06964  0.27150  0.39787  Biso   1.000  H
  H349     1.0000 0.24958  0.34019  0.32121  Biso   1.000  H
  H350     1.0000 0.22973  0.27390  0.38383  Biso   1.000  H
  H351     1.0000 0.22965  0.27390  0.38383  Biso   1.000  H
  H352     1.0000 0.15622  0.27941  0.49658  Biso   1.000  H
  H353     1.0000 0.18563  0.35103  0.45237  Biso   1.000  H
  H354     1.0000 0.18561  0.35098  0.45237  Biso   1.000  H
  C289     1.0000 0.84351  0.76699  0.76493  Biso   1.000  C
  N49      1.0000 0.86262  0.74032  0.69000  Biso   1.000  N
  C290     1.0000 0.87254  0.78732  0.88889  Biso   1.000  C
  H355     1.0000 0.81054  0.77433  0.74232  Biso   1.000  H
  C291     1.0000 0.87247  0.78728  0.88889  Biso   1.000  C
  H356     1.0000 0.81048  0.77428  0.74232  Biso   1.000  H
  C292     1.0000 0.82882  0.72281  0.57087  Biso   1.000  C
  C293     1.0000 0.84261  0.80939  0.96928  Biso   1.000  C
  C294     1.0000 0.92713  0.78493  0.92425  Biso   1.000  C
  C295     1.0000 0.92710  0.78488  0.92425  Biso   1.000  C
  C296     1.0000 0.80005  0.65273  0.54179  Biso   1.000  C
  C297     1.0000 0.79998  0.65268  0.54179  Biso   1.000  C
  C298     1.0000 0.87804  0.75571  0.46769  Biso   1.000  C
  C299     1.0000 0.87800  0.75571  0.46769  Biso   1.000  C
  H357     1.0000 0.79604  0.73552  0.56832  Biso   1.000  H
  H358     1.0000 0.79600  0.73552  0.56832  Biso   1.000  H
  H359     1.0000 0.80584  0.81011  0.94549  Biso   1.000  H
  H360     1.0000 0.80579  0.81011  0.94549  Biso   1.000  H
  C300     1.0000 0.86814  0.83011  0.08431  Biso   1.000  C
  C301     1.0000 0.86809  0.83011  0.08431  Biso   1.000  C
  H361     1.0000 0.94611  0.76938  0.87057  Biso   1.000  H
  C302     1.0000 0.95301  0.80579  0.03901  Biso   1.000  C
  C303     1.0000 0.79492  0.65062  0.40397  Biso   1.000  C
  H362     1.0000 0.75821  0.62779  0.57916  Biso   1.000  H
  H363     1.0000 0.82763  0.63661  0.56941  Biso   1.000  H
  H364     1.0000 0.82759  0.63661  0.56941  Biso   1.000  H
  C304     1.0000 0.83972  0.71571  0.35621  Biso   1.000  C
  N50      1.0000 0.89582  0.82301  0.45830  Biso   1.000  N
  H365     1.0000 0.91603  0.75159  0.48127  Biso   1.000  H
  H366     1.0000 0.91598  0.75159  0.48127  Biso   1.000  H
  C305     1.0000 0.92343  0.82963  0.11512  Biso   1.000  C
  C306     1.0000 0.83874  0.85390  0.17419  Biso   1.000  C
  C307     1.0000 0.92341  0.82958  0.11512  Biso   1.000  C
  C308     1.0000 0.83870  0.85390  0.17419  Biso   1.000  C
  C309     1.0000 0.01111  0.80709  0.08094  Biso   1.000  C
  H367     1.0000 0.80582  0.61982  0.37152  Biso   1.000  H
  H368     1.0000 0.75124  0.63752  0.37964  Biso   1.000  H
  H369     1.0000 0.80580  0.61978  0.37152  Biso   1.000  H
  H370     1.0000 0.75117  0.63748  0.37964  Biso   1.000  H
  H371     1.0000 0.81634  0.73432  0.31866  Biso   1.000  H
  H372     1.0000 0.86842  0.71403  0.29596  Biso   1.000  H
  H373     1.0000 0.81629  0.73432  0.31866  Biso   1.000  H
  H374     1.0000 0.86839  0.71398  0.29596  Biso   1.000  H
  C310     1.0000 0.95432  0.86441  0.47307  Biso   1.000  C
  H375     1.0000 0.94192  0.84599  0.19059  Biso   1.000  H
  H376     1.0000 0.94187  0.84599  0.19059  Biso   1.000  H
  N51      1.0000 0.78242  0.84469  0.16644  Biso   1.000  N
  H377     1.0000 0.86343  0.87712  0.24073  Biso   1.000  H
  N52      1.0000 0.78238  0.84469  0.16644  Biso   1.000  N
  H378     1.0000 0.86339  0.87712  0.24073  Biso   1.000  H
  N53      1.0000 0.02701  0.81529  0.19123  Biso   1.000  N
  H379     1.0000 0.03705  0.80171  0.02470  Biso   1.000  H
  H380     1.0000 0.03701  0.80171  0.02470  Biso   1.000  H
  H381     1.0000 0.98360  0.85059  0.48564  Biso   1.000  H
  C311     1.0000 0.97712  0.93309  0.47142  Biso   1.000  C
  C312     1.0000 0.97708  0.93309  0.47142  Biso   1.000  C
  C313     1.0000 0.76414  0.87112  0.27008  Biso   1.000  C
  C314     1.0000 0.76410  0.87112  0.27008  Biso   1.000  C
  C315     1.0000 0.08890  0.82551  0.22951  Biso   1.000  C
  C316     1.0000 0.93451  0.95770  0.47188  Biso   1.000  C
  C317     1.0000 0.04234  0.97679  0.47188  Biso   1.000  C
  C318     1.0000 0.04229  0.97679  0.47188  Biso   1.000  C
  H382     1.0000 0.80203  0.89722  0.32048  Biso   1.000  H
  C319     1.0000 0.73662  0.91113  0.22951  Biso   1.000  C
  C320     1.0000 0.71233  0.82033  0.34828  Biso   1.000  C
  H383     1.0000 0.80199  0.89722  0.32048  Biso   1.000  H
  C321     1.0000 0.73660  0.91108  0.22951  Biso   1.000  C
  C322     1.0000 0.71230  0.82028  0.34828  Biso   1.000  C
  C323     1.0000 0.12892  0.89299  0.27008  Biso   1.000  C
  H384     1.0000 0.10993  0.81630  0.16234  Biso   1.000  H
  C324     1.0000 0.08523  0.78641  0.34318  Biso   1.000  C
  C325     1.0000 0.12888  0.89299  0.27008  Biso   1.000  C
  H385     1.0000 0.10989  0.81630  0.16234  Biso   1.000  H
  H386     1.0000 0.89063  0.92902  0.47270  Biso   1.000  H
  C326     1.0000 0.95597  0.02289  0.47142  Biso   1.000  C
  C327     1.0000 0.06688  0.04399  0.47142  Biso   1.000  C
  H387     1.0000 0.07100  0.96159  0.47270  Biso   1.000  H
  N54      1.0000 0.78833  0.97300  0.19123  Biso   1.000  N
  H388     1.0000 0.70643  0.89012  0.16234  Biso   1.000  H
  C328     1.0000 0.70121  0.91482  0.34318  Biso   1.000  C
  N55      1.0000 0.78829  0.97300  0.19123  Biso   1.000  N
  H389     1.0000 0.70639  0.89012  0.16234  Biso   1.000  H
  C329     1.0000 0.69312  0.86009  0.42558  Biso   1.000  C
  H390     1.0000 0.72852  0.79821  0.39787  Biso   1.000  H
  H391     1.0000 0.67661  0.78919  0.29943  Biso   1.000  H
  C330     1.0000 0.69308  0.86009  0.42558  Biso   1.000  C
  N56      1.0000 0.15530  0.93770  0.16644  Biso   1.000  N
  H392     1.0000 0.10284  0.90479  0.32048  Biso   1.000  H
  C331     1.0000 0.17972  0.89199  0.34828  Biso   1.000  C
  H393     1.0000 0.10279  0.90479  0.32048  Biso   1.000  H
  C332     1.0000 0.17968  0.89199  0.34828  Biso   1.000  C
  H394     1.0000 0.04423  0.77030  0.38383  Biso   1.000  H
  H395     1.0000 0.09060  0.75039  0.32121  Biso   1.000  H
  C333     1.0000 0.13992  0.83299  0.42558  Biso   1.000  C
  H396     1.0000 0.04419  0.77030  0.38383  Biso   1.000  H
  C334     1.0000 0.13988  0.83299  0.42558  Biso   1.000  C
  C335     1.0000 0.91010  0.04572  0.47307  Biso   1.000  C
  C336     1.0000 0.02319  0.06553  0.47188  Biso   1.000  C
  C337     1.0000 0.02317  0.06548  0.47188  Biso   1.000  C
  C338     1.0000 0.13561  0.08990  0.47307  Biso   1.000  C
  C339     1.0000 0.79605  0.98893  0.08094  Biso   1.000  C
  C340     1.0000 0.79598  0.98888  0.08094  Biso   1.000  C
  H397     1.0000 0.72612  0.95583  0.38383  Biso   1.000  H
  H398     1.0000 0.65983  0.90940  0.32121  Biso   1.000  H
  H399     1.0000 0.72609  0.95578  0.38383  Biso   1.000  H
  H400     1.0000 0.65978  0.90940  0.32121  Biso   1.000  H
  H401     1.0000 0.72064  0.87683  0.49658  Biso   1.000  H
  H402     1.0000 0.64902  0.83462  0.45237  Biso   1.000  H
  H403     1.0000 0.72057  0.87678  0.49658  Biso   1.000  H
  C341     1.0000 0.14612  0.98480  0.17419  Biso   1.000  C
  H404     1.0000 0.20183  0.93031  0.39787  Biso   1.000  H
  H405     1.0000 0.21084  0.88743  0.29943  Biso   1.000  H
  H406     1.0000 0.20179  0.93031  0.39787  Biso   1.000  H
  H407     1.0000 0.21077  0.88738  0.29943  Biso   1.000  H
  H408     1.0000 0.12324  0.84383  0.49658  Biso   1.000  H
  H409     1.0000 0.16545  0.81443  0.45237  Biso   1.000  H
  H410     1.0000 0.12317  0.84378  0.49658  Biso   1.000  H
  H411     1.0000 0.16538  0.81438  0.45237  Biso   1.000  H
  N57      1.0000 0.92720  0.10419  0.45830  Biso   1.000  N
  H412     1.0000 0.86699  0.01641  0.48564  Biso   1.000  H
  H413     1.0000 0.86695  0.01641  0.48564  Biso   1.000  H
  H414     1.0000 0.03845  0.10942  0.47270  Biso   1.000  H
  H415     1.0000 0.03836  0.10942  0.47270  Biso   1.000  H
  N58      1.0000 0.17700  0.07282  0.45830  Biso   1.000  N
  H416     1.0000 0.14945  0.13302  0.48564  Biso   1.000  H
  H417     1.0000 0.14936  0.13302  0.48564  Biso   1.000  H
  H418     1.0000 0.76473  0.96303  0.02470  Biso   1.000  H
  H419     1.0000 0.76467  0.96298  0.02470  Biso   1.000  H
  C342     1.0000 0.85284  0.04702  0.03901  Biso   1.000  C
  C343     1.0000 0.85276  0.04702  0.03901  Biso   1.000  C
  H420     1.0000 0.12290  0.98629  0.24073  Biso   1.000  H
  C344     1.0000 0.16989  0.03800  0.08431  Biso   1.000  C
  C345     1.0000 0.16985  0.03800  0.08431  Biso   1.000  C
  C346     1.0000 0.87766  0.12199  0.46769  Biso   1.000  C
  C347     1.0000 0.24429  0.12232  0.46769  Biso   1.000  C
  C348     1.0000 0.85781  0.07292  0.92425  Biso   1.000  C
  C349     1.0000 0.90623  0.07661  0.11512  Biso   1.000  C
  C350     1.0000 0.90614  0.07661  0.11512  Biso   1.000  C
  C351     1.0000 0.19063  0.03320  0.96928  Biso   1.000  C
  C352     1.0000 0.19055  0.03320  0.96928  Biso   1.000  C
  C353     1.0000 0.17039  0.09383  0.11512  Biso   1.000  C
  C354     1.0000 0.17037  0.09378  0.11512  Biso   1.000  C
  H421     1.0000 0.83556  0.08400  0.48127  Biso   1.000  H
  C355     1.0000 0.89404  0.17120  0.57087  Biso   1.000  C
  C356     1.0000 0.87601  0.16031  0.35621  Biso   1.000  C
  C357     1.0000 0.89395  0.17120  0.57087  Biso   1.000  C
  H422     1.0000 0.24842  0.16439  0.48127  Biso   1.000  H
  C358     1.0000 0.27718  0.10601  0.57087  Biso   1.000  C
  C359     1.0000 0.28426  0.12400  0.35621  Biso   1.000  C
  H423     1.0000 0.24838  0.16439  0.48127  Biso   1.000  H
  C360     1.0000 0.91477  0.12750  0.88889  Biso   1.000  C
  H424     1.0000 0.82335  0.05392  0.87057  Biso   1.000  H
  H425     1.0000 0.82327  0.05392  0.87057  Biso   1.000  H
  C361     1.0000 0.96200  0.13192  0.08431  Biso   1.000  C
  H426     1.0000 0.90407  0.05810  0.19059  Biso   1.000  H
  C362     1.0000 0.21269  0.08520  0.88889  Biso   1.000  C
  H427     1.0000 0.18991  0.99569  0.94549  Biso   1.000  H
  C363     1.0000 0.19422  0.14722  0.03901  Biso   1.000  C
  H428     1.0000 0.15398  0.09589  0.19059  Biso   1.000  H
  H429     1.0000 0.15394  0.09589  0.19059  Biso   1.000  H
  N59      1.0000 0.87771  0.13738  0.69000  Biso   1.000  N
  H430     1.0000 0.93948  0.20401  0.56832  Biso   1.000  H
  C364     1.0000 0.85270  0.20003  0.54179  Biso   1.000  C
  C365     1.0000 0.85264  0.19998  0.54179  Biso   1.000  C
  H431     1.0000 0.91799  0.18372  0.31866  Biso   1.000  H
  C366     1.0000 0.85574  0.20511  0.40397  Biso   1.000  C
  H432     1.0000 0.84563  0.13163  0.29596  Biso   1.000  H
  C367     1.0000 0.85566  0.20511  0.40397  Biso   1.000  C
  H433     1.0000 0.84561  0.13158  0.29596  Biso   1.000  H
  N60      1.0000 0.25975  0.12232  0.69000  Biso   1.000  N
  H434     1.0000 0.26447  0.06049  0.56832  Biso   1.000  H
  C368     1.0000 0.34735  0.14731  0.54179  Biso   1.000  C
  N61      1.0000 0.25970  0.12232  0.69000  Biso   1.000  N
  C369     1.0000 0.34726  0.14731  0.54179  Biso   1.000  C
  C370     1.0000 0.34937  0.14429  0.40397  Biso   1.000  C
  H435     1.0000 0.26569  0.08203  0.31866  Biso   1.000  H
  H436     1.0000 0.28597  0.15441  0.29596  Biso   1.000  H
  H437     1.0000 0.26566  0.08198  0.31866  Biso   1.000  H
  C371     1.0000 0.92354  0.15652  0.76493  Biso   1.000  C
  C372     1.0000 0.92346  0.15652  0.76493  Biso   1.000  C
  C373     1.0000 0.96676  0.15739  0.96928  Biso   1.000  C
  C374     1.0000 0.01517  0.16132  0.17419  Biso   1.000  C
  C375     1.0000 0.23298  0.07651  0.76493  Biso   1.000  C
  C376     1.0000 0.21516  0.14223  0.92425  Biso   1.000  C
  C377     1.0000 0.21505  0.14218  0.92425  Biso   1.000  C
  C378     1.0000 0.19292  0.20401  0.08094  Biso   1.000  C
  H438     1.0000 0.86961  0.24181  0.57916  Biso   1.000  H
  H439     1.0000 0.80902  0.17240  0.56941  Biso   1.000  H
  H440     1.0000 0.80894  0.17240  0.56941  Biso   1.000  H
  H441     1.0000 0.81399  0.19423  0.37152  Biso   1.000  H
  H442     1.0000 0.88628  0.24881  0.37964  Biso   1.000  H
  H443     1.0000 0.81397  0.19418  0.37152  Biso   1.000  H
  H444     1.0000 0.37222  0.13043  0.57916  Biso   1.000  H
  H445     1.0000 0.36338  0.19101  0.56941  Biso   1.000  H
  H446     1.0000 0.37219  0.13038  0.57916  Biso   1.000  H
  H447     1.0000 0.38024  0.18602  0.37152  Biso   1.000  H
  H448     1.0000 0.36252  0.11369  0.37964  Biso   1.000  H
  H449     1.0000 0.38020  0.18602  0.37152  Biso   1.000  H
  H450     1.0000 0.36244  0.11369  0.37964  Biso   1.000  H
  H451     1.0000 0.96381  0.18952  0.74232  Biso   1.000  H
  H452     1.0000 0.96374  0.18948  0.74232  Biso   1.000  H
  H453     1.0000 0.00433  0.19423  0.94549  Biso   1.000  H
  H454     1.0000 0.00431  0.19418  0.94549  Biso   1.000  H
  N62      1.0000 0.06233  0.21758  0.16644  Biso   1.000  N
  H455     1.0000 0.01375  0.13662  0.24073  Biso   1.000  H
  N63      1.0000 0.06225  0.21758  0.16644  Biso   1.000  N
  H456     1.0000 0.01370  0.13662  0.24073  Biso   1.000  H
  H457     1.0000 0.22575  0.03622  0.74232  Biso   1.000  H
  H458     1.0000 0.22571  0.03622  0.74232  Biso   1.000  H
  H459     1.0000 0.23057  0.17672  0.87057  Biso   1.000  H
  N64      1.0000 0.18467  0.21168  0.19123  Biso   1.000  N
  H460     1.0000 0.19825  0.23528  0.02470  Biso   1.000  H
  C379     1.0000 0.10701  0.23591  0.27008  Biso   1.000  C
  C380     1.0000 0.17446  0.26339  0.22951  Biso   1.000  C
  H461     1.0000 0.09521  0.19801  0.32048  Biso   1.000  H
  C381     1.0000 0.10803  0.28771  0.34828  Biso   1.000  C
  H462     1.0000 0.09516  0.19801  0.32048  Biso   1.000  H
  C382     1.0000 0.10794  0.28771  0.34828  Biso   1.000  C
  H463     1.0000 0.18371  0.29361  0.16234  Biso   1.000  H
  C383     1.0000 0.21360  0.29879  0.34318  Biso   1.000  C
  C384     1.0000 0.16701  0.30690  0.42558  Biso   1.000  C
  H464     1.0000 0.06972  0.27150  0.39787  Biso   1.000  H
  H465     1.0000 0.11258  0.32340  0.29943  Biso   1.000  H
  H466     1.0000 0.06964  0.27150  0.39787  Biso   1.000  H
  H467     1.0000 0.24958  0.34019  0.32121  Biso   1.000  H
  H468     1.0000 0.22973  0.27390  0.38383  Biso   1.000  H
  H469     1.0000 0.22965  0.27390  0.38383  Biso   1.000  H
  H470     1.0000 0.15622  0.27941  0.49658  Biso   1.000  H
  H471     1.0000 0.18563  0.35103  0.45237  Biso   1.000  H
  H472     1.0000 0.18561  0.35098  0.45237  Biso   1.000  H
  C385     1.0000 0.61699  0.69288  0.58573  Biso   1.000  C
  C386     1.0000 0.55018  0.67158  0.53414  Biso   1.000  C
  C387     1.0000 0.61001  0.63388  0.64561  Biso   1.000  C
  H473     1.0000 0.64872  0.70732  0.52110  Biso   1.000  H
  H474     1.0000 0.62951  0.72722  0.64443  Biso   1.000  H
  C388     1.0000 0.53251  0.60500  0.48519  Biso   1.000  C
  N65      1.0000 0.55030  0.71211  0.43478  Biso   1.000  N
  H475     1.0000 0.52071  0.66822  0.59903  Biso   1.000  H
  C389     1.0000 0.55290  0.57790  0.58983  Biso   1.000  C
  H476     1.0000 0.64809  0.63071  0.63230  Biso   1.000  H
  H477     1.0000 0.60379  0.63532  0.73266  Biso   1.000  H
  N66      1.0000 0.46369  0.56888  0.46195  Biso   1.000  N
  H478     1.0000 0.55678  0.60860  0.41117  Biso   1.000  H
  C390     1.0000 0.51571  0.73682  0.44800  Biso   1.000  C
  H479     1.0000 0.51857  0.55728  0.64898  Biso   1.000  H
  H480     1.0000 0.56402  0.54672  0.56011  Biso   1.000  H
  C391     1.0000 0.44721  0.55579  0.35147  Biso   1.000  C
  C392     1.0000 0.51159  0.78018  0.35749  Biso   1.000  C
  H481     1.0000 0.49119  0.72741  0.51864  Biso   1.000  H
  C393     1.0000 0.38001  0.52432  0.31164  Biso   1.000  C
  H482     1.0000 0.47898  0.56649  0.29314  Biso   1.000  H
  C394     1.0000 0.48142  0.81371  0.39349  Biso   1.000  C
  C395     1.0000 0.53870  0.78919  0.24091  Biso   1.000  C
  C396     1.0000 0.36101  0.49861  0.19752  Biso   1.000  C
  C397     1.0000 0.33229  0.51862  0.39349  Biso   1.000  C
  C398     1.0000 0.47569  0.85568  0.31164  Biso   1.000  C
  H483     1.0000 0.46489  0.80848  0.47197  Biso   1.000  H
  C399     1.0000 0.53180  0.83040  0.16024  Biso   1.000  C
  H484     1.0000 0.56069  0.76828  0.21766  Biso   1.000  H
  C400     1.0000 0.29861  0.46820  0.16024  Biso   1.000  C
  H485     1.0000 0.39222  0.50221  0.14283  Biso   1.000  H
  C401     1.0000 0.26858  0.48840  0.35749  Biso   1.000  C
  H486     1.0000 0.34362  0.53512  0.47197  Biso   1.000  H
  C402     1.0000 0.50140  0.86239  0.19752  Biso   1.000  C
  C403     1.0000 0.44421  0.89141  0.35147  Biso   1.000  C
  C404     1.0000 0.56111  0.83999  0.03792  Biso   1.000  C
  C405     1.0000 0.27889  0.43889  0.03792  Biso   1.000  C
  C406     1.0000 0.25050  0.46130  0.24091  Biso   1.000  C
  C407     1.0000 0.22110  0.48432  0.44800  Biso   1.000  C
  H487     1.0000 0.49781  0.89002  0.14283  Biso   1.000  H
  N67      1.0000 0.43112  0.89482  0.46195  Biso   1.000  N
  H488     1.0000 0.43349  0.91252  0.29314  Biso   1.000  H
  N68      1.0000 0.56261  0.88311  0.96782  Biso   1.000  N
  H489     1.0000 0.57822  0.81481  0.01221  Biso   1.000  H
  H490     1.0000 0.23662  0.42182  0.01221  Biso   1.000  H
  N69      1.0000 0.32052  0.43741  0.96782  Biso   1.000  N
  H491     1.0000 0.20759  0.43928  0.21766  Biso   1.000  H
  N70      1.0000 0.16179  0.44969  0.43478  Biso   1.000  N
  H492     1.0000 0.23620  0.50878  0.51864  Biso   1.000  H
  C408     1.0000 0.39499  0.92748  0.48519  Biso   1.000  C
  C409     1.0000 0.59109  0.88791  0.84650  Biso   1.000  C
  C410     1.0000 0.29680  0.40892  0.84650  Biso   1.000  C
  C411     1.0000 0.12137  0.44978  0.53414  Biso   1.000  C
  C412     1.0000 0.32839  0.87860  0.53414  Biso   1.000  C
  H493     1.0000 0.39140  0.94820  0.41117  Biso   1.000  H
  C413     1.0000 0.42212  0.97502  0.58983  Biso   1.000  C
  C414     1.0000 0.54119  0.87851  0.74724  Biso   1.000  C
  H494     1.0000 0.60632  0.85721  0.83712  Biso   1.000  H
  C415     1.0000 0.64393  0.95612  0.82116  Biso   1.000  C
  C416     1.0000 0.33728  0.45880  0.74724  Biso   1.000  C
  H495     1.0000 0.25090  0.39371  0.83712  Biso   1.000  H
  C417     1.0000 0.31219  0.35610  0.82116  Biso   1.000  C
  H496     1.0000 0.14750  0.47928  0.59903  Biso   1.000  H
  C418     1.0000 0.07590  0.38301  0.58573  Biso   1.000  C
  C419     1.0000 0.07248  0.46748  0.48519  Biso   1.000  C
  N71      1.0000 0.28792  0.83822  0.43478  Biso   1.000  N
  H497     1.0000 0.33179  0.85251  0.59903  Biso   1.000  H
  C420     1.0000 0.30709  0.92408  0.58573  Biso   1.000  C
  H498     1.0000 0.44268  0.96130  0.64898  Biso   1.000  H
  C421     1.0000 0.36610  0.97612  0.64561  Biso   1.000  C
  H499     1.0000 0.45326  0.01728  0.56011  Biso   1.000  H
  N72      1.0000 0.49291  0.81160  0.73548  Biso   1.000  N
  H500     1.0000 0.52062  0.90340  0.76885  Biso   1.000  H
  C422     1.0000 0.58452  0.90892  0.63677  Biso   1.000  C
  C423     1.0000 0.64601  0.96360  0.68271  Biso   1.000  C
  H501     1.0000 0.68470  0.96298  0.85170  Biso   1.000  H
  H502     1.0000 0.63440  0.98658  0.85990  Biso   1.000  H
  N73      1.0000 0.31869  0.50710  0.73548  Biso   1.000  N
  H503     1.0000 0.38280  0.47938  0.76885  Biso   1.000  H
  C424     1.0000 0.32439  0.41549  0.63677  Biso   1.000  C
  H504     1.0000 0.27828  0.31528  0.85170  Biso   1.000  H
  H505     1.0000 0.35220  0.36560  0.85990  Biso   1.000  H
  C425     1.0000 0.31761  0.35399  0.68271  Biso   1.000  C
  H506     1.0000 0.05859  0.35131  0.52110  Biso   1.000  H
  H507     1.0000 0.09768  0.37049  0.64443  Biso   1.000  H
  C426     1.0000 0.02390  0.39002  0.64561  Biso   1.000  C
  N74      1.0000 0.10519  0.53631  0.46195  Biso   1.000  N
  H508     1.0000 0.05179  0.44321  0.41117  Biso   1.000  H
  C427     1.0000 0.02499  0.44710  0.58983  Biso   1.000  C
  C428     1.0000 0.26320  0.77888  0.44800  Biso   1.000  C
  H509     1.0000 0.29270  0.94139  0.52110  Biso   1.000  H
  H510     1.0000 0.27282  0.90230  0.64443  Biso   1.000  H
  H511     1.0000 0.36469  0.96849  0.73266  Biso   1.000  H
  H512     1.0000 0.36926  0.01742  0.63230  Biso   1.000  H
  C429     1.0000 0.43461  0.79462  0.74870  Biso   1.000  C
  H513     1.0000 0.59229  0.87760  0.59603  Biso   1.000  H
  H514     1.0000 0.56439  0.92398  0.57944  Biso   1.000  H
  H515     1.0000 0.68231  0.96192  0.64889  Biso   1.000  H
  H516     1.0000 0.64939  0.00418  0.66029  Biso   1.000  H
  C430     1.0000 0.36000  0.56538  0.74870  Biso   1.000  C
  H517     1.0000 0.28532  0.40772  0.59603  Biso   1.000  H
  H518     1.0000 0.35961  0.43558  0.57944  Biso   1.000  H
  H519     1.0000 0.35479  0.35059  0.66029  Biso   1.000  H
  H520     1.0000 0.27960  0.31768  0.64889  Biso   1.000  H
  H521     1.0000 0.03148  0.39620  0.73266  Biso   1.000  H
  H522     1.0000 0.98257  0.35188  0.63230  Biso   1.000  H
  C431     1.0000 0.10863  0.55282  0.35147  Biso   1.000  C
  H523     1.0000 0.03869  0.48139  0.64898  Biso   1.000  H
  H524     1.0000 0.98272  0.43602  0.56011  Biso   1.000  H
  C432     1.0000 0.21981  0.73140  0.35749  Biso   1.000  C
  H525     1.0000 0.27262  0.76382  0.51864  Biso   1.000  H
  C433     1.0000 0.38341  0.72852  0.74469  Biso   1.000  C
  H526     1.0000 0.42381  0.82618  0.76164  Biso   1.000  H
  C434     1.0000 0.34511  0.61661  0.74469  Biso   1.000  C
  H527     1.0000 0.40243  0.57622  0.76164  Biso   1.000  H
  C435     1.0000 0.14430  0.62002  0.31164  Biso   1.000  C
  H528     1.0000 0.08749  0.52101  0.29314  Biso   1.000  H
  C436     1.0000 0.18630  0.66770  0.39349  Biso   1.000  C
  C437     1.0000 0.21078  0.74948  0.24091  Biso   1.000  C
  C438     1.0000 0.39541  0.67758  0.74496  Biso   1.000  C
  C439     1.0000 0.32240  0.71782  0.74496  Biso   1.000  C
  C440     1.0000 0.28220  0.60462  0.74496  Biso   1.000  C
  C441     1.0000 0.13760  0.63901  0.19752  Biso   1.000  C
  H529     1.0000 0.19150  0.65642  0.47197  Biso   1.000  H
  C442     1.0000 0.16959  0.70142  0.16024  Biso   1.000  C
  H530     1.0000 0.23170  0.79241  0.21766  Biso   1.000  H
  H531     1.0000 0.43732  0.68530  0.74542  Biso   1.000  H
  C443     1.0000 0.27149  0.65489  0.74469  Biso   1.000  C
  H532     1.0000 0.31470  0.75202  0.74542  Biso   1.000  H
  H533     1.0000 0.24799  0.56270  0.74542  Biso   1.000  H
  H534     1.0000 0.10998  0.60779  0.14283  Biso   1.000  H
  C444     1.0000 0.15998  0.72108  0.03792  Biso   1.000  C
  C445     1.0000 0.20540  0.64002  0.74870  Biso   1.000  C
  N75      1.0000 0.11688  0.67950  0.96782  Biso   1.000  N
  H535     1.0000 0.18521  0.76339  0.01221  Biso   1.000  H
  N76      1.0000 0.18841  0.68132  0.73548  Biso   1.000  N
  H536     1.0000 0.17381  0.59762  0.76164  Biso   1.000  H
  C446     1.0000 0.11212  0.70319  0.84650  Biso   1.000  C
  C447     1.0000 0.12149  0.66271  0.74724  Biso   1.000  C
  H537     1.0000 0.14279  0.74909  0.83712  Biso   1.000  H
  C448     1.0000 0.04389  0.68779  0.82116  Biso   1.000  C
  H538     1.0000 0.09661  0.61719  0.76885  Biso   1.000  H
  C449     1.0000 0.09110  0.67561  0.63677  Biso   1.000  C
  C450     1.0000 0.03643  0.68242  0.68271  Biso   1.000  C
  H539     1.0000 0.03700  0.72171  0.85170  Biso   1.000  H
  H540     1.0000 0.01338  0.64779  0.85990  Biso   1.000  H
  H541     1.0000 0.12240  0.71470  0.59603  Biso   1.000  H
  H542     1.0000 0.07599  0.64040  0.57944  Biso   1.000  H
  H543     1.0000 0.99580  0.64520  0.66029  Biso   1.000  H
  H544     1.0000 0.03810  0.72041  0.64889  Biso   1.000  H
  C451     1.0000 0.75489  0.64242  0.08659  Biso   1.000  C
  C452     1.0000 0.72669  0.59292  0.98286  Biso   1.000  C
  C453     1.0000 0.70138  0.65570  0.12260  Biso   1.000  C
  H545     1.0000 0.76701  0.62520  0.15514  Biso   1.000  H
  H546     1.0000 0.79241  0.68132  0.05888  Biso   1.000  H
  C454     1.0000 0.65851  0.55152  0.02880  Biso   1.000  C
  N77      1.0000 0.75991  0.55891  0.96062  Biso   1.000  N
  H547     1.0000 0.72590  0.61460  0.90776  Biso   1.000  H
  C455     1.0000 0.63990  0.60021  0.07310  Biso   1.000  C
  H548     1.0000 0.69901  0.65810  0.21056  Biso   1.000  H
  H549     1.0000 0.70880  0.69580  0.08759  Biso   1.000  H
  N78      1.0000 0.61740  0.50960  0.93410  Biso   1.000  N
  H550     1.0000 0.65862  0.52581  0.09789  Biso   1.000  H
  C456     1.0000 0.78098  0.55819  0.85380  Biso   1.000  C
  H551     1.0000 0.62330  0.61412  0.00647  Biso   1.000  H
  H552     1.0000 0.60751  0.58169  0.13636  Biso   1.000  H
  C457     1.0000 0.59229  0.45132  0.95269  Biso   1.000  C
  C458     1.0000 0.81278  0.52308  0.81998  Biso   1.000  C
  H553     1.0000 0.77551  0.58222  0.79346  Biso   1.000  H
  C459     1.0000 0.54960  0.40148  0.86401  Biso   1.000  C
  H554     1.0000 0.60057  0.43789  0.02652  Biso   1.000  H
  C460     1.0000 0.83881  0.53152  0.70349  Biso   1.000  C
  C461     1.0000 0.81950  0.48178  0.89828  Biso   1.000  C
  C462     1.0000 0.54001  0.41769  0.74578  Biso   1.000  C
  C463     1.0000 0.51820  0.33769  0.89828  Biso   1.000  C
  C464     1.0000 0.87123  0.50082  0.66639  Biso   1.000  C
  H555     1.0000 0.83399  0.55852  0.64926  Biso   1.000  H
  H556     1.0000 0.80170  0.47492  0.97603  Biso   1.000  H
  C465     1.0000 0.85192  0.45041  0.86401  Biso   1.000  C
  C466     1.0000 0.49920  0.37040  0.66639  Biso   1.000  C
  H557     1.0000 0.56119  0.46038  0.72117  Biso   1.000  H
  C467     1.0000 0.47689  0.28972  0.81998  Biso   1.000  C
  H558     1.0000 0.52509  0.32680  0.97603  Biso   1.000  H
  C468     1.0000 0.89788  0.50960  0.54106  Biso   1.000  C
  C469     1.0000 0.87770  0.46000  0.74578  Biso   1.000  C
  C470     1.0000 0.85899  0.40772  0.95269  Biso   1.000  C
  C471     1.0000 0.49041  0.38829  0.54106  Biso   1.000  C
  C472     1.0000 0.46850  0.30732  0.70349  Biso   1.000  C
  C473     1.0000 0.44181  0.22280  0.85380  Biso   1.000  C
  N79      1.0000 0.89617  0.54888  0.46869  Biso   1.000  N
  H559     1.0000 0.91609  0.48528  0.51600  Biso   1.000  H
  H560     1.0000 0.89921  0.43880  0.72117  Biso   1.000  H
  N80      1.0000 0.89220  0.38258  0.93410  Biso   1.000  N
  H561     1.0000 0.83731  0.39942  0.02652  Biso   1.000  H
  N81      1.0000 0.45109  0.34728  0.46869  Biso   1.000  N
  H562     1.0000 0.51469  0.43079  0.51600  Biso   1.000  H
  H563     1.0000 0.44150  0.27552  0.64926  Biso   1.000  H
  N82      1.0000 0.44108  0.20098  0.96062  Biso   1.000  N
  H564     1.0000 0.41780  0.19331  0.79346  Biso   1.000  H
  C474     1.0000 0.92382  0.55440  0.34646  Biso   1.000  C
  C475     1.0000 0.89302  0.34152  0.02880  Biso   1.000  C
  C476     1.0000 0.44561  0.36939  0.34646  Biso   1.000  C
  C477     1.0000 0.40710  0.13378  0.98286  Biso   1.000  C
  C478     1.0000 0.87652  0.54562  0.24774  Biso   1.000  C
  H565     1.0000 0.93801  0.52288  0.33689  Biso   1.000  H
  C479     1.0000 0.98088  0.62299  0.32531  Biso   1.000  C
  C480     1.0000 0.86619  0.27331  0.98286  Biso   1.000  C
  C481     1.0000 0.96029  0.36009  0.07310  Biso   1.000  C
  H566     1.0000 0.86720  0.34138  0.09789  Biso   1.000  H
  C482     1.0000 0.37700  0.35788  0.32531  Biso   1.000  C
  C483     1.0000 0.45442  0.33092  0.24774  Biso   1.000  C
  H567     1.0000 0.47711  0.41510  0.33689  Biso   1.000  H
  H568     1.0000 0.38539  0.11128  0.90776  Biso   1.000  H
  C484     1.0000 0.35757  0.11248  0.08659  Biso   1.000  C
  C485     1.0000 0.44851  0.10701  0.02880  Biso   1.000  C
  N83      1.0000 0.82838  0.47818  0.23216  Biso   1.000  N
  H569     1.0000 0.85579  0.57071  0.26670  Biso   1.000  H
  C486     1.0000 0.92130  0.57478  0.13827  Biso   1.000  C
  C487     1.0000 0.97839  0.63489  0.19014  Biso   1.000  C
  H570     1.0000 0.97613  0.65412  0.37362  Biso   1.000  H
  H571     1.0000 0.02121  0.62539  0.34646  Biso   1.000  H
  N84      1.0000 0.79900  0.24012  0.96062  Biso   1.000  N
  H572     1.0000 0.88867  0.27408  0.90776  Biso   1.000  H
  C488     1.0000 0.88752  0.24511  0.08659  Biso   1.000  C
  C489     1.0000 0.95431  0.29859  0.12260  Biso   1.000  C
  H573     1.0000 0.99078  0.37668  0.00647  Biso   1.000  H
  H574     1.0000 0.97422  0.39251  0.13636  Biso   1.000  H
  C490     1.0000 0.36511  0.34349  0.19014  Biso   1.000  C
  H575     1.0000 0.34590  0.32200  0.37362  Biso   1.000  H
  H576     1.0000 0.37462  0.39582  0.34646  Biso   1.000  H
  C491     1.0000 0.42520  0.34651  0.13827  Biso   1.000  C
  N85      1.0000 0.52180  0.35020  0.23216  Biso   1.000  N
  H577     1.0000 0.42931  0.28511  0.26670  Biso   1.000  H
  H578     1.0000 0.37480  0.14179  0.15514  Biso   1.000  H
  H579     1.0000 0.31870  0.11109  0.05888  Biso   1.000  H
  C492     1.0000 0.34430  0.04571  0.12260  Biso   1.000  C
  N86      1.0000 0.49040  0.10778  0.93410  Biso   1.000  N
  C493     1.0000 0.39983  0.03972  0.07310  Biso   1.000  C
  H580     1.0000 0.47421  0.13282  0.09789  Biso   1.000  H
  C494     1.0000 0.77132  0.46350  0.24100  Biso   1.000  C
  H581     1.0000 0.93439  0.54548  0.10646  Biso   1.000  H
  H582     1.0000 0.90068  0.58548  0.07383  Biso   1.000  H
  H583     1.0000 0.97310  0.67192  0.17747  Biso   1.000  H
  H584     1.0000 0.01770  0.64280  0.15040  Biso   1.000  H
  C495     1.0000 0.77723  0.21902  0.85380  Biso   1.000  C
  H585     1.0000 0.85821  0.23302  0.15514  Biso   1.000  H
  H586     1.0000 0.88891  0.20760  0.05888  Biso   1.000  H
  H587     1.0000 0.95908  0.30099  0.21056  Biso   1.000  H
  H588     1.0000 0.98700  0.29121  0.08759  Biso   1.000  H
  H589     1.0000 0.35719  0.37491  0.15040  Biso   1.000  H
  H590     1.0000 0.32809  0.30118  0.17747  Biso   1.000  H
  H591     1.0000 0.45450  0.38891  0.10646  Biso   1.000  H
  H592     1.0000 0.41448  0.31519  0.07383  Biso   1.000  H
  C496     1.0000 0.53649  0.30780  0.24100  Biso   1.000  C
  H593     1.0000 0.34190  0.04092  0.21056  Biso   1.000  H
  H594     1.0000 0.30422  0.01300  0.08759  Biso   1.000  H
  C497     1.0000 0.54872  0.14102  0.95269  Biso   1.000  C
  H595     1.0000 0.38590  0.00921  0.00647  Biso   1.000  H
  H596     1.0000 0.41829  0.02581  0.13636  Biso   1.000  H
  C498     1.0000 0.71721  0.39558  0.23398  Biso   1.000  C
  H597     1.0000 0.76171  0.49612  0.25239  Biso   1.000  H
  C499     1.0000 0.71031  0.18721  0.81998  Biso   1.000  C
  H598     1.0000 0.80667  0.22448  0.79346  Biso   1.000  H
  C500     1.0000 0.60442  0.32162  0.23398  Biso   1.000  C
  H599     1.0000 0.50388  0.26559  0.25239  Biso   1.000  H
  C501     1.0000 0.59851  0.14812  0.86401  Biso   1.000  C
  H600     1.0000 0.56210  0.16270  0.02652  Biso   1.000  H
  C502     1.0000 0.65491  0.38340  0.23608  Biso   1.000  C
  C503     1.0000 0.72849  0.34512  0.23608  Biso   1.000  C
  C504     1.0000 0.66230  0.18050  0.89828  Biso   1.000  C
  C505     1.0000 0.69270  0.16122  0.70349  Biso   1.000  C
  C506     1.0000 0.61662  0.27149  0.23608  Biso   1.000  C
  C507     1.0000 0.58232  0.12231  0.74578  Biso   1.000  C
  H601     1.0000 0.64691  0.41741  0.23899  Biso   1.000  H
  C508     1.0000 0.67840  0.28281  0.23398  Biso   1.000  C
  H602     1.0000 0.77048  0.35308  0.23899  Biso   1.000  H
  H603     1.0000 0.67319  0.19829  0.97603  Biso   1.000  H
  C509     1.0000 0.62959  0.12879  0.66639  Biso   1.000  C
  H604     1.0000 0.72451  0.16601  0.64926  Biso   1.000  H
  H605     1.0000 0.58263  0.22952  0.23899  Biso   1.000  H
  H606     1.0000 0.53961  0.10078  0.72117  Biso   1.000  H
  C510     1.0000 0.69222  0.22870  0.24100  Biso   1.000  C
  C511     1.0000 0.61173  0.10212  0.54106  Biso   1.000  C
  N87      1.0000 0.64978  0.17158  0.23216  Biso   1.000  N
  H607     1.0000 0.73440  0.23830  0.25239  Biso   1.000  H
  N88      1.0000 0.65270  0.10380  0.46869  Biso   1.000  N
  H608     1.0000 0.56918  0.08389  0.51600  Biso   1.000  H
  C512     1.0000 0.66912  0.12351  0.24774  Biso   1.000  C
  C513     1.0000 0.63060  0.07622  0.34646  Biso   1.000  C
  H609     1.0000 0.71489  0.14419  0.26670  Biso   1.000  H
  C514     1.0000 0.65349  0.07871  0.13827  Biso   1.000  C
  H610     1.0000 0.58491  0.06202  0.33689  Biso   1.000  H
  C515     1.0000 0.64208  0.01909  0.32531  Biso   1.000  C
  C516     1.0000 0.65650  0.02158  0.19014  Biso   1.000  C
  H611     1.0000 0.61109  0.06562  0.10646  Biso   1.000  H
  H612     1.0000 0.68480  0.09929  0.07383  Biso   1.000  H
  H613     1.0000 0.67800  0.02389  0.37362  Biso   1.000  H
  H614     1.0000 0.60420  0.97880  0.34646  Biso   1.000  H
  H615     1.0000 0.69879  0.02691  0.17747  Biso   1.000  H
  H616     1.0000 0.62510  0.98230  0.15040  Biso   1.000  H
