data_image0
_cell_length_a       22.67
_cell_length_b       19.221
_cell_length_c       25.602
_cell_angle_alpha    90
_cell_angle_beta     116.11
_cell_angle_gamma    90

_symmetry_space_group_name_H-M    "P 1"
_symmetry_int_tables_number       1

loop_
  _symmetry_equiv_pos_as_xyz
  'x, y, z'

loop_
  _atom_site_label
  _atom_site_occupancy
  _atom_site_fract_x
  _atom_site_fract_y
  _atom_site_fract_z
  _atom_site_thermal_displace_type
  _atom_site_B_iso_or_equiv
  _atom_site_type_symbol
  C1       1.0000 0.53597  0.65522  0.46848  Biso   1.000  C
  C2       1.0000 0.46367  0.66469  0.43359  Biso   1.000  C
  H1       1.0000 0.54869  0.67130  0.50880  Biso   1.000  H
  H2       1.0000 0.54634  0.60502  0.47017  Biso   1.000  H
  N1       1.0000 0.57479  0.69289  0.44468  Biso   1.000  N
  N2       1.0000 0.43436  0.61792  0.38279  Biso   1.000  N
  H3       1.0000 0.44176  0.65663  0.45908  Biso   1.000  H
  H4       1.0000 0.45496  0.71349  0.41989  Biso   1.000  H
  C3       1.0000 0.58608  0.76588  0.46661  Biso   1.000  C
  C4       1.0000 0.63745  0.65938  0.45930  Biso   1.000  C
  C5       1.0000 0.36235  0.62442  0.35008  Biso   1.000  C
  H5       1.0000 0.45307  0.62707  0.35821  Biso   1.000  H
  H6       1.0000 0.44447  0.57271  0.39540  Biso   1.000  H
  C6       1.0000 0.58876  0.81671  0.42381  Biso   1.000  C
  H7       1.0000 0.55025  0.77962  0.47679  Biso   1.000  H
  H8       1.0000 0.62787  0.76812  0.50258  Biso   1.000  H
  C7       1.0000 0.63217  0.59940  0.41928  Biso   1.000  C
  H9       1.0000 0.65569  0.64221  0.49980  Biso   1.000  H
  H10      1.0000 0.66855  0.69419  0.45708  Biso   1.000  H
  C8       1.0000 0.33548  0.57109  0.30401  Biso   1.000  C
  H11      1.0000 0.35117  0.67130  0.33237  Biso   1.000  H
  H12      1.0000 0.34198  0.61922  0.37709  Biso   1.000  H
  N3       1.0000 0.52236  0.83149  0.37870  Biso   1.000  N
  H13      1.0000 0.60969  0.86041  0.44399  Biso   1.000  H
  H14      1.0000 0.61578  0.79741  0.40558  Biso   1.000  H
  H15      1.0000 0.66966  0.56740  0.43907  Biso   1.000  H
  H16      1.0000 0.59119  0.57318  0.41041  Biso   1.000  H
  N4       1.0000 0.63177  0.62489  0.36399  Biso   1.000  N
  C9       1.0000 0.31768  0.50419  0.30210  Biso   1.000  C
  O1       1.0000 0.32718  0.59118  0.24968  Biso   1.000  O
  C10      1.0000 0.51798  0.89210  0.34007  Biso   1.000  C
  H17      1.0000 0.49556  0.84002  0.39640  Biso   1.000  H
  H18      1.0000 0.50666  0.79252  0.35590  Biso   1.000  H
  C11      1.0000 0.63456  0.56740  0.32550  Biso   1.000  C
  H19      1.0000 0.66717  0.65392  0.37291  Biso   1.000  H
  H20      1.0000 0.59430  0.65059  0.34390  Biso   1.000  H
  C12      1.0000 0.30018  0.47890  0.24568  Biso   1.000  C
  H21      1.0000 0.31697  0.47838  0.33350  Biso   1.000  H
  C13      1.0000 0.30466  0.53390  0.21458  Biso   1.000  C
  C14      1.0000 0.45089  0.90370  0.29657  Biso   1.000  C
  H22      1.0000 0.53431  0.93450  0.36421  Biso   1.000  H
  H23      1.0000 0.54628  0.88330  0.32050  Biso   1.000  H
  C15      1.0000 0.63677  0.59627  0.27421  Biso   1.000  C
  H24      1.0000 0.67409  0.53853  0.34707  Biso   1.000  H
  H25      1.0000 0.59540  0.53728  0.31388  Biso   1.000  H
  H26      1.0000 0.28770  0.43270  0.23211  Biso   1.000  H
  C16      1.0000 0.29518  0.54362  0.15468  Biso   1.000  C
  O2       1.0000 0.43359  0.87082  0.24411  Biso   1.000  O
  C17      1.0000 0.39807  0.93622  0.29601  Biso   1.000  C
  O3       1.0000 0.57730  0.60132  0.22528  Biso   1.000  O
  C18      1.0000 0.68417  0.62322  0.26377  Biso   1.000  C
  N5       1.0000 0.35871  0.56163  0.15220  Biso   1.000  N
  H27      1.0000 0.26288  0.58129  0.13619  Biso   1.000  H
  H28      1.0000 0.27710  0.50029  0.13241  Biso   1.000  H
  C19      1.0000 0.36837  0.88559  0.21088  Biso   1.000  C
  C20      1.0000 0.34500  0.92560  0.24081  Biso   1.000  C
  H29      1.0000 0.39676  0.96181  0.32728  Biso   1.000  H
  C21      1.0000 0.59018  0.63358  0.18339  Biso   1.000  C
  C22      1.0000 0.65469  0.64898  0.20510  Biso   1.000  C
  H30      1.0000 0.72949  0.62520  0.29018  Biso   1.000  H
  C23      1.0000 0.35491  0.55632  0.09361  Biso   1.000  C
  H31      1.0000 0.37039  0.60632  0.16569  Biso   1.000  H
  H32      1.0000 0.39108  0.53228  0.17669  Biso   1.000  H
  C24      1.0000 0.33468  0.85349  0.15338  Biso   1.000  C
  H33      1.0000 0.30160  0.94298  0.22750  Biso   1.000  H
  C25      1.0000 0.53378  0.64960  0.12849  Biso   1.000  C
  H34      1.0000 0.67617  0.67218  0.18548  Biso   1.000  H
  C26      1.0000 0.31539  0.61469  0.05342  Biso   1.000  C
  H35      1.0000 0.33461  0.51121  0.07621  Biso   1.000  H
  H36      1.0000 0.39998  0.55699  0.09661  Biso   1.000  H
  N6       1.0000 0.32180  0.77759  0.15729  Biso   1.000  N
  H37      1.0000 0.36200  0.85901  0.13228  Biso   1.000  H
  H38      1.0000 0.29249  0.87769  0.13080  Biso   1.000  H
  N7       1.0000 0.49571  0.70969  0.13480  Biso   1.000  N
  H39      1.0000 0.50480  0.60829  0.11510  Biso   1.000  H
  H40      1.0000 0.54910  0.66068  0.09878  Biso   1.000  H
  N8       1.0000 0.34798  0.68342  0.07151  Biso   1.000  N
  H41      1.0000 0.30900  0.60439  0.01340  Biso   1.000  H
  H42      1.0000 0.27159  0.61683  0.05298  Biso   1.000  H
  C27      1.0000 0.27248  0.74798  0.10031  Biso   1.000  C
  H43      1.0000 0.30659  0.77150  0.18491  Biso   1.000  H
  H44      1.0000 0.36059  0.75350  0.16930  Biso   1.000  H
  C28      1.0000 0.44831  0.74361  0.07882  Biso   1.000  C
  H45      1.0000 0.52500  0.74289  0.15751  Biso   1.000  H
  H46      1.0000 0.47238  0.69481  0.15451  Biso   1.000  H
  C29      1.0000 0.29860  0.73878  0.05620  Biso   1.000  C
  C30      1.0000 0.39210  0.69382  0.04411  Biso   1.000  C
  H47      1.0000 0.25750  0.70230  0.10770  Biso   1.000  H
  H48      1.0000 0.23390  0.77930  0.08400  Biso   1.000  H
  H49      1.0000 0.47170  0.75641  0.05542  Biso   1.000  H
  H50      1.0000 0.43040  0.78659  0.08752  Biso   1.000  H
  H51      1.0000 0.26162  0.72790  0.01810  Biso   1.000  H
  H52      1.0000 0.31831  0.78321  0.05220  Biso   1.000  H
  H53      1.0000 0.36672  0.71271  0.00439  Biso   1.000  H
  H54      1.0000 0.41060  0.64841  0.04050  Biso   1.000  H
  C31      1.0000 0.46399  0.34478  0.53151  Biso   1.000  C
  N9       1.0000 0.42518  0.30711  0.55530  Biso   1.000  N
  C32      1.0000 0.53625  0.33531  0.56639  Biso   1.000  C
  H55      1.0000 0.45127  0.32870  0.49118  Biso   1.000  H
  H56      1.0000 0.45355  0.39498  0.52977  Biso   1.000  H
  C33      1.0000 0.41384  0.23412  0.53338  Biso   1.000  C
  C34      1.0000 0.36247  0.34062  0.54069  Biso   1.000  C
  N10      1.0000 0.56556  0.38208  0.61720  Biso   1.000  N
  H57      1.0000 0.55816  0.34337  0.54090  Biso   1.000  H
  H58      1.0000 0.54495  0.28651  0.58010  Biso   1.000  H
  C35      1.0000 0.41116  0.18329  0.57618  Biso   1.000  C
  H59      1.0000 0.44967  0.22038  0.52320  Biso   1.000  H
  H60      1.0000 0.37210  0.23188  0.49740  Biso   1.000  H
  C36      1.0000 0.36775  0.40060  0.58070  Biso   1.000  C
  H61      1.0000 0.34428  0.35779  0.50019  Biso   1.000  H
  H62      1.0000 0.33137  0.30581  0.54290  Biso   1.000  H
  C37      1.0000 0.63755  0.37558  0.64987  Biso   1.000  C
  H63      1.0000 0.54685  0.37293  0.64178  Biso   1.000  H
  H64      1.0000 0.55545  0.42729  0.60458  Biso   1.000  H
  N11      1.0000 0.47756  0.16851  0.62129  Biso   1.000  N
  H65      1.0000 0.39028  0.13959  0.55600  Biso   1.000  H
  H66      1.0000 0.38418  0.20259  0.59441  Biso   1.000  H
  H67      1.0000 0.33024  0.43260  0.56087  Biso   1.000  H
  H68      1.0000 0.40878  0.42682  0.58958  Biso   1.000  H
  N12      1.0000 0.36815  0.37511  0.63599  Biso   1.000  N
  C38      1.0000 0.66444  0.42891  0.69597  Biso   1.000  C
  H69      1.0000 0.64873  0.32870  0.66757  Biso   1.000  H
  H70      1.0000 0.65798  0.38078  0.62290  Biso   1.000  H
  C39      1.0000 0.48196  0.10790  0.65987  Biso   1.000  C
  H71      1.0000 0.50436  0.15998  0.60358  Biso   1.000  H
  H72      1.0000 0.49325  0.20748  0.64408  Biso   1.000  H
  C40      1.0000 0.36536  0.43260  0.67449  Biso   1.000  C
  H73      1.0000 0.33275  0.34608  0.62707  Biso   1.000  H
  H74      1.0000 0.40566  0.34941  0.65609  Biso   1.000  H
  C41      1.0000 0.68224  0.49581  0.69789  Biso   1.000  C
  O4       1.0000 0.67276  0.40882  0.75026  Biso   1.000  O
  C42      1.0000 0.54906  0.09630  0.70337  Biso   1.000  C
  H75      1.0000 0.46566  0.06550  0.63577  Biso   1.000  H
  H76      1.0000 0.45364  0.11670  0.67949  Biso   1.000  H
  C43      1.0000 0.36315  0.40373  0.72577  Biso   1.000  C
  H77      1.0000 0.32585  0.46147  0.65287  Biso   1.000  H
  H78      1.0000 0.40457  0.46272  0.68610  Biso   1.000  H
  C44      1.0000 0.69976  0.52110  0.75426  Biso   1.000  C
  H79      1.0000 0.68295  0.52162  0.66648  Biso   1.000  H
  C45      1.0000 0.69523  0.46610  0.78536  Biso   1.000  C
  C46      1.0000 0.60185  0.06378  0.70398  Biso   1.000  C
  O5       1.0000 0.56633  0.12918  0.75587  Biso   1.000  O
  C47      1.0000 0.31573  0.37678  0.73617  Biso   1.000  C
  O6       1.0000 0.42265  0.39868  0.77466  Biso   1.000  O
  H80      1.0000 0.71226  0.56730  0.76788  Biso   1.000  H
  C48      1.0000 0.70476  0.45638  0.84526  Biso   1.000  C
  C49      1.0000 0.65496  0.07440  0.75918  Biso   1.000  C
  H81      1.0000 0.60316  0.03819  0.67270  Biso   1.000  H
  C50      1.0000 0.63152  0.11441  0.78906  Biso   1.000  C
  C51      1.0000 0.34527  0.35102  0.79489  Biso   1.000  C
  H82      1.0000 0.27045  0.37480  0.70976  Biso   1.000  H
  C52      1.0000 0.40974  0.36642  0.81660  Biso   1.000  C
  N13      1.0000 0.64126  0.43837  0.84778  Biso   1.000  N
  H83      1.0000 0.73704  0.41871  0.86379  Biso   1.000  H
  H84      1.0000 0.72286  0.49971  0.86758  Biso   1.000  H
  H85      1.0000 0.69836  0.05702  0.77249  Biso   1.000  H
  C53      1.0000 0.66522  0.14651  0.84657  Biso   1.000  C
  H86      1.0000 0.32372  0.32782  0.81446  Biso   1.000  H
  C54      1.0000 0.46614  0.35040  0.87149  Biso   1.000  C
  C55      1.0000 0.64506  0.44368  0.90638  Biso   1.000  C
  H87      1.0000 0.62957  0.39368  0.83430  Biso   1.000  H
  H88      1.0000 0.60884  0.46772  0.82329  Biso   1.000  H
  N14      1.0000 0.67816  0.22241  0.84270  Biso   1.000  N
  H89      1.0000 0.63795  0.14099  0.86766  Biso   1.000  H
  H90      1.0000 0.70743  0.12231  0.86919  Biso   1.000  H
  N15      1.0000 0.50425  0.29031  0.86518  Biso   1.000  N
  H91      1.0000 0.49516  0.39171  0.88489  Biso   1.000  H
  H92      1.0000 0.45084  0.33932  0.90116  Biso   1.000  H
  C56      1.0000 0.68453  0.38531  0.94657  Biso   1.000  C
  H93      1.0000 0.66535  0.48879  0.92378  Biso   1.000  H
  H94      1.0000 0.59994  0.44301  0.90338  Biso   1.000  H
  C57      1.0000 0.72744  0.25202  0.89968  Biso   1.000  C
  H95      1.0000 0.69333  0.22850  0.81507  Biso   1.000  H
  H96      1.0000 0.63933  0.24650  0.83069  Biso   1.000  H
  C58      1.0000 0.55161  0.25639  0.92117  Biso   1.000  C
  H97      1.0000 0.47497  0.25711  0.84248  Biso   1.000  H
  H98      1.0000 0.52754  0.30519  0.84548  Biso   1.000  H
  N16      1.0000 0.65194  0.31658  0.92847  Biso   1.000  N
  H99      1.0000 0.69092  0.39561  0.98659  Biso   1.000  H
  H100     1.0000 0.72835  0.38317  0.94696  Biso   1.000  H
  C59      1.0000 0.70132  0.26122  0.94379  Biso   1.000  C
  H101     1.0000 0.74246  0.29770  0.89228  Biso   1.000  H
  H102     1.0000 0.76607  0.22070  0.91599  Biso   1.000  H
  C60      1.0000 0.60782  0.30618  0.95588  Biso   1.000  C
  H103     1.0000 0.52822  0.24359  0.94457  Biso   1.000  H
  H104     1.0000 0.56952  0.21341  0.91247  Biso   1.000  H
  H105     1.0000 0.73835  0.27210  0.98189  Biso   1.000  H
  H106     1.0000 0.68165  0.21679  0.94779  Biso   1.000  H
  H107     1.0000 0.63325  0.28729  0.99559  Biso   1.000  H
  H108     1.0000 0.58936  0.35159  0.95949  Biso   1.000  H
  C61      1.0000 0.55169  0.24359  0.42120  Biso   1.000  C
  N17      1.0000 0.50426  0.20972  0.36517  Biso   1.000  N
  C62      1.0000 0.60789  0.19380  0.45591  Biso   1.000  C
  H109     1.0000 0.52829  0.25639  0.44460  Biso   1.000  H
  H110     1.0000 0.56960  0.28661  0.41250  Biso   1.000  H
  C63      1.0000 0.46615  0.14958  0.37148  Biso   1.000  C
  H111     1.0000 0.47500  0.24291  0.34251  Biso   1.000  H
  H112     1.0000 0.52757  0.19479  0.34551  Biso   1.000  H
  N18      1.0000 0.65197  0.18339  0.42850  Biso   1.000  N
  H113     1.0000 0.63325  0.21268  0.49558  Biso   1.000  H
  H114     1.0000 0.58937  0.14838  0.45947  Biso   1.000  H
  C64      1.0000 0.40979  0.13360  0.31658  Biso   1.000  C
  H115     1.0000 0.49517  0.10832  0.38487  Biso   1.000  H
  H116     1.0000 0.45087  0.16071  0.40119  Biso   1.000  H
  C65      1.0000 0.70137  0.23880  0.44377  Biso   1.000  C
  C66      1.0000 0.68456  0.11472  0.44660  Biso   1.000  C
  C67      1.0000 0.34528  0.14900  0.29488  Biso   1.000  C
  O7       1.0000 0.42268  0.10130  0.27469  Biso   1.000  O
  H117     1.0000 0.73835  0.22788  0.48188  Biso   1.000  H
  H118     1.0000 0.68166  0.28318  0.44777  Biso   1.000  H
  C68      1.0000 0.72747  0.24801  0.39971  Biso   1.000  C
  H119     1.0000 0.69097  0.10442  0.48657  Biso   1.000  H
  H120     1.0000 0.72838  0.11680  0.44699  Biso   1.000  H
  C69      1.0000 0.64509  0.05629  0.40641  Biso   1.000  C
  H121     1.0000 0.32380  0.17221  0.31449  Biso   1.000  H
  C70      1.0000 0.31581  0.12320  0.23620  Biso   1.000  C
  C71      1.0000 0.36317  0.09630  0.22580  Biso   1.000  C
  H122     1.0000 0.74247  0.20228  0.39227  Biso   1.000  H
  H123     1.0000 0.76608  0.27928  0.41598  Biso   1.000  H
  N19      1.0000 0.67817  0.27761  0.34268  Biso   1.000  N
  H124     1.0000 0.66538  0.01119  0.42381  Biso   1.000  H
  H125     1.0000 0.59997  0.05702  0.40340  Biso   1.000  H
  N20      1.0000 0.64126  0.06160  0.34777  Biso   1.000  N
  H126     1.0000 0.27048  0.12518  0.20979  Biso   1.000  H
  C72      1.0000 0.36539  0.06737  0.17452  Biso   1.000  C
  H127     1.0000 0.69340  0.27153  0.31510  Biso   1.000  H
  H128     1.0000 0.63938  0.25352  0.33068  Biso   1.000  H
  C73      1.0000 0.66529  0.35352  0.34660  Biso   1.000  C
  H129     1.0000 0.62958  0.10629  0.33429  Biso   1.000  H
  H130     1.0000 0.60889  0.03231  0.32328  Biso   1.000  H
  C74      1.0000 0.70479  0.04360  0.34529  Biso   1.000  C
  H131     1.0000 0.32588  0.03850  0.15290  Biso   1.000  H
  H132     1.0000 0.40457  0.03730  0.18609  Biso   1.000  H
  N21      1.0000 0.36820  0.12492  0.13598  Biso   1.000  N
  H133     1.0000 0.63798  0.35898  0.36769  Biso   1.000  H
  H134     1.0000 0.70748  0.37771  0.36917  Biso   1.000  H
  C75      1.0000 0.63160  0.38562  0.28909  Biso   1.000  C
  H135     1.0000 0.73709  0.08132  0.36378  Biso   1.000  H
  H136     1.0000 0.72289  0.00031  0.36761  Biso   1.000  H
  C76      1.0000 0.69526  0.03392  0.28539  Biso   1.000  C
  C77      1.0000 0.36781  0.09942  0.08069  Biso   1.000  C
  H137     1.0000 0.33278  0.15389  0.12710  Biso   1.000  H
  H138     1.0000 0.40569  0.15062  0.15612  Biso   1.000  H
  C78      1.0000 0.65499  0.42558  0.25921  Biso   1.000  C
  O8       1.0000 0.56640  0.37079  0.25590  Biso   1.000  O
  O9       1.0000 0.67279  0.09120  0.25029  Biso   1.000  O
  C79      1.0000 0.69979  0.97888  0.25429  Biso   1.000  C
  H139     1.0000 0.33031  0.06737  0.06090  Biso   1.000  H
  H140     1.0000 0.40881  0.07320  0.08961  Biso   1.000  H
  C80      1.0000 0.36249  0.15941  0.04071  Biso   1.000  C
  H141     1.0000 0.69837  0.44301  0.27247  Biso   1.000  H
  C81      1.0000 0.60188  0.43619  0.20401  Biso   1.000  C
  C82      1.0000 0.54909  0.40373  0.20340  Biso   1.000  C
  C83      1.0000 0.66451  0.07112  0.19600  Biso   1.000  C
  C84      1.0000 0.68229  0.00421  0.19787  Biso   1.000  C
  H142     1.0000 0.71229  0.93268  0.26791  Biso   1.000  H
  H143     1.0000 0.34431  0.14219  0.00022  Biso   1.000  H
  H144     1.0000 0.33137  0.19421  0.04289  Biso   1.000  H
  N22      1.0000 0.42518  0.19291  0.05529  Biso   1.000  N
  H145     1.0000 0.60316  0.46179  0.17269  Biso   1.000  H
  C85      1.0000 0.48199  0.39212  0.15990  Biso   1.000  C
  C86      1.0000 0.63758  0.12440  0.14990  Biso   1.000  C
  H146     1.0000 0.68298  0.97841  0.16651  Biso   1.000  H
  C87      1.0000 0.41391  0.26591  0.03341  Biso   1.000  C
  C88      1.0000 0.46400  0.15519  0.03149  Biso   1.000  C
  N23      1.0000 0.47759  0.33151  0.12132  Biso   1.000  N
  H147     1.0000 0.46569  0.43452  0.13580  Biso   1.000  H
  H148     1.0000 0.45369  0.38328  0.17947  Biso   1.000  H
  N24      1.0000 0.56557  0.11789  0.11718  Biso   1.000  N
  H149     1.0000 0.64880  0.17132  0.16760  Biso   1.000  H
  H150     1.0000 0.65799  0.11919  0.12288  Biso   1.000  H
  C89      1.0000 0.41119  0.31668  0.07621  Biso   1.000  C
  H151     1.0000 0.44968  0.27959  0.02318  Biso   1.000  H
  H152     1.0000 0.37202  0.26809  0.99739  Biso   1.000  H
  C90      1.0000 0.53630  0.16472  0.06638  Biso   1.000  C
  H153     1.0000 0.45358  0.10499  0.02980  Biso   1.000  H
  H154     1.0000 0.45124  0.17132  0.99117  Biso   1.000  H
  H155     1.0000 0.50439  0.33999  0.10361  Biso   1.000  H
  H156     1.0000 0.49328  0.29249  0.14411  Biso   1.000  H
  H157     1.0000 0.54688  0.12710  0.14180  Biso   1.000  H
  H158     1.0000 0.55548  0.07268  0.10461  Biso   1.000  H
  H159     1.0000 0.39029  0.36039  0.05598  Biso   1.000  H
  H160     1.0000 0.38419  0.29738  0.09439  Biso   1.000  H
  H161     1.0000 0.55821  0.15660  0.04089  Biso   1.000  H
  H162     1.0000 0.54501  0.21352  0.08008  Biso   1.000  H
  C91      1.0000 0.44828  0.75641  0.57879  Biso   1.000  C
  C92      1.0000 0.39207  0.80620  0.54408  Biso   1.000  C
  H163     1.0000 0.47167  0.74361  0.55539  Biso   1.000  H
  H164     1.0000 0.43037  0.71339  0.58749  Biso   1.000  H
  N25      1.0000 0.49564  0.79028  0.63477  Biso   1.000  N
  N26      1.0000 0.34795  0.81661  0.57148  Biso   1.000  N
  H165     1.0000 0.36667  0.78732  0.50441  Biso   1.000  H
  H166     1.0000 0.41057  0.85162  0.54047  Biso   1.000  H
  H167     1.0000 0.52497  0.75709  0.65748  Biso   1.000  H
  H168     1.0000 0.47235  0.80521  0.65448  Biso   1.000  H
  C93      1.0000 0.53375  0.85042  0.62847  Biso   1.000  C
  C94      1.0000 0.29857  0.76120  0.55617  Biso   1.000  C
  C95      1.0000 0.31536  0.88528  0.55339  Biso   1.000  C
  H169     1.0000 0.50477  0.89168  0.61507  Biso   1.000  H
  H170     1.0000 0.54905  0.83929  0.59880  Biso   1.000  H
  C96      1.0000 0.59017  0.86640  0.68340  Biso   1.000  C
  H171     1.0000 0.26155  0.77212  0.51807  Biso   1.000  H
  H172     1.0000 0.31824  0.71682  0.55217  Biso   1.000  H
  C97      1.0000 0.27245  0.75199  0.60028  Biso   1.000  C
  H173     1.0000 0.30897  0.89558  0.51337  Biso   1.000  H
  H174     1.0000 0.27158  0.88320  0.55300  Biso   1.000  H
  C98      1.0000 0.35488  0.94371  0.59358  Biso   1.000  C
  C99      1.0000 0.65466  0.85100  0.70507  Biso   1.000  C
  O10      1.0000 0.57724  0.89870  0.72529  Biso   1.000  O
  H175     1.0000 0.25747  0.79772  0.60767  Biso   1.000  H
  H176     1.0000 0.23387  0.72072  0.58397  Biso   1.000  H
  N27      1.0000 0.32175  0.72239  0.65730  Biso   1.000  N
  H177     1.0000 0.33454  0.98881  0.57618  Biso   1.000  H
  H178     1.0000 0.39995  0.94298  0.59658  Biso   1.000  H
  N28      1.0000 0.35863  0.93840  0.65217  Biso   1.000  N
  H179     1.0000 0.67617  0.82779  0.68549  Biso   1.000  H
  C100     1.0000 0.68416  0.87680  0.76379  Biso   1.000  C
  C101     1.0000 0.63674  0.90370  0.77419  Biso   1.000  C
  H180     1.0000 0.30656  0.72847  0.68488  Biso   1.000  H
  H181     1.0000 0.36056  0.74648  0.66927  Biso   1.000  H
  C102     1.0000 0.33467  0.64648  0.65339  Biso   1.000  C
  H182     1.0000 0.37039  0.89371  0.66570  Biso   1.000  H
  H183     1.0000 0.39105  0.96769  0.67666  Biso   1.000  H
  C103     1.0000 0.29518  0.95640  0.65469  Biso   1.000  C
  H184     1.0000 0.72944  0.87482  0.79019  Biso   1.000  H
  C104     1.0000 0.63453  0.93263  0.82547  Biso   1.000  C
  H185     1.0000 0.36194  0.64102  0.63229  Biso   1.000  H
  H186     1.0000 0.29246  0.62229  0.63077  Biso   1.000  H
  C105     1.0000 0.36837  0.61438  0.71089  Biso   1.000  C
  H187     1.0000 0.26285  0.91868  0.63616  Biso   1.000  H
  H188     1.0000 0.27707  0.99969  0.63238  Biso   1.000  H
  C106     1.0000 0.30466  0.96608  0.71459  Biso   1.000  C
  H189     1.0000 0.67404  0.96150  0.84709  Biso   1.000  H
  H190     1.0000 0.59535  0.96270  0.81390  Biso   1.000  H
  N29      1.0000 0.63174  0.87508  0.86397  Biso   1.000  N
  C107     1.0000 0.34493  0.57442  0.74078  Biso   1.000  C
  O11      1.0000 0.43356  0.62921  0.74408  Biso   1.000  O
  O12      1.0000 0.32718  0.90880  0.74970  Biso   1.000  O
  C108     1.0000 0.30018  0.02112  0.74569  Biso   1.000  C
  C109     1.0000 0.63216  0.90058  0.91930  Biso   1.000  C
  H191     1.0000 0.66714  0.84611  0.87288  Biso   1.000  H
  H192     1.0000 0.59423  0.84938  0.84387  Biso   1.000  H
  H193     1.0000 0.30153  0.55699  0.72747  Biso   1.000  H
  C110     1.0000 0.39804  0.56381  0.79598  Biso   1.000  C
  C111     1.0000 0.45083  0.59627  0.79659  Biso   1.000  C
  C112     1.0000 0.33545  0.92888  0.80398  Biso   1.000  C
  C113     1.0000 0.31765  0.99579  0.80207  Biso   1.000  C
  H194     1.0000 0.28763  0.06732  0.73208  Biso   1.000  H
  H195     1.0000 0.66965  0.93263  0.93909  Biso   1.000  H
  H196     1.0000 0.59116  0.92680  0.91038  Biso   1.000  H
  C114     1.0000 0.63743  0.84059  0.95927  Biso   1.000  C
  H197     1.0000 0.39675  0.53821  0.82730  Biso   1.000  H
  C115     1.0000 0.51793  0.60788  0.84009  Biso   1.000  C
  C116     1.0000 0.36234  0.87560  0.85009  Biso   1.000  C
  H198     1.0000 0.31694  0.02159  0.83347  Biso   1.000  H
  H199     1.0000 0.65561  0.85781  0.99977  Biso   1.000  H
  H200     1.0000 0.66855  0.80579  0.95710  Biso   1.000  H
  N30      1.0000 0.57471  0.80709  0.94466  Biso   1.000  N
  H201     1.0000 0.53423  0.56548  0.86418  Biso   1.000  H
  H202     1.0000 0.54625  0.61672  0.82047  Biso   1.000  H
  N31      1.0000 0.52233  0.66849  0.87867  Biso   1.000  N
  H203     1.0000 0.35116  0.82868  0.83239  Biso   1.000  H
  H204     1.0000 0.34195  0.88081  0.87706  Biso   1.000  H
  N32      1.0000 0.43433  0.88211  0.88276  Biso   1.000  N
  C117     1.0000 0.58605  0.73409  0.96658  Biso   1.000  C
  C118     1.0000 0.53597  0.84481  0.96849  Biso   1.000  C
  H205     1.0000 0.49553  0.66001  0.89637  Biso   1.000  H
  H206     1.0000 0.50664  0.70751  0.85588  Biso   1.000  H
  C119     1.0000 0.58873  0.68332  0.92378  Biso   1.000  C
  H207     1.0000 0.45304  0.87290  0.85818  Biso   1.000  H
  H208     1.0000 0.44444  0.92732  0.89537  Biso   1.000  H
  C120     1.0000 0.46364  0.83528  0.93356  Biso   1.000  C
  H209     1.0000 0.55022  0.72041  0.97676  Biso   1.000  H
  H210     1.0000 0.62790  0.73191  0.00260  Biso   1.000  H
  H211     1.0000 0.54634  0.89501  0.97019  Biso   1.000  H
  H212     1.0000 0.54871  0.82868  0.00877  Biso   1.000  H
  H213     1.0000 0.60961  0.63961  0.94396  Biso   1.000  H
  H214     1.0000 0.61573  0.70262  0.90559  Biso   1.000  H
  H215     1.0000 0.44175  0.84340  0.95910  Biso   1.000  H
  H216     1.0000 0.45494  0.78648  0.91986  Biso   1.000  H
  C121     1.0000 0.85593  0.57552  0.73238  Biso   1.000  C
  C122     1.0000 0.86464  0.58930  0.79019  Biso   1.000  C
  H217     1.0000 0.82594  0.54342  0.70559  Biso   1.000  H
  C123     1.0000 0.89784  0.61631  0.72307  Biso   1.000  C
  C124     1.0000 0.91107  0.63732  0.81190  Biso   1.000  C
  H218     1.0000 0.84153  0.56818  0.80929  Biso   1.000  H
  O13      1.0000 0.93375  0.65480  0.77188  Biso   1.000  O
  C125     1.0000 0.91516  0.62562  0.67449  Biso   1.000  C
  C126     1.0000 0.94075  0.67598  0.86788  Biso   1.000  C
  H219     1.0000 0.91167  0.58041  0.65478  Biso   1.000  H
  H220     1.0000 0.96126  0.64169  0.68967  Biso   1.000  H
  N33      1.0000 0.87067  0.67770  0.63129  Biso   1.000  N
  N34      1.0000 0.92142  0.75012  0.85996  Biso   1.000  N
  H221     1.0000 0.92646  0.65449  0.89559  Biso   1.000  H
  H222     1.0000 0.98914  0.67239  0.88476  Biso   1.000  H
  H223     1.0000 0.82805  0.66178  0.61637  Biso   1.000  H
  H224     1.0000 0.87264  0.71901  0.65017  Biso   1.000  H
  C127     1.0000 0.88838  0.69070  0.58210  Biso   1.000  C
  C128     1.0000 0.93273  0.78602  0.91486  Biso   1.000  C
  H225     1.0000 0.87765  0.75329  0.83447  Biso   1.000  H
  H226     1.0000 0.94494  0.77270  0.84348  Biso   1.000  H
  H227     1.0000 0.93346  0.70969  0.59797  Biso   1.000  H
  H228     1.0000 0.88796  0.64591  0.56278  Biso   1.000  H
  C129     1.0000 0.84236  0.74039  0.53777  Biso   1.000  C
  H229     1.0000 0.91285  0.75771  0.93539  Biso   1.000  H
  H230     1.0000 0.90952  0.83117  0.90516  Biso   1.000  H
  C130     1.0000 0.00325  0.79871  0.95557  Biso   1.000  C
  H231     1.0000 0.84285  0.73160  0.49988  Biso   1.000  H
  H232     1.0000 0.79715  0.73201  0.53299  Biso   1.000  H
  N35      1.0000 0.86056  0.81421  0.55487  Biso   1.000  N
  N36      1.0000 0.03245  0.85339  0.93409  Biso   1.000  N
  H233     1.0000 0.00673  0.81260  0.99407  Biso   1.000  H
  H234     1.0000 0.02832  0.75501  0.96066  Biso   1.000  H
  C131     1.0000 0.90987  0.83560  0.53338  Biso   1.000  C
  C132     1.0000 0.80266  0.85781  0.52890  Biso   1.000  C
  C133     1.0000 0.10394  0.84298  0.95757  Biso   1.000  C
  C134     1.0000 0.01824  0.92310  0.94996  Biso   1.000  C
  C135     1.0000 0.94987  0.89730  0.56539  Biso   1.000  C
  H235     1.0000 0.93956  0.79600  0.53790  Biso   1.000  H
  H236     1.0000 0.88636  0.84689  0.49140  Biso   1.000  H
  C136     1.0000 0.76338  0.85719  0.56409  Biso   1.000  C
  H237     1.0000 0.77447  0.84111  0.48897  Biso   1.000  H
  H238     1.0000 0.81607  0.90609  0.52607  Biso   1.000  H
  H239     1.0000 0.12133  0.82602  0.99816  Biso   1.000  H
  H240     1.0000 0.12533  0.88809  0.95810  Biso   1.000  H
  C137     1.0000 0.12044  0.79179  0.92199  Biso   1.000  C
  H241     1.0000 0.97566  0.92212  0.95188  Biso   1.000  H
  H242     1.0000 0.05272  0.93580  0.98898  Biso   1.000  H
  C138     1.0000 0.01586  0.97732  0.90638  Biso   1.000  C
  N37      1.0000 0.99976  0.87748  0.62390  Biso   1.000  N
  H243     1.0000 0.97195  0.91738  0.54299  Biso   1.000  H
  H244     1.0000 0.92054  0.93330  0.56879  Biso   1.000  H
  N38      1.0000 0.79334  0.90261  0.61576  Biso   1.000  N
  H245     1.0000 0.71797  0.87321  0.53921  Biso   1.000  H
  H246     1.0000 0.76087  0.80901  0.57670  Biso   1.000  H
  H247     1.0000 0.16794  0.78092  0.94239  Biso   1.000  H
  H248     1.0000 0.09606  0.74809  0.91899  Biso   1.000  H
  N39      1.0000 0.10494  0.81671  0.86257  Biso   1.000  N
  N40      1.0000 0.95947  0.96571  0.84848  Biso   1.000  N
  H249     1.0000 0.05723  0.97581  0.90229  Biso   1.000  H
  H250     1.0000 0.01194  0.02398  0.92086  Biso   1.000  H
  H251     1.0000 0.97875  0.86312  0.64569  Biso   1.000  H
  C139     1.0000 0.04625  0.93622  0.65548  Biso   1.000  C
  H252     1.0000 0.02366  0.84049  0.62059  Biso   1.000  H
  C140     1.0000 0.75565  0.90021  0.65087  Biso   1.000  C
  H253     1.0000 0.79447  0.94771  0.60411  Biso   1.000  H
  H254     1.0000 0.83586  0.88861  0.63838  Biso   1.000  H
  H255     1.0000 0.06147  0.82998  0.84470  Biso   1.000  H
  H256     1.0000 0.11002  0.78029  0.84156  Biso   1.000  H
  C141     1.0000 0.14673  0.87701  0.86057  Biso   1.000  C
  H257     1.0000 0.95975  0.91998  0.83787  Biso   1.000  H
  H258     1.0000 0.96492  0.99308  0.82147  Biso   1.000  H
  C142     1.0000 0.89303  0.98189  0.84678  Biso   1.000  C
  C143     1.0000 0.10062  0.91051  0.70976  Biso   1.000  C
  H259     1.0000 0.06437  0.95651  0.63007  Biso   1.000  H
  H260     1.0000 0.02207  0.97321  0.66487  Biso   1.000  H
  C144     1.0000 0.77997  0.95328  0.69767  Biso   1.000  C
  H261     1.0000 0.70857  0.90849  0.62529  Biso   1.000  H
  H262     1.0000 0.75995  0.85339  0.66840  Biso   1.000  H
  H263     1.0000 0.13027  0.92082  0.86979  Biso   1.000  H
  H264     1.0000 0.19264  0.87009  0.89020  Biso   1.000  H
  C145     1.0000 0.14483  0.88252  0.80128  Biso   1.000  C
  H265     1.0000 0.87994  0.94340  0.86518  Biso   1.000  H
  C146     1.0000 0.84302  0.99079  0.78636  Biso   1.000  C
  H266     1.0000 0.89614  0.02502  0.86910  Biso   1.000  H
  C147     1.0000 0.15954  0.88330  0.72199  Biso   1.000  C
  O14      1.0000 0.09005  0.91109  0.75870  Biso   1.000  O
  O15      1.0000 0.82775  0.93231  0.75157  Biso   1.000  O
  C148     1.0000 0.76645  0.02081  0.70019  Biso   1.000  C
  C149     1.0000 0.18835  0.86572  0.78119  Biso   1.000  C
  C150     1.0000 0.80675  0.04479  0.75609  Biso   1.000  C
  H267     1.0000 0.17827  0.87701  0.69558  Biso   1.000  H
  H268     1.0000 0.73506  0.04760  0.66927  Biso   1.000  H
  H269     1.0000 0.23055  0.84559  0.80289  Biso   1.000  H
  H270     1.0000 0.80816  0.09089  0.77018  Biso   1.000  H
  C151     1.0000 0.14399  0.42448  0.26760  Biso   1.000  C
  C152     1.0000 0.13528  0.41070  0.20979  Biso   1.000  C
  C153     1.0000 0.10208  0.38369  0.27691  Biso   1.000  C
  H271     1.0000 0.17398  0.45658  0.29440  Biso   1.000  H
  C154     1.0000 0.08889  0.36268  0.18809  Biso   1.000  C
  H272     1.0000 0.15839  0.43182  0.19070  Biso   1.000  H
  O16      1.0000 0.06617  0.34520  0.22811  Biso   1.000  O
  C155     1.0000 0.08480  0.37438  0.32550  Biso   1.000  C
  C156     1.0000 0.05917  0.32402  0.13210  Biso   1.000  C
  H273     1.0000 0.08829  0.41959  0.34520  Biso   1.000  H
  H274     1.0000 0.03868  0.35831  0.31027  Biso   1.000  H
  N41      1.0000 0.12930  0.32230  0.36869  Biso   1.000  N
  N42      1.0000 0.07848  0.24988  0.13998  Biso   1.000  N
  H275     1.0000 0.07350  0.34551  0.10440  Biso   1.000  H
  H276     1.0000 0.01080  0.32761  0.11518  Biso   1.000  H
  H277     1.0000 0.17185  0.33822  0.38357  Biso   1.000  H
  H278     1.0000 0.12726  0.28099  0.34977  Biso   1.000  H
  C157     1.0000 0.11158  0.30930  0.41789  Biso   1.000  C
  C158     1.0000 0.06717  0.21398  0.08508  Biso   1.000  C
  H279     1.0000 0.12231  0.24671  0.16551  Biso   1.000  H
  H280     1.0000 0.05498  0.22730  0.15651  Biso   1.000  H
  H281     1.0000 0.06648  0.29031  0.40197  Biso   1.000  H
  H282     1.0000 0.11196  0.35409  0.43720  Biso   1.000  H
  C159     1.0000 0.15754  0.25961  0.46217  Biso   1.000  C
  H283     1.0000 0.08711  0.24229  0.06460  Biso   1.000  H
  H284     1.0000 0.09038  0.16883  0.09478  Biso   1.000  H
  C160     1.0000 0.99671  0.20129  0.04441  Biso   1.000  C
  H285     1.0000 0.15707  0.26840  0.50010  Biso   1.000  H
  H286     1.0000 0.20277  0.26799  0.46700  Biso   1.000  H
  N43      1.0000 0.13938  0.18579  0.44508  Biso   1.000  N
  N44      1.0000 0.96751  0.14661  0.06590  Biso   1.000  N
  H287     1.0000 0.99319  0.18740  0.00592  Biso   1.000  H
  H288     1.0000 0.97157  0.24499  0.03928  Biso   1.000  H
  C161     1.0000 0.09009  0.16440  0.46661  Biso   1.000  C
  C162     1.0000 0.19726  0.14219  0.47109  Biso   1.000  C
  C163     1.0000 0.89602  0.15702  0.04241  Biso   1.000  C
  C164     1.0000 0.98170  0.07690  0.04998  Biso   1.000  C
  C165     1.0000 0.05005  0.10270  0.43459  Biso   1.000  C
  H289     1.0000 0.06036  0.20400  0.46208  Biso   1.000  H
  H290     1.0000 0.11356  0.15311  0.50858  Biso   1.000  H
  C166     1.0000 0.23659  0.14281  0.43590  Biso   1.000  C
  H291     1.0000 0.22547  0.15889  0.51098  Biso   1.000  H
  H292     1.0000 0.18387  0.09391  0.47387  Biso   1.000  H
  H293     1.0000 0.87861  0.17398  0.00178  Biso   1.000  H
  H294     1.0000 0.87459  0.11191  0.04189  Biso   1.000  H
  C167     1.0000 0.87948  0.20821  0.07799  Biso   1.000  C
  H295     1.0000 0.02431  0.07788  0.04811  Biso   1.000  H
  H296     1.0000 0.94720  0.06420  0.01101  Biso   1.000  H
  C168     1.0000 0.98411  0.02268  0.09361  Biso   1.000  C
  N45      1.0000 0.00015  0.12252  0.37609  Biso   1.000  N
  H297     1.0000 0.02797  0.08262  0.45699  Biso   1.000  H
  H298     1.0000 0.07938  0.06670  0.43120  Biso   1.000  H
  N46      1.0000 0.20656  0.09739  0.38418  Biso   1.000  N
  H299     1.0000 0.28195  0.12679  0.46078  Biso   1.000  H
  H300     1.0000 0.23905  0.19099  0.42328  Biso   1.000  H
  H301     1.0000 0.83198  0.21908  0.05759  Biso   1.000  H
  H302     1.0000 0.90391  0.25191  0.08099  Biso   1.000  H
  N47      1.0000 0.89498  0.18329  0.13741  Biso   1.000  N
  N48      1.0000 0.04050  0.03429  0.15151  Biso   1.000  N
  H303     1.0000 0.98800  0.97602  0.07908  Biso   1.000  H
  H304     1.0000 0.94269  0.02419  0.09770  Biso   1.000  H
  C169     1.0000 0.95367  0.06378  0.34451  Biso   1.000  C
  H305     1.0000 0.02117  0.13688  0.35429  Biso   1.000  H
  H306     1.0000 0.97626  0.15951  0.37939  Biso   1.000  H
  C170     1.0000 0.24425  0.09979  0.34907  Biso   1.000  C
  H307     1.0000 0.20545  0.05229  0.39588  Biso   1.000  H
  H308     1.0000 0.16406  0.11139  0.36160  Biso   1.000  H
  H309     1.0000 0.93850  0.17002  0.15529  Biso   1.000  H
  H310     1.0000 0.88988  0.21971  0.15838  Biso   1.000  H
  C171     1.0000 0.85319  0.12299  0.13941  Biso   1.000  C
  H311     1.0000 0.04019  0.08002  0.16208  Biso   1.000  H
  H312     1.0000 0.03498  0.00692  0.17847  Biso   1.000  H
  C172     1.0000 0.10689  0.01811  0.15320  Biso   1.000  C
  C173     1.0000 0.89927  0.08949  0.29018  Biso   1.000  C
  H313     1.0000 0.93559  0.04349  0.36991  Biso   1.000  H
  H314     1.0000 0.97789  0.02679  0.33511  Biso   1.000  H
  C174     1.0000 0.21997  0.04672  0.30227  Biso   1.000  C
  H315     1.0000 0.29139  0.09151  0.37470  Biso   1.000  H
  H316     1.0000 0.23997  0.14661  0.33159  Biso   1.000  H
  H317     1.0000 0.86969  0.07918  0.13019  Biso   1.000  H
  H318     1.0000 0.80728  0.12991  0.10979  Biso   1.000  H
  C175     1.0000 0.85509  0.11748  0.19870  Biso   1.000  C
  H319     1.0000 0.11998  0.05660  0.13480  Biso   1.000  H
  C176     1.0000 0.15688  0.00921  0.21358  Biso   1.000  C
  H320     1.0000 0.10378  0.97498  0.13089  Biso   1.000  H
  O17      1.0000 0.90987  0.08891  0.24129  Biso   1.000  O
  C177     1.0000 0.84038  0.11670  0.27800  Biso   1.000  C
  O18      1.0000 0.17219  0.06769  0.24838  Biso   1.000  O
  C178     1.0000 0.23347  0.97919  0.29979  Biso   1.000  C
  C179     1.0000 0.81157  0.13428  0.21880  Biso   1.000  C
  C180     1.0000 0.19317  0.95521  0.24390  Biso   1.000  C
  H321     1.0000 0.82169  0.12299  0.30440  Biso   1.000  H
  H322     1.0000 0.26488  0.95240  0.33068  Biso   1.000  H
  H323     1.0000 0.76937  0.15441  0.19709  Biso   1.000  H
  H324     1.0000 0.19181  0.90911  0.22980  Biso   1.000  H
  C181     1.0000 0.89308  0.51808  0.34677  Biso   1.000  C
  C182     1.0000 0.84309  0.50918  0.28639  Biso   1.000  C
  N49      1.0000 0.95950  0.53431  0.34851  Biso   1.000  N
  H325     1.0000 0.87995  0.55658  0.36517  Biso   1.000  H
  H326     1.0000 0.89619  0.47500  0.36908  Biso   1.000  H
  C183     1.0000 0.80676  0.45518  0.25608  Biso   1.000  C
  O19      1.0000 0.82778  0.56771  0.25159  Biso   1.000  O
  H327     1.0000 0.95978  0.57999  0.33790  Biso   1.000  H
  H328     1.0000 0.96499  0.50689  0.32150  Biso   1.000  H
  C184     1.0000 0.01588  0.52271  0.40641  Biso   1.000  C
  C185     1.0000 0.76650  0.47922  0.20018  Biso   1.000  C
  H329     1.0000 0.80819  0.40908  0.27021  Biso   1.000  H
  C186     1.0000 0.78000  0.54669  0.19770  Biso   1.000  C
  C187     1.0000 0.01827  0.57692  0.44999  Biso   1.000  C
  H330     1.0000 0.01197  0.47599  0.42089  Biso   1.000  H
  H331     1.0000 0.05728  0.52422  0.40227  Biso   1.000  H
  H332     1.0000 0.73509  0.45242  0.16930  Biso   1.000  H
  C188     1.0000 0.75568  0.59981  0.15090  Biso   1.000  C
  H333     1.0000 0.97568  0.57791  0.45191  Biso   1.000  H
  N50      1.0000 0.03246  0.64658  0.43407  Biso   1.000  N
  H334     1.0000 0.05277  0.56417  0.48897  Biso   1.000  H
  H335     1.0000 0.70858  0.59149  0.12528  Biso   1.000  H
  H336     1.0000 0.76000  0.64658  0.16838  Biso   1.000  H
  N51      1.0000 0.79337  0.59742  0.11579  Biso   1.000  N
  C189     1.0000 0.00328  0.70132  0.45560  Biso   1.000  C
  C190     1.0000 0.10397  0.65699  0.45760  Biso   1.000  C
  H337     1.0000 0.79448  0.55231  0.10409  Biso   1.000  H
  H338     1.0000 0.83589  0.61141  0.13841  Biso   1.000  H
  C191     1.0000 0.76341  0.64279  0.06412  Biso   1.000  C
  C192     1.0000 0.93276  0.71401  0.41489  Biso   1.000  C
  H339     1.0000 0.00676  0.68743  0.49410  Biso   1.000  H
  H340     1.0000 0.02835  0.74502  0.46069  Biso   1.000  H
  H341     1.0000 0.12136  0.67400  0.49819  Biso   1.000  H
  H342     1.0000 0.12538  0.61188  0.45808  Biso   1.000  H
  C193     1.0000 0.12045  0.70818  0.42198  Biso   1.000  C
  H343     1.0000 0.71798  0.62681  0.03919  Biso   1.000  H
  H344     1.0000 0.76088  0.69102  0.07669  Biso   1.000  H
  C194     1.0000 0.80271  0.64221  0.02888  Biso   1.000  C
  H345     1.0000 0.91286  0.74231  0.43538  Biso   1.000  H
  H346     1.0000 0.90959  0.66880  0.40519  Biso   1.000  H
  N52      1.0000 0.92149  0.74991  0.35999  Biso   1.000  N
  H347     1.0000 0.16795  0.71911  0.44238  Biso   1.000  H
  H348     1.0000 0.09606  0.75189  0.41898  Biso   1.000  H
  N53      1.0000 0.10497  0.68332  0.36260  Biso   1.000  N
  H349     1.0000 0.81610  0.59388  0.02610  Biso   1.000  H
  N54      1.0000 0.86059  0.68581  0.05490  Biso   1.000  N
  H350     1.0000 0.77442  0.65891  0.98899  Biso   1.000  H
  H351     1.0000 0.87768  0.74668  0.33450  Biso   1.000  H
  H352     1.0000 0.94497  0.72728  0.34351  Biso   1.000  H
  C195     1.0000 0.94077  0.82399  0.36791  Biso   1.000  C
  H353     1.0000 0.06148  0.67000  0.34468  Biso   1.000  H
  H354     1.0000 0.11009  0.71968  0.34159  Biso   1.000  H
  C196     1.0000 0.14680  0.62302  0.36060  Biso   1.000  C
  C197     1.0000 0.84239  0.75959  0.03780  Biso   1.000  C
  C198     1.0000 0.90990  0.66438  0.03341  Biso   1.000  C
  H355     1.0000 0.92647  0.84548  0.39557  Biso   1.000  H
  H356     1.0000 0.98917  0.82758  0.38479  Biso   1.000  H
  C199     1.0000 0.91108  0.86270  0.31188  Biso   1.000  C
  H357     1.0000 0.13028  0.57921  0.36978  Biso   1.000  H
  H358     1.0000 0.19269  0.62988  0.39018  Biso   1.000  H
  C200     1.0000 0.14491  0.61750  0.30131  Biso   1.000  C
  C201     1.0000 0.88839  0.80932  0.08208  Biso   1.000  C
  H359     1.0000 0.79722  0.76801  0.03302  Biso   1.000  H
  H360     1.0000 0.84281  0.76838  0.99987  Biso   1.000  H
  C202     1.0000 0.94987  0.60267  0.06538  Biso   1.000  C
  H361     1.0000 0.93961  0.70402  0.03789  Biso   1.000  H
  H362     1.0000 0.88632  0.65309  0.99139  Biso   1.000  H
  O20      1.0000 0.93378  0.84522  0.27191  Biso   1.000  O
  C203     1.0000 0.86469  0.91072  0.29018  Biso   1.000  C
  O21      1.0000 0.09006  0.58889  0.25869  Biso   1.000  O
  C204     1.0000 0.18836  0.63431  0.28117  Biso   1.000  C
  N55      1.0000 0.87067  0.82228  0.13128  Biso   1.000  N
  H363     1.0000 0.93349  0.79028  0.09800  Biso   1.000  H
  H364     1.0000 0.88799  0.85412  0.06281  Biso   1.000  H
  N56      1.0000 0.99977  0.62250  0.12388  Biso   1.000  N
  H365     1.0000 0.97202  0.58259  0.04302  Biso   1.000  H
  H366     1.0000 0.92062  0.56672  0.06881  Biso   1.000  H
  C205     1.0000 0.89787  0.88372  0.22310  Biso   1.000  C
  C206     1.0000 0.85601  0.92451  0.23241  Biso   1.000  C
  H367     1.0000 0.84158  0.93179  0.30927  Biso   1.000  H
  C207     1.0000 0.10070  0.58951  0.20979  Biso   1.000  C
  C208     1.0000 0.15962  0.61672  0.22202  Biso   1.000  C
  H368     1.0000 0.23055  0.65439  0.30288  Biso   1.000  H
  C209     1.0000 0.91519  0.87441  0.17452  Biso   1.000  C
  H369     1.0000 0.82808  0.83820  0.11640  Biso   1.000  H
  H370     1.0000 0.87271  0.78102  0.15020  Biso   1.000  H
  H371     1.0000 0.97880  0.63691  0.14568  Biso   1.000  H
  C210     1.0000 0.04628  0.56381  0.15551  Biso   1.000  C
  H372     1.0000 0.02367  0.65949  0.12058  Biso   1.000  H
  H373     1.0000 0.82599  0.95661  0.20557  Biso   1.000  H
  H374     1.0000 0.17830  0.62302  0.19561  Biso   1.000  H
  H375     1.0000 0.91170  0.91962  0.15481  Biso   1.000  H
  H376     1.0000 0.96129  0.85828  0.18970  Biso   1.000  H
  H377     1.0000 0.06440  0.54352  0.13010  Biso   1.000  H
  H378     1.0000 0.02210  0.52682  0.16490  Biso   1.000  H
  C211     1.0000 0.10686  0.48192  0.65317  Biso   1.000  C
  N57      1.0000 0.04047  0.46569  0.65148  Biso   1.000  N
  H379     1.0000 0.11995  0.44342  0.63477  Biso   1.000  H
  H380     1.0000 0.10377  0.52500  0.63090  Biso   1.000  H
  C212     1.0000 0.15687  0.49082  0.71359  Biso   1.000  C
  C213     1.0000 0.98408  0.47729  0.59358  Biso   1.000  C
  H381     1.0000 0.04014  0.42001  0.66209  Biso   1.000  H
  H382     1.0000 0.03497  0.49311  0.67849  Biso   1.000  H
  C214     1.0000 0.19314  0.54482  0.74387  Biso   1.000  C
  O22      1.0000 0.17214  0.43229  0.74839  Biso   1.000  O
  C215     1.0000 0.98165  0.42308  0.54999  Biso   1.000  C
  H383     1.0000 0.98795  0.52401  0.57909  Biso   1.000  H
  H384     1.0000 0.94266  0.47578  0.59767  Biso   1.000  H
  H385     1.0000 0.19173  0.59092  0.72977  Biso   1.000  H
  C216     1.0000 0.23344  0.52078  0.79976  Biso   1.000  C
  C217     1.0000 0.21997  0.45331  0.80229  Biso   1.000  C
  N58      1.0000 0.96744  0.35342  0.56587  Biso   1.000  N
  H386     1.0000 0.02428  0.42209  0.54808  Biso   1.000  H
  H387     1.0000 0.94717  0.43583  0.51098  Biso   1.000  H
  H388     1.0000 0.26487  0.54758  0.83069  Biso   1.000  H
  C218     1.0000 0.24424  0.40019  0.84909  Biso   1.000  C
  C219     1.0000 0.99668  0.29868  0.54438  Biso   1.000  C
  C220     1.0000 0.89595  0.34301  0.54238  Biso   1.000  C
  H389     1.0000 0.29132  0.40851  0.87467  Biso   1.000  H
  H390     1.0000 0.23994  0.35342  0.83156  Biso   1.000  H
  N59      1.0000 0.20655  0.40258  0.88419  Biso   1.000  N
  C221     1.0000 0.06716  0.28599  0.58510  Biso   1.000  C
  H391     1.0000 0.99316  0.31257  0.50589  Biso   1.000  H
  H392     1.0000 0.97157  0.25498  0.53929  Biso   1.000  H
  H393     1.0000 0.87856  0.32600  0.50180  Biso   1.000  H
  H394     1.0000 0.87458  0.38812  0.54190  Biso   1.000  H
  C222     1.0000 0.87945  0.29182  0.57796  Biso   1.000  C
  C223     1.0000 0.23651  0.35721  0.93587  Biso   1.000  C
  H395     1.0000 0.20544  0.44769  0.89589  Biso   1.000  H
  H396     1.0000 0.16403  0.38859  0.86157  Biso   1.000  H
  H397     1.0000 0.08704  0.25769  0.56457  Biso   1.000  H
  H398     1.0000 0.09037  0.33120  0.59480  Biso   1.000  H
  N60      1.0000 0.07847  0.25009  0.63999  Biso   1.000  N
  H399     1.0000 0.83197  0.28089  0.55761  Biso   1.000  H
  H400     1.0000 0.90383  0.24811  0.58097  Biso   1.000  H
  N61      1.0000 0.89495  0.31668  0.63738  Biso   1.000  N
  C224     1.0000 0.19723  0.35779  0.97106  Biso   1.000  C
  H401     1.0000 0.28194  0.37319  0.96079  Biso   1.000  H
  H402     1.0000 0.23904  0.30898  0.92330  Biso   1.000  H
  H403     1.0000 0.12224  0.25332  0.66548  Biso   1.000  H
  H404     1.0000 0.05495  0.27272  0.65648  Biso   1.000  H
  C225     1.0000 0.05914  0.17601  0.63208  Biso   1.000  C
  H405     1.0000 0.93849  0.33000  0.65530  Biso   1.000  H
  H406     1.0000 0.88987  0.28032  0.65839  Biso   1.000  H
  C226     1.0000 0.85316  0.37698  0.63938  Biso   1.000  C
  N62      1.0000 0.13933  0.31419  0.94509  Biso   1.000  N
  H407     1.0000 0.18386  0.40612  0.97389  Biso   1.000  H
  H408     1.0000 0.22550  0.34109  0.01099  Biso   1.000  H
  H409     1.0000 0.07347  0.15452  0.60437  Biso   1.000  H
  H410     1.0000 0.01075  0.17242  0.61520  Biso   1.000  H
  C227     1.0000 0.08884  0.13730  0.68810  Biso   1.000  C
  H411     1.0000 0.86968  0.42079  0.63021  Biso   1.000  H
  H412     1.0000 0.80727  0.37012  0.60980  Biso   1.000  H
  C228     1.0000 0.85506  0.38250  0.69867  Biso   1.000  C
  C229     1.0000 0.15753  0.24041  0.96219  Biso   1.000  C
  C230     1.0000 0.09002  0.33562  0.96658  Biso   1.000  C
  C231     1.0000 0.13525  0.08928  0.70976  Biso   1.000  C
  O23      1.0000 0.06614  0.15478  0.72808  Biso   1.000  O
  C232     1.0000 0.81154  0.36569  0.71877  Biso   1.000  C
  O24      1.0000 0.90986  0.41111  0.74130  Biso   1.000  O
  C233     1.0000 0.11155  0.19068  0.91786  Biso   1.000  C
  H413     1.0000 0.20274  0.23199  0.96697  Biso   1.000  H
  H414     1.0000 0.15709  0.23162  0.00007  Biso   1.000  H
  C234     1.0000 0.05002  0.39733  0.93456  Biso   1.000  C
  H415     1.0000 0.06033  0.29598  0.96205  Biso   1.000  H
  H416     1.0000 0.11360  0.34691  0.00860  Biso   1.000  H
  H417     1.0000 0.15836  0.06821  0.69067  Biso   1.000  H
  C235     1.0000 0.14396  0.07549  0.76757  Biso   1.000  C
  C236     1.0000 0.10205  0.11628  0.77688  Biso   1.000  C
  H418     1.0000 0.76934  0.34561  0.69706  Biso   1.000  H
  C237     1.0000 0.84035  0.38328  0.77797  Biso   1.000  C
  C238     1.0000 0.89927  0.41049  0.79019  Biso   1.000  C
  N63      1.0000 0.12922  0.17772  0.86866  Biso   1.000  N
  H419     1.0000 0.06643  0.20972  0.90198  Biso   1.000  H
  H420     1.0000 0.11193  0.14588  0.93717  Biso   1.000  H
  N64      1.0000 0.00013  0.37750  0.87606  Biso   1.000  N
  H421     1.0000 0.02794  0.41741  0.95697  Biso   1.000  H
  H422     1.0000 0.07935  0.43328  0.93117  Biso   1.000  H
  H423     1.0000 0.17395  0.04339  0.79437  Biso   1.000  H
  C239     1.0000 0.08473  0.12559  0.82547  Biso   1.000  C
  H424     1.0000 0.82166  0.37698  0.80437  Biso   1.000  H
  C240     1.0000 0.95364  0.43619  0.84448  Biso   1.000  C
  H425     1.0000 0.17184  0.16180  0.88358  Biso   1.000  H
  H426     1.0000 0.12725  0.21898  0.84979  Biso   1.000  H
  H427     1.0000 0.02114  0.36309  0.85427  Biso   1.000  H
  H428     1.0000 0.97623  0.34051  0.87936  Biso   1.000  H
  H429     1.0000 0.08826  0.08038  0.84517  Biso   1.000  H
  H430     1.0000 0.03863  0.14172  0.81029  Biso   1.000  H
  H431     1.0000 0.93556  0.45648  0.86988  Biso   1.000  H
  H432     1.0000 0.97786  0.47318  0.83508  Biso   1.000  H
