data_image0
_cell_length_a       17.748
_cell_length_b       19.543
_cell_length_c       26.231
_cell_angle_alpha    90
_cell_angle_beta     107.2
_cell_angle_gamma    90

_symmetry_space_group_name_H-M    "P 1"
_symmetry_int_tables_number       1

loop_
  _symmetry_equiv_pos_as_xyz
  'x, y, z'

loop_
  _atom_site_label
  _atom_site_occupancy
  _atom_site_fract_x
  _atom_site_fract_y
  _atom_site_fract_z
  _atom_site_thermal_displace_type
  _atom_site_B_iso_or_equiv
  _atom_site_type_symbol
  C1       1.0000 0.37802  0.51650  0.49030  Biso   1.000  C
  C2       1.0000 0.39961  0.44328  0.51521  Biso   1.000  C
  H1       1.0000 0.38452  0.48831  0.50000  Biso   1.000  H
  H2       1.0000 0.32962  0.53098  0.49701  Biso   1.000  H
  H3       1.0000 0.41920  0.54787  0.50898  Biso   1.000  H
  C3       1.0000 0.36774  0.52321  0.43312  Biso   1.000  C
  C4       1.0000 0.40058  0.44241  0.57479  Biso   1.000  C
  H4       1.0000 0.36183  0.41017  0.49489  Biso   1.000  H
  C5       1.0000 0.48368  0.42517  0.51289  Biso   1.000  C
  H5       1.0000 0.36129  0.41038  0.49521  Biso   1.000  H
  H6       1.0000 0.45108  0.43008  0.51269  Biso   1.000  H
  C6       1.0000 0.31659  0.47756  0.39860  Biso   1.000  C
  C7       1.0000 0.40453  0.57489  0.41248  Biso   1.000  C
  C8       1.0000 0.41852  0.37200  0.59921  Biso   1.000  C
  C9       1.0000 0.32602  0.46666  0.58520  Biso   1.000  C
  H7       1.0000 0.44323  0.47291  0.59450  Biso   1.000  H
  H8       1.0000 0.51948  0.46160  0.53009  Biso   1.000  H
  H9       1.0000 0.50088  0.38362  0.53328  Biso   1.000  H
  C10      1.0000 0.48962  0.41519  0.45842  Biso   1.000  C
  H10      1.0000 0.29211  0.44318  0.41221  Biso   1.000  H
  C11      1.0000 0.30247  0.48380  0.34348  Biso   1.000  C
  C12      1.0000 0.39041  0.58098  0.35749  Biso   1.000  C
  H11      1.0000 0.43854  0.60518  0.43551  Biso   1.000  H
  C13      1.0000 0.39258  0.31321  0.56900  Biso   1.000  C
  C14      1.0000 0.46122  0.36647  0.65309  Biso   1.000  C
  C15      1.0000 0.33248  0.49957  0.63349  Biso   1.000  C
  C16      1.0000 0.25169  0.45479  0.54921  Biso   1.000  C
  C17      1.0000 0.52324  0.46380  0.43272  Biso   1.000  C
  C18      1.0000 0.46282  0.35307  0.43332  Biso   1.000  C
  H12      1.0000 0.26848  0.45341  0.32050  Biso   1.000  H
  C19      1.0000 0.33933  0.53538  0.32301  Biso   1.000  C
  H13      1.0000 0.41502  0.61536  0.34380  Biso   1.000  H
  C20      1.0000 0.40942  0.24878  0.59271  Biso   1.000  C
  H14      1.0000 0.36421  0.31689  0.53320  Biso   1.000  H
  C21      1.0000 0.47803  0.30210  0.67671  Biso   1.000  C
  O1       1.0000 0.49229  0.42199  0.68370  Biso   1.000  O
  O2       1.0000 0.40420  0.51420  0.67009  Biso   1.000  O
  C22      1.0000 0.26477  0.52070  0.64578  Biso   1.000  C
  H15      1.0000 0.24742  0.43279  0.51700  Biso   1.000  H
  C23      1.0000 0.18399  0.47587  0.56150  Biso   1.000  C
  H16      1.0000 0.54101  0.50519  0.44940  Biso   1.000  H
  C24      1.0000 0.52992  0.45029  0.38200  Biso   1.000  C
  C25      1.0000 0.46950  0.33961  0.38259  Biso   1.000  C
  H17      1.0000 0.44042  0.32068  0.45040  Biso   1.000  H
  H18      1.0000 0.32988  0.53948  0.28630  Biso   1.000  H
  C26      1.0000 0.37950  0.18109  0.56162  Biso   1.000  C
  C27      1.0000 0.45204  0.24331  0.64650  Biso   1.000  C
  O3       1.0000 0.51429  0.29468  0.73171  Biso   1.000  O
  C28      1.0000 0.44023  0.46221  0.70341  Biso   1.000  C
  O4       1.0000 0.26754  0.54766  0.69491  Biso   1.000  O
  C29      1.0000 0.19050  0.50878  0.60979  Biso   1.000  C
  C30      1.0000 0.09968  0.46057  0.52458  Biso   1.000  C
  H19      1.0000 0.55221  0.48268  0.36491  Biso   1.000  H
  C31      1.0000 0.50300  0.38817  0.35701  Biso   1.000  C
  H20      1.0000 0.45162  0.29832  0.36591  Biso   1.000  H
  C32      1.0000 0.37650  0.18948  0.50331  Biso   1.000  C
  C33      1.0000 0.30100  0.16338  0.57100  Biso   1.000  C
  H21      1.0000 0.41718  0.14471  0.57718  Biso   1.000  H
  O5       1.0000 0.47390  0.18099  0.67280  Biso   1.000  O
  C34      1.0000 0.59384  0.29821  0.74432  Biso   1.000  C
  H22      1.0000 0.39988  0.43258  0.70960  Biso   1.000  H
  H23      1.0000 0.46960  0.48160  0.73749  Biso   1.000  H
  C35      1.0000 0.27631  0.62078  0.69579  Biso   1.000  C
  O6       1.0000 0.12510  0.53247  0.62272  Biso   1.000  O
  C36      1.0000 0.07490  0.39119  0.54190  Biso   1.000  C
  H24      1.0000 0.06452  0.49527  0.53221  Biso   1.000  H
  C37      1.0000 0.09051  0.46477  0.46209  Biso   1.000  C
  H25      1.0000 0.50750  0.37927  0.32321  Biso   1.000  H
  C38      1.0000 0.35482  0.12081  0.47278  Biso   1.000  C
  H26      1.0000 0.42752  0.20488  0.50132  Biso   1.000  H
  H27      1.0000 0.33769  0.22392  0.48671  Biso   1.000  H
  C39      1.0000 0.22881  0.18559  0.53720  Biso   1.000  C
  C40      1.0000 0.30368  0.12762  0.61749  Biso   1.000  C
  C41      1.0000 0.41651  0.14660  0.69092  Biso   1.000  C
  C42      1.0000 0.62732  0.28732  0.80442  Biso   1.000  C
  H28      1.0000 0.60974  0.34248  0.73442  Biso   1.000  H
  H29      1.0000 0.61332  0.26311  0.72520  Biso   1.000  H
  C43      1.0000 0.30092  0.63977  0.75441  Biso   1.000  C
  H30      1.0000 0.22691  0.64279  0.67699  Biso   1.000  H
  H31      1.0000 0.31642  0.63440  0.67939  Biso   1.000  H
  C44      1.0000 0.08482  0.48288  0.64491  Biso   1.000  C
  C45      1.0000 0.08752  0.32897  0.51960  Biso   1.000  C
  C46      1.0000 0.04101  0.39221  0.58361  Biso   1.000  C
  H32      1.0000 0.12969  0.43606  0.45351  Biso   1.000  H
  H33      1.0000 0.03851  0.44901  0.44162  Biso   1.000  H
  C47      1.0000 0.10181  0.53886  0.44888  Biso   1.000  C
  C48      1.0000 0.35302  0.12982  0.41452  Biso   1.000  C
  H34      1.0000 0.39328  0.08612  0.48951  Biso   1.000  H
  H35      1.0000 0.30353  0.10561  0.47430  Biso   1.000  H
  C49      1.0000 0.15921  0.17188  0.54981  Biso   1.000  C
  H36      1.0000 0.22698  0.20949  0.50619  Biso   1.000  H
  C50      1.0000 0.23417  0.11390  0.63018  Biso   1.000  C
  O7       1.0000 0.37230  0.10039  0.65021  Biso   1.000  O
  H37      1.0000 0.38108  0.17981  0.69918  Biso   1.000  H
  H38      1.0000 0.44212  0.12132  0.72320  Biso   1.000  H
  C51      1.0000 0.61522  0.21491  0.81619  Biso   1.000  C
  O8       1.0000 0.70981  0.29601  0.81539  Biso   1.000  O
  H39      1.0000 0.60449  0.31889  0.82489  Biso   1.000  H
  C52      1.0000 0.37983  0.61659  0.78490  Biso   1.000  C
  O9       1.0000 0.29570  0.71110  0.76012  Biso   1.000  O
  H40      1.0000 0.26318  0.61848  0.77030  Biso   1.000  H
  O10      1.0000 0.02362  0.45111  0.60532  Biso   1.000  O
  H41      1.0000 0.12211  0.44850  0.66370  Biso   1.000  H
  H42      1.0000 0.06309  0.50499  0.67049  Biso   1.000  H
  C53      1.0000 0.06619  0.26777  0.53911  Biso   1.000  C
  H43      1.0000 0.11013  0.32840  0.49190  Biso   1.000  H
  C54      1.0000 0.01968  0.33101  0.60300  Biso   1.000  C
  H44      1.0000 0.06029  0.56547  0.45650  Biso   1.000  H
  H45      1.0000 0.15142  0.55437  0.47318  Biso   1.000  H
  C55      1.0000 0.10233  0.55590  0.39361  Biso   1.000  C
  C56      1.0000 0.29260  0.16748  0.37968  Biso   1.000  C
  C57      1.0000 0.41422  0.10382  0.39688  Biso   1.000  C
  C58      1.0000 0.16201  0.13611  0.59630  Biso   1.000  C
  C59      1.0000 0.08123  0.20007  0.51461  Biso   1.000  C
  O11      1.0000 0.23483  0.08289  0.67771  Biso   1.000  O
  C60      1.0000 0.58841  0.20299  0.86751  Biso   1.000  C
  H46      1.0000 0.57761  0.19347  0.78518  Biso   1.000  H
  O12      1.0000 0.69418  0.18180  0.82669  Biso   1.000  O
  C61      1.0000 0.74469  0.23221  0.81990  Biso   1.000  C
  C62      1.0000 0.39201  0.59377  0.84061  Biso   1.000  C
  H47      1.0000 0.39752  0.58067  0.76491  Biso   1.000  H
  O13      1.0000 0.42649  0.67937  0.78582  Biso   1.000  O
  C63      1.0000 0.37341  0.73740  0.77369  Biso   1.000  C
  C64      1.0000 0.03230  0.26879  0.58069  Biso   1.000  C
  O14      1.0000 0.98893  0.33117  0.64531  Biso   1.000  O
  C65      1.0000 0.14013  0.61511  0.38431  Biso   1.000  C
  C66      1.0000 0.06369  0.51348  0.35111  Biso   1.000  C
  C67      1.0000 0.29342  0.17919  0.32740  Biso   1.000  C
  H48      1.0000 0.25170  0.18477  0.39141  Biso   1.000  H
  C68      1.0000 0.41501  0.11549  0.34468  Biso   1.000  C
  H49      1.0000 0.45451  0.07870  0.42011  Biso   1.000  H
  O15      1.0000 0.09299  0.11820  0.60751  Biso   1.000  O
  H50      1.0000 0.04092  0.16870  0.51972  Biso   1.000  H
  C69      1.0000 0.06869  0.20140  0.45459  Biso   1.000  C
  C70      1.0000 0.23368  0.01141  0.67739  Biso   1.000  C
  O16      1.0000 0.51280  0.23277  0.85450  Biso   1.000  O
  H51      1.0000 0.58611  0.15458  0.87501  Biso   1.000  H
  H52      1.0000 0.62413  0.22530  0.89832  Biso   1.000  H
  C71      1.0000 0.82291  0.23517  0.87190  Biso   1.000  C
  C72      1.0000 0.77469  0.21732  0.77201  Biso   1.000  C
  O17      1.0000 0.35521  0.52597  0.83351  Biso   1.000  O
  H53      1.0000 0.44770  0.59100  0.86001  Biso   1.000  H
  H54      1.0000 0.36642  0.62437  0.85941  Biso   1.000  H
  C73      1.0000 0.38462  0.77726  0.82808  Biso   1.000  C
  C74      1.0000 0.39042  0.77690  0.73011  Biso   1.000  C
  O18      1.0000 0.00442  0.20969  0.59710  Biso   1.000  O
  C75      1.0000 0.90800  0.33680  0.63122  Biso   1.000  C
  H55      1.0000 0.16579  0.64340  0.41260  Biso   1.000  H
  C76      1.0000 0.13930  0.63199  0.33239  Biso   1.000  C
  C77      1.0000 0.06292  0.53037  0.29931  Biso   1.000  C
  H56      1.0000 0.03850  0.47408  0.35741  Biso   1.000  H
  H57      1.0000 0.25314  0.20437  0.30422  Biso   1.000  H
  C78      1.0000 0.35461  0.15330  0.30988  Biso   1.000  C
  H58      1.0000 0.45588  0.09819  0.33299  Biso   1.000  H
  C79      1.0000 0.06110  0.16911  0.63409  Biso   1.000  C
  H59      1.0000 0.02312  0.22980  0.43799  Biso   1.000  H
  H60      1.0000 0.11422  0.22269  0.44788  Biso   1.000  H
  C80      1.0000 0.05638  0.13237  0.42849  Biso   1.000  C
  C81      1.0000 0.22863  0.99099  0.73031  Biso   1.000  C
  H61      1.0000 0.28141  0.99340  0.67148  Biso   1.000  H
  H62      1.0000 0.18858  0.99442  0.64950  Biso   1.000  H
  C82      1.0000 0.48679  0.24157  0.89788  Biso   1.000  C
  H63      1.0000 0.84130  0.18958  0.88212  Biso   1.000  H
  H64      1.0000 0.80990  0.25697  0.90091  Biso   1.000  H
  H65      1.0000 0.86363  0.26081  0.86308  Biso   1.000  H
  H66      1.0000 0.82890  0.20319  0.78438  Biso   1.000  H
  H67      1.0000 0.77043  0.25789  0.75078  Biso   1.000  H
  H68      1.0000 0.74361  0.18150  0.75090  Biso   1.000  H
  C83      1.0000 0.34830  0.49767  0.87880  Biso   1.000  C
  H69      1.0000 0.43971  0.77946  0.84740  Biso   1.000  H
  H70      1.0000 0.35700  0.75357  0.84919  Biso   1.000  H
  H71      1.0000 0.36392  0.82280  0.82070  Biso   1.000  H
  H72      1.0000 0.36058  0.81866  0.72448  Biso   1.000  H
  H73      1.0000 0.37590  0.75029  0.69790  Biso   1.000  H
  H74      1.0000 0.44571  0.78729  0.73969  Biso   1.000  H
  C84      1.0000 0.88327  0.35281  0.67791  Biso   1.000  C
  H75      1.0000 0.88409  0.29407  0.61569  Biso   1.000  H
  H76      1.0000 0.89059  0.37261  0.60480  Biso   1.000  H
  H77      1.0000 0.16448  0.67139  0.32620  Biso   1.000  H
  C85      1.0000 0.10072  0.58957  0.28989  Biso   1.000  C
  H78      1.0000 0.03708  0.50207  0.27101  Biso   1.000  H
  H79      1.0000 0.35520  0.16108  0.27500  Biso   1.000  H
  H80      1.0000 0.03662  0.14711  0.65839  Biso   1.000  H
  H81      1.0000 0.10332  0.19808  0.65500  Biso   1.000  H
  H82      1.0000 0.10350  0.10520  0.44361  Biso   1.000  H
  H83      1.0000 0.01331  0.10991  0.43759  Biso   1.000  H
  C86      1.0000 0.03890  0.13202  0.37018  Biso   1.000  C
  C87      1.0000 0.14422  0.00179  0.73570  Biso   1.000  C
  H84      1.0000 0.26850  0.01438  0.75900  Biso   1.000  H
  O19      1.0000 0.23508  0.91629  0.73629  Biso   1.000  O
  C88      1.0000 0.49580  0.30441  0.92430  Biso   1.000  C
  C89      1.0000 0.44552  0.18871  0.91340  Biso   1.000  C
  C90      1.0000 0.41139  0.46150  0.91229  Biso   1.000  C
  C91      1.0000 0.27653  0.50100  0.89030  Biso   1.000  C
  C92      1.0000 0.90612  0.41897  0.70349  Biso   1.000  C
  O20      1.0000 0.79767  0.34959  0.66550  Biso   1.000  O
  H85      1.0000 0.90520  0.31740  0.70461  Biso   1.000  H
  H86      1.0000 0.10013  0.60078  0.25541  Biso   1.000  H
  C93      1.0000 0.09177  0.10352  0.34600  Biso   1.000  C
  C94      1.0000 0.96860  0.16098  0.33901  Biso   1.000  C
  C95      1.0000 0.14851  0.02620  0.79181  Biso   1.000  C
  H87      1.0000 0.11669  0.03628  0.70972  Biso   1.000  H
  O21      1.0000 0.10568  0.93875  0.72229  Biso   1.000  O
  C96      1.0000 0.16222  0.88630  0.72919  Biso   1.000  C
  O22      1.0000 0.54048  0.35261  0.90870  Biso   1.000  O
  C97      1.0000 0.46352  0.31438  0.96608  Biso   1.000  C
  O23      1.0000 0.44273  0.12542  0.88730  Biso   1.000  O
  C98      1.0000 0.41323  0.19869  0.95531  Biso   1.000  C
  O24      1.0000 0.48192  0.46221  0.90039  Biso   1.000  O
  C99      1.0000 0.40259  0.42849  0.95738  Biso   1.000  C
  C100     1.0000 0.26778  0.46799  0.93539  Biso   1.000  C
  O25      1.0000 0.21850  0.54490  0.86041  Biso   1.000  O
  C101     1.0000 0.93548  0.42041  0.76140  Biso   1.000  C
  H88      1.0000 0.94500  0.44046  0.68868  Biso   1.000  H
  O26      1.0000 0.83610  0.45868  0.68948  Biso   1.000  O
  C102     1.0000 0.77048  0.41508  0.66310  Biso   1.000  C
  C103     1.0000 0.07438  0.10408  0.29061  Biso   1.000  C
  H89      1.0000 0.13872  0.08412  0.36691  Biso   1.000  H
  H90      1.0000 0.93342  0.18001  0.35510  Biso   1.000  H
  C104     1.0000 0.95121  0.16159  0.28350  Biso   1.000  C
  O27      1.0000 0.17619  0.09390  0.79492  Biso   1.000  O
  H91      1.0000 0.09678  0.02461  0.79719  Biso   1.000  H
  H92      1.0000 0.18430  0.99780  0.81850  Biso   1.000  H
  C105     1.0000 0.16621  0.84071  0.78099  Biso   1.000  C
  C106     1.0000 0.14518  0.83969  0.67899  Biso   1.000  C
  C107     1.0000 0.49782  0.40557  0.87362  Biso   1.000  C
  C108     1.0000 0.42223  0.26147  0.98169  Biso   1.000  C
  C109     1.0000 0.47071  0.38530  0.99051  Biso   1.000  C
  C110     1.0000 0.37193  0.11221  0.84792  Biso   1.000  C
  C111     1.0000 0.36661  0.13979  0.96892  Biso   1.000  C
  C112     1.0000 0.33083  0.43177  0.96892  Biso   1.000  C
  C113     1.0000 0.18938  0.46881  0.94681  Biso   1.000  C
  C114     1.0000 0.15732  0.51087  0.82162  Biso   1.000  C
  O28      1.0000 0.01428  0.39237  0.77449  Biso   1.000  O
  H93      1.0000 0.93670  0.46687  0.77449  Biso   1.000  H
  H94      1.0000 0.90241  0.39288  0.77688  Biso   1.000  H
  C115     1.0000 0.73748  0.44758  0.60679  Biso   1.000  C
  C116     1.0000 0.70789  0.42460  0.69252  Biso   1.000  C
  C117     1.0000 0.00408  0.13309  0.25932  Biso   1.000  C
  H95      1.0000 0.10973  0.08509  0.27440  Biso   1.000  H
  H96      1.0000 0.90443  0.18099  0.26271  Biso   1.000  H
  C118     1.0000 0.18802  0.12071  0.84520  Biso   1.000  C
  H97      1.0000 0.11422  0.83554  0.78450  Biso   1.000  H
  H98      1.0000 0.19952  0.86292  0.81220  Biso   1.000  H
  H99      1.0000 0.18743  0.79640  0.77732  Biso   1.000  H
  H100     1.0000 0.12547  0.79630  0.68649  Biso   1.000  H
  H101     1.0000 0.19303  0.83283  0.66961  Biso   1.000  H
  H102     1.0000 0.10663  0.86123  0.64981  Biso   1.000  H
  H103     1.0000 0.52830  0.41989  0.85039  Biso   1.000  H
  H104     1.0000 0.44839  0.38679  0.85139  Biso   1.000  H
  H105     1.0000 0.40072  0.26808  0.00958  Biso   1.000  H
  H106     1.0000 0.51931  0.40546  0.98671  Biso   1.000  H
  C119     1.0000 0.47779  0.38587  0.05081  Biso   1.000  C
  O29      1.0000 0.31859  0.07532  0.86691  Biso   1.000  O
  H107     1.0000 0.34803  0.15540  0.83331  Biso   1.000  H
  H108     1.0000 0.38289  0.08668  0.81910  Biso   1.000  H
  C120     1.0000 0.28027  0.14460  0.93148  Biso   1.000  C
  H109     1.0000 0.38883  0.09778  0.95890  Biso   1.000  H
  C121     1.0000 0.37390  0.13299  0.02802  Biso   1.000  C
  H110     1.0000 0.32499  0.40987  0.99901  Biso   1.000  H
  C122     1.0000 0.13530  0.41508  0.91408  Biso   1.000  C
  H111     1.0000 0.16522  0.51307  0.93420  Biso   1.000  H
  C123     1.0000 0.19760  0.46538  0.00751  Biso   1.000  C
  O30      1.0000 0.09520  0.49537  0.83962  Biso   1.000  O
  H112     1.0000 0.13917  0.53968  0.79029  Biso   1.000  H
  H113     1.0000 0.17798  0.46897  0.81100  Biso   1.000  H
  C124     1.0000 0.04909  0.37911  0.82860  Biso   1.000  C
  H114     1.0000 0.68699  0.42788  0.58900  Biso   1.000  H
  H115     1.0000 0.77331  0.43888  0.58628  Biso   1.000  H
  H116     1.0000 0.73191  0.49609  0.61031  Biso   1.000  H
  H117     1.0000 0.65621  0.42261  0.66721  Biso   1.000  H
  H118     1.0000 0.71508  0.46830  0.71000  Biso   1.000  H
  H119     1.0000 0.71322  0.38899  0.71850  Biso   1.000  H
  H120     1.0000 0.99252  0.13350  0.22229  Biso   1.000  H
  C125     1.0000 0.26331  0.11452  0.88120  Biso   1.000  C
  C126     1.0000 0.12969  0.15688  0.85949  Biso   1.000  C
  H121     1.0000 0.42779  0.37267  0.05579  Biso   1.000  H
  H122     1.0000 0.51742  0.35302  0.06928  Biso   1.000  H
  C127     1.0000 0.50091  0.45750  0.07431  Biso   1.000  C
  C128     1.0000 0.22200  0.18088  0.94589  Biso   1.000  C
  H123     1.0000 0.42913  0.13688  0.04841  Biso   1.000  H
  H124     1.0000 0.34598  0.17070  0.03839  Biso   1.000  H
  C129     1.0000 0.34262  0.06780  0.04231  Biso   1.000  C
  C130     1.0000 0.09450  0.42967  0.86109  Biso   1.000  C
  C131     1.0000 0.13068  0.35000  0.93471  Biso   1.000  C
  H125     1.0000 0.21562  0.42000  0.02052  Biso   1.000  H
  H126     1.0000 0.23801  0.49767  0.02610  Biso   1.000  H
  C132     1.0000 0.12529  0.48027  0.02139  Biso   1.000  C
  C133     1.0000 0.04439  0.31397  0.84931  Biso   1.000  C
  C134     1.0000 0.14660  0.18697  0.90989  Biso   1.000  C
  O31      1.0000 0.05488  0.15811  0.82289  Biso   1.000  O
  H127     1.0000 0.55562  0.46590  0.07611  Biso   1.000  H
  H128     1.0000 0.46891  0.49107  0.05009  Biso   1.000  H
  C135     1.0000 0.49173  0.46799  0.12771  Biso   1.000  C
  H129     1.0000 0.23330  0.20089  0.97949  Biso   1.000  H
  H130     1.0000 0.36858  0.03080  0.02950  Biso   1.000  H
  H131     1.0000 0.28709  0.06550  0.02251  Biso   1.000  H
  C136     1.0000 0.34973  0.05322  0.10021  Biso   1.000  C
  C137     1.0000 0.08519  0.29939  0.90231  Biso   1.000  C
  H132     1.0000 0.15793  0.34028  0.97011  Biso   1.000  H
  H133     1.0000 0.08310  0.45008  0.00220  Biso   1.000  H
  H134     1.0000 0.10892  0.52720  0.01230  Biso   1.000  H
  C138     1.0000 0.14441  0.46897  0.08241  Biso   1.000  C
  O32      1.0000 0.99709  0.26690  0.81559  Biso   1.000  O
  C139     1.0000 0.08191  0.22699  0.92238  Biso   1.000  C
  C140     1.0000 0.03628  0.21829  0.79181  Biso   1.000  C
  C141     1.0000 0.55329  0.45239  0.17328  Biso   1.000  C
  C142     1.0000 0.42058  0.49317  0.13250  Biso   1.000  C
  C143     1.0000 0.31202  0.99529  0.11190  Biso   1.000  C
  C144     1.0000 0.39461  0.09451  0.14140  Biso   1.000  C
  C145     1.0000 0.14430  0.40720  0.10911  Biso   1.000  C
  C146     1.0000 0.15833  0.53016  0.11091  Biso   1.000  C
  H135     1.0000 0.03229  0.20749  0.90000  Biso   1.000  H
  C147     1.0000 0.07842  0.22182  0.98041  Biso   1.000  C
  H136     1.0000 0.00261  0.20677  0.75641  Biso   1.000  H
  H137     1.0000 0.08441  0.23830  0.78809  Biso   1.000  H
  H138     1.0000 0.60069  0.43560  0.17009  Biso   1.000  H
  C148     1.0000 0.54382  0.46211  0.22381  Biso   1.000  C
  C149     1.0000 0.41111  0.50279  0.18302  Biso   1.000  C
  H139     1.0000 0.37951  0.50351  0.10209  Biso   1.000  H
  C150     1.0000 0.31929  0.97871  0.16490  Biso   1.000  C
  H140     1.0000 0.28212  0.96771  0.08449  Biso   1.000  H
  H141     1.0000 0.41978  0.13309  0.13349  Biso   1.000  H
  C151     1.0000 0.40190  0.07788  0.19431  Biso   1.000  C
  H142     1.0000 0.13499  0.36637  0.09012  Biso   1.000  H
  C152     1.0000 0.15822  0.40669  0.16430  Biso   1.000  C
  C153     1.0000 0.17219  0.52981  0.16610  Biso   1.000  C
  H143     1.0000 0.15842  0.57141  0.09319  Biso   1.000  H
  H144     1.0000 0.07951  0.17408  0.99090  Biso   1.000  H
  C154     1.0000 0.00342  0.25508  0.98440  Biso   1.000  C
  H145     1.0000 0.12380  0.24449  0.00431  Biso   1.000  H
  H146     1.0000 0.58494  0.45167  0.25421  Biso   1.000  H
  C155     1.0000 0.47272  0.48718  0.22859  Biso   1.000  C
  H147     1.0000 0.36371  0.51957  0.18621  Biso   1.000  H
  H148     1.0000 0.29412  0.94008  0.17280  Biso   1.000  H
  C156     1.0000 0.36423  0.02001  0.20609  Biso   1.000  C
  H149     1.0000 0.43189  0.10541  0.22181  Biso   1.000  H
  H150     1.0000 0.15812  0.36560  0.18198  Biso   1.000  H
  C157     1.0000 0.17209  0.46799  0.19280  Biso   1.000  C
  H151     1.0000 0.18151  0.57059  0.18521  Biso   1.000  H
  H152     1.0000 0.00870  0.30420  0.98141  Biso   1.000  H
  H153     1.0000 0.96027  0.24039  0.95399  Biso   1.000  H
  C158     1.0000 0.98108  0.24050  0.03460  Biso   1.000  C
  H154     1.0000 0.46639  0.49368  0.26220  Biso   1.000  H
  H155     1.0000 0.36901  0.00890  0.24140  Biso   1.000  H
  H156     1.0000 0.18141  0.46769  0.22959  Biso   1.000  H
  C159     1.0000 0.97030  0.29688  0.06421  Biso   1.000  C
  C160     1.0000 0.96651  0.17459  0.04989  Biso   1.000  C
  H157     1.0000 0.97997  0.34079  0.05400  Biso   1.000  H
  C161     1.0000 0.94471  0.28747  0.10919  Biso   1.000  C
  C162     1.0000 0.94089  0.16517  0.09478  Biso   1.000  C
  H158     1.0000 0.97370  0.13698  0.03009  Biso   1.000  H
  H159     1.0000 0.93749  0.32508  0.12891  Biso   1.000  H
  C163     1.0000 0.93011  0.22161  0.12452  Biso   1.000  C
  H160     1.0000 0.93121  0.12132  0.10500  Biso   1.000  H
  H161     1.0000 0.91303  0.21537  0.15441  Biso   1.000  H
  C164     1.0000 0.64523  0.62078  0.52722  Biso   1.000  C
  C165     1.0000 0.62349  0.68951  0.49669  Biso   1.000  C
  H162     1.0000 0.60670  0.58609  0.51050  Biso   1.000  H
  H163     1.0000 0.69651  0.60559  0.52570  Biso   1.000  H
  C166     1.0000 0.64703  0.62979  0.58548  Biso   1.000  C
  C167     1.0000 0.62049  0.68106  0.43838  Biso   1.000  C
  H164     1.0000 0.57252  0.70491  0.49868  Biso   1.000  H
  H165     1.0000 0.66230  0.72389  0.51329  Biso   1.000  H
  C168     1.0000 0.70742  0.66750  0.62028  Biso   1.000  C
  C169     1.0000 0.58581  0.60380  0.60308  Biso   1.000  C
  C170     1.0000 0.59062  0.74876  0.40730  Biso   1.000  C
  C171     1.0000 0.69899  0.66336  0.42901  Biso   1.000  C
  H166     1.0000 0.58279  0.64468  0.42278  Biso   1.000  H
  H167     1.0000 0.74829  0.68480  0.60859  Biso   1.000  H
  C172     1.0000 0.70663  0.67917  0.67260  Biso   1.000  C
  C173     1.0000 0.58501  0.61546  0.65528  Biso   1.000  C
  H168     1.0000 0.54553  0.57867  0.57990  Biso   1.000  H
  C174     1.0000 0.54801  0.74328  0.35350  Biso   1.000  C
  C175     1.0000 0.60740  0.81318  0.43100  Biso   1.000  C
  C176     1.0000 0.77123  0.68557  0.46281  Biso   1.000  C
  C177     1.0000 0.69631  0.62759  0.38251  Biso   1.000  C
  H169     1.0000 0.74690  0.70440  0.69579  Biso   1.000  H
  C178     1.0000 0.64541  0.65328  0.69008  Biso   1.000  C
  H170     1.0000 0.54411  0.59817  0.66702  Biso   1.000  H
  C179     1.0000 0.52201  0.80208  0.32329  Biso   1.000  C
  O33      1.0000 0.52609  0.68096  0.32720  Biso   1.000  O
  C180     1.0000 0.58152  0.87197  0.40079  Biso   1.000  C
  H171     1.0000 0.63584  0.81687  0.46680  Biso   1.000  H
  C181     1.0000 0.84083  0.67190  0.45020  Biso   1.000  C
  H172     1.0000 0.77301  0.70946  0.49382  Biso   1.000  H
  O34      1.0000 0.62769  0.60037  0.34979  Biso   1.000  O
  C182     1.0000 0.76579  0.61388  0.36978  Biso   1.000  C
  H173     1.0000 0.64478  0.66111  0.72500  Biso   1.000  H
  O35      1.0000 0.48570  0.79466  0.26830  Biso   1.000  O
  C183     1.0000 0.53882  0.86650  0.34692  Biso   1.000  C
  C184     1.0000 0.58353  0.64657  0.30908  Biso   1.000  C
  C185     1.0000 0.59941  0.94238  0.42522  Biso   1.000  C
  C186     1.0000 0.83803  0.63608  0.40370  Biso   1.000  C
  C187     1.0000 0.91881  0.70010  0.48540  Biso   1.000  C
  O36      1.0000 0.76521  0.58287  0.32229  Biso   1.000  O
  C188     1.0000 0.40620  0.79819  0.25569  Biso   1.000  C
  O37      1.0000 0.50769  0.92197  0.31631  Biso   1.000  O
  H174     1.0000 0.61889  0.67978  0.30078  Biso   1.000  H
  H175     1.0000 0.55792  0.62130  0.27680  Biso   1.000  H
  C189     1.0000 0.67402  0.96669  0.41480  Biso   1.000  C
  H176     1.0000 0.55682  0.97288  0.40550  Biso   1.000  H
  C190     1.0000 0.60043  0.94325  0.48480  Biso   1.000  C
  O38      1.0000 0.90700  0.61818  0.39249  Biso   1.000  O
  C191     1.0000 0.93380  0.76779  0.46089  Biso   1.000  C
  H177     1.0000 0.95912  0.66868  0.48029  Biso   1.000  H
  C192     1.0000 0.93130  0.70138  0.54542  Biso   1.000  C
  C193     1.0000 0.76631  0.51139  0.32261  Biso   1.000  C
  C194     1.0000 0.37272  0.78729  0.19559  Biso   1.000  C
  H178     1.0000 0.39030  0.84250  0.26558  Biso   1.000  H
  H179     1.0000 0.38672  0.76309  0.27480  Biso   1.000  H
  C195     1.0000 0.55981  0.96219  0.29659  Biso   1.000  C
  C196     1.0000 0.66751  0.99959  0.36651  Biso   1.000  C
  C197     1.0000 0.74829  0.95477  0.45080  Biso   1.000  C
  H180     1.0000 0.61553  0.98828  0.50000  Biso   1.000  H
  H181     1.0000 0.63821  0.91020  0.50511  Biso   1.000  H
  C198     1.0000 0.51631  0.92519  0.48711  Biso   1.000  C
  H182     1.0000 0.63869  0.91040  0.50479  Biso   1.000  H
  H183     1.0000 0.54890  0.93010  0.48731  Biso   1.000  H
  C199     1.0000 0.62202  0.01648  0.50970  Biso   1.000  C
  C200     1.0000 0.93894  0.66909  0.36591  Biso   1.000  C
  C201     1.0000 0.91252  0.82899  0.48041  Biso   1.000  C
  C202     1.0000 0.96774  0.76877  0.41931  Biso   1.000  C
  H184     1.0000 0.97692  0.72978  0.56202  Biso   1.000  H
  H185     1.0000 0.88581  0.72266  0.55208  Biso   1.000  H
  C203     1.0000 0.94360  0.63240  0.57152  Biso   1.000  C
  C204     1.0000 0.77141  0.49097  0.26970  Biso   1.000  C
  H186     1.0000 0.71863  0.49337  0.32852  Biso   1.000  H
  H187     1.0000 0.81140  0.49440  0.35051  Biso   1.000  H
  C205     1.0000 0.38482  0.71489  0.18381  Biso   1.000  C
  O39      1.0000 0.29023  0.79599  0.18461  Biso   1.000  O
  H188     1.0000 0.39550  0.81886  0.17511  Biso   1.000  H
  H189     1.0000 0.60010  0.93256  0.29041  Biso   1.000  H
  H190     1.0000 0.53044  0.98158  0.26251  Biso   1.000  H
  O40      1.0000 0.59579  0.01423  0.32992  Biso   1.000  O
  C206     1.0000 0.73521  0.02067  0.35422  Biso   1.000  C
  H191     1.0000 0.75262  0.93276  0.48300  Biso   1.000  H
  C207     1.0000 0.81600  0.97590  0.43850  Biso   1.000  C
  H192     1.0000 0.48050  0.96157  0.46991  Biso   1.000  H
  H193     1.0000 0.49911  0.88359  0.46672  Biso   1.000  H
  C208     1.0000 0.51042  0.91516  0.54159  Biso   1.000  C
  H194     1.0000 0.67042  0.03101  0.50299  Biso   1.000  H
  H195     1.0000 0.58082  0.04789  0.49098  Biso   1.000  H
  C209     1.0000 0.63231  0.02318  0.56689  Biso   1.000  C
  O41      1.0000 0.99562  0.70967  0.40291  Biso   1.000  O
  H196     1.0000 0.96342  0.64709  0.34161  Biso   1.000  H
  H197     1.0000 0.89672  0.69810  0.34500  Biso   1.000  H
  C210     1.0000 0.92514  0.89116  0.45810  Biso   1.000  C
  H198     1.0000 0.88992  0.82838  0.50810  Biso   1.000  H
  C211     1.0000 0.98030  0.83099  0.39700  Biso   1.000  C
  H199     1.0000 0.89654  0.60518  0.55639  Biso   1.000  H
  H200     1.0000 0.98673  0.60989  0.56242  Biso   1.000  H
  C212     1.0000 0.96112  0.63199  0.62978  Biso   1.000  C
  C213     1.0000 0.85582  0.50177  0.26431  Biso   1.000  C
  O42      1.0000 0.76490  0.41631  0.26371  Biso   1.000  O
  H201     1.0000 0.73154  0.51440  0.24100  Biso   1.000  H
  O43      1.0000 0.30580  0.68178  0.17332  Biso   1.000  O
  C214     1.0000 0.41158  0.70296  0.13249  Biso   1.000  C
  H202     1.0000 0.42241  0.69350  0.21478  Biso   1.000  H
  C215     1.0000 0.25530  0.73218  0.18010  Biso   1.000  C
  O44      1.0000 0.73251  0.04774  0.30509  Biso   1.000  O
  C216     1.0000 0.80954  0.00875  0.39022  Biso   1.000  C
  C217     1.0000 0.90031  0.96060  0.47542  Biso   1.000  C
  C218     1.0000 0.47680  0.96377  0.56729  Biso   1.000  C
  C219     1.0000 0.53722  0.85309  0.56669  Biso   1.000  C
  C220     1.0000 0.68340  0.97759  0.60141  Biso   1.000  C
  C221     1.0000 0.59552  0.07491  0.58752  Biso   1.000  C
  C222     1.0000 0.95903  0.89219  0.41640  Biso   1.000  C
  O45      1.0000 0.01112  0.83119  0.35470  Biso   1.000  O
  C223     1.0000 0.90821  0.60349  0.65401  Biso   1.000  C
  C224     1.0000 0.03139  0.66100  0.66099  Biso   1.000  C
  C225     1.0000 0.85153  0.52617  0.20820  Biso   1.000  C
  H203     1.0000 0.88329  0.53630  0.29029  Biso   1.000  H
  O46      1.0000 0.89431  0.43878  0.27772  Biso   1.000  O
  C226     1.0000 0.83782  0.38628  0.27081  Biso   1.000  C
  O47      1.0000 0.48719  0.73279  0.14550  Biso   1.000  O
  H204     1.0000 0.41388  0.65461  0.12499  Biso   1.000  H
  H205     1.0000 0.37591  0.72527  0.10168  Biso   1.000  H
  C227     1.0000 0.17713  0.73520  0.12810  Biso   1.000  C
  C228     1.0000 0.22529  0.71729  0.22799  Biso   1.000  C
  C229     1.0000 0.72373  0.12076  0.30422  Biso   1.000  C
  O48      1.0000 0.87489  0.03249  0.37729  Biso   1.000  O
  H206     1.0000 0.93552  0.99529  0.46780  Biso   1.000  H
  C230     1.0000 0.90954  0.96480  0.53791  Biso   1.000  C
  C231     1.0000 0.47012  0.95026  0.61801  Biso   1.000  C
  H207     1.0000 0.45903  0.00517  0.55060  Biso   1.000  H
  C232     1.0000 0.53049  0.83958  0.61741  Biso   1.000  C
  H208     1.0000 0.55962  0.82070  0.54961  Biso   1.000  H
  H209     1.0000 0.70793  0.94320  0.58780  Biso   1.000  H
  C233     1.0000 0.69751  0.98378  0.65652  Biso   1.000  C
  C234     1.0000 0.60963  0.08100  0.64251  Biso   1.000  C
  H210     1.0000 0.56151  0.10520  0.56449  Biso   1.000  H
  O49      1.0000 0.97642  0.95108  0.39469  Biso   1.000  O
  C235     1.0000 0.09199  0.83677  0.36879  Biso   1.000  C
  C236     1.0000 0.92560  0.60410  0.70940  Biso   1.000  C
  H211     1.0000 0.86132  0.58410  0.63309  Biso   1.000  H
  H212     1.0000 0.06662  0.67999  0.64491  Biso   1.000  H
  C237     1.0000 0.04883  0.66157  0.71650  Biso   1.000  C
  O50      1.0000 0.82380  0.59387  0.20508  Biso   1.000  O
  H213     1.0000 0.90321  0.52459  0.20281  Biso   1.000  H
  H214     1.0000 0.81569  0.49777  0.18150  Biso   1.000  H
  C238     1.0000 0.83383  0.34068  0.21901  Biso   1.000  C
  C239     1.0000 0.85480  0.33971  0.32102  Biso   1.000  C
  C240     1.0000 0.51318  0.74160  0.10208  Biso   1.000  C
  H215     1.0000 0.15869  0.68961  0.11789  Biso   1.000  H
  H216     1.0000 0.19008  0.75700  0.09909  Biso   1.000  H
  H217     1.0000 0.13640  0.76078  0.13688  Biso   1.000  H
  H218     1.0000 0.17107  0.70317  0.21558  Biso   1.000  H
  H219     1.0000 0.22959  0.75787  0.24918  Biso   1.000  H
  H220     1.0000 0.25638  0.68147  0.24910  Biso   1.000  H
  C241     1.0000 0.69912  0.13979  0.24559  Biso   1.000  C
  H221     1.0000 0.77313  0.14276  0.32301  Biso   1.000  H
  H222     1.0000 0.68362  0.13442  0.32062  Biso   1.000  H
  C242     1.0000 0.91522  0.98286  0.35510  Biso   1.000  C
  H223     1.0000 0.87030  0.93609  0.54649  Biso   1.000  H
  H224     1.0000 0.96153  0.94898  0.55839  Biso   1.000  H
  C243     1.0000 0.89822  0.03889  0.55108  Biso   1.000  C
  H225     1.0000 0.44778  0.98265  0.63509  Biso   1.000  H
  C244     1.0000 0.49699  0.88820  0.64299  Biso   1.000  C
  H226     1.0000 0.54843  0.79829  0.63409  Biso   1.000  H
  H227     1.0000 0.73150  0.95338  0.67951  Biso   1.000  H
  C245     1.0000 0.66071  0.03541  0.67699  Biso   1.000  C
  H228     1.0000 0.58502  0.11539  0.65620  Biso   1.000  H
  C246     1.0000 0.11671  0.85279  0.32209  Biso   1.000  C
  H229     1.0000 0.11590  0.79410  0.38431  Biso   1.000  H
  H230     1.0000 0.10945  0.87259  0.39520  Biso   1.000  H
  C247     1.0000 0.99590  0.63307  0.74068  Biso   1.000  C
  H231     1.0000 0.89031  0.58507  0.72560  Biso   1.000  H
  H232     1.0000 0.09561  0.68096  0.73729  Biso   1.000  H
  C248     1.0000 0.81202  0.62068  0.15480  Biso   1.000  C
  H233     1.0000 0.88582  0.33557  0.21550  Biso   1.000  H
  H234     1.0000 0.80053  0.36289  0.18780  Biso   1.000  H
  H235     1.0000 0.81262  0.29637  0.22268  Biso   1.000  H
  H236     1.0000 0.87451  0.29627  0.31351  Biso   1.000  H
  H237     1.0000 0.80701  0.33291  0.33039  Biso   1.000  H
  H238     1.0000 0.89341  0.36120  0.35019  Biso   1.000  H
  C249     1.0000 0.50424  0.80438  0.07570  Biso   1.000  C
  C250     1.0000 0.55453  0.68869  0.08660  Biso   1.000  C
  C251     1.0000 0.62021  0.11661  0.21510  Biso   1.000  C
  O51      1.0000 0.70429  0.21112  0.23988  Biso   1.000  O
  H239     1.0000 0.73680  0.11846  0.22971  Biso   1.000  H
  H240     1.0000 0.87794  0.94847  0.33630  Biso   1.000  H
  H241     1.0000 0.93695  0.00501  0.32952  Biso   1.000  H
  H242     1.0000 0.93970  0.06555  0.54350  Biso   1.000  H
  H243     1.0000 0.84862  0.05444  0.52682  Biso   1.000  H
  C252     1.0000 0.89771  0.05593  0.60640  Biso   1.000  C
  H244     1.0000 0.49249  0.87929  0.67679  Biso   1.000  H
  H245     1.0000 0.67010  0.03950  0.71371  Biso   1.000  H
  C253     1.0000 0.09392  0.91900  0.29651  Biso   1.000  C
  O52      1.0000 0.20231  0.84956  0.33451  Biso   1.000  O
  H246     1.0000 0.09484  0.81738  0.29540  Biso   1.000  H
  H247     1.0000 0.00752  0.63347  0.77772  Biso   1.000  H
  C254     1.0000 0.73673  0.61449  0.11880  Biso   1.000  C
  C255     1.0000 0.87035  0.65686  0.14051  Biso   1.000  C
  O53      1.0000 0.45950  0.85258  0.09131  Biso   1.000  O
  C256     1.0000 0.53650  0.81436  0.03388  Biso   1.000  C
  O54      1.0000 0.55731  0.62539  0.11270  Biso   1.000  O
  C257     1.0000 0.58681  0.69866  0.04470  Biso   1.000  C
  C258     1.0000 0.60803  0.09384  0.15939  Biso   1.000  C
  H248     1.0000 0.60252  0.08075  0.23510  Biso   1.000  H
  O55      1.0000 0.57349  0.17935  0.21418  Biso   1.000  O
  C259     1.0000 0.62663  0.23737  0.22632  Biso   1.000  C
  C260     1.0000 0.85991  0.11513  0.61569  Biso   1.000  C
  C261     1.0000 0.93629  0.01346  0.64890  Biso   1.000  C
  C262     1.0000 0.06450  0.92038  0.23861  Biso   1.000  C
  H249     1.0000 0.05504  0.94049  0.31132  Biso   1.000  H
  O56      1.0000 0.16392  0.95866  0.31048  Biso   1.000  O
  C263     1.0000 0.22950  0.91506  0.33690  Biso   1.000  C
  O57      1.0000 0.68139  0.57530  0.13309  Biso   1.000  O
  C264     1.0000 0.71970  0.64458  0.06848  Biso   1.000  C
  C265     1.0000 0.85345  0.68700  0.09011  Biso   1.000  C
  O58      1.0000 0.94511  0.65809  0.17711  Biso   1.000  O
  C266     1.0000 0.50222  0.90559  0.12639  Biso   1.000  C
  C267     1.0000 0.57782  0.76150  0.01832  Biso   1.000  C
  C268     1.0000 0.52928  0.88528  0.00950  Biso   1.000  C
  C269     1.0000 0.62811  0.61219  0.15209  Biso   1.000  C
  C270     1.0000 0.63343  0.63977  0.03109  Biso   1.000  C
  O59      1.0000 0.64483  0.02599  0.16649  Biso   1.000  O
  H250     1.0000 0.55228  0.09103  0.14000  Biso   1.000  H
  H251     1.0000 0.63362  0.12439  0.14059  Biso   1.000  H
  C271     1.0000 0.61541  0.27729  0.17188  Biso   1.000  C
  C272     1.0000 0.60962  0.27693  0.26989  Biso   1.000  C
  H252     1.0000 0.83419  0.14338  0.58740  Biso   1.000  H
  C273     1.0000 0.86074  0.13202  0.66761  Biso   1.000  C
  H253     1.0000 0.96154  0.97406  0.64259  Biso   1.000  H
  C274     1.0000 0.93713  0.03039  0.70070  Biso   1.000  C
  O60      1.0000 0.98570  0.89239  0.22552  Biso   1.000  O
  H254     1.0000 0.06335  0.96689  0.22552  Biso   1.000  H
  H255     1.0000 0.09761  0.89285  0.22308  Biso   1.000  H
  C275     1.0000 0.26251  0.94755  0.39321  Biso   1.000  C
  C276     1.0000 0.29209  0.92458  0.30749  Biso   1.000  C
  C277     1.0000 0.77805  0.68086  0.05411  Biso   1.000  C
  C278     1.0000 0.91812  0.72696  0.07758  Biso   1.000  C
  C279     1.0000 0.96371  0.71826  0.20820  Biso   1.000  C
  O61      1.0000 0.51812  0.96219  0.09961  Biso   1.000  O
  H256     1.0000 0.47169  0.91987  0.14961  Biso   1.000  H
  H257     1.0000 0.55160  0.88676  0.14862  Biso   1.000  H
  H258     1.0000 0.59930  0.76810  0.99038  Biso   1.000  H
  C280     1.0000 0.59738  0.92847  0.04258  Biso   1.000  C
  H259     1.0000 0.48068  0.90549  0.01329  Biso   1.000  H
  C281     1.0000 0.52220  0.88589  0.94920  Biso   1.000  C
  H260     1.0000 0.65202  0.65538  0.16669  Biso   1.000  H
  H261     1.0000 0.61709  0.58671  0.18090  Biso   1.000  H
  H262     1.0000 0.61121  0.59781  0.04110  Biso   1.000  H
  C282     1.0000 0.62608  0.63296  0.97198  Biso   1.000  C
  C283     1.0000 0.65169  0.99770  0.12120  Biso   1.000  C
  H263     1.0000 0.56033  0.27949  0.15261  Biso   1.000  H
  H264     1.0000 0.64299  0.25359  0.15081  Biso   1.000  H
  H265     1.0000 0.63612  0.32278  0.17930  Biso   1.000  H
  H266     1.0000 0.63939  0.31873  0.27548  Biso   1.000  H
  H267     1.0000 0.62409  0.25032  0.30210  Biso   1.000  H
  H268     1.0000 0.55433  0.28732  0.26032  Biso   1.000  H
  H269     1.0000 0.83550  0.17137  0.67380  Biso   1.000  H
  C284     1.0000 0.89932  0.08965  0.71012  Biso   1.000  C
  H270     1.0000 0.96290  0.00215  0.72899  Biso   1.000  H
  C285     1.0000 0.95090  0.87909  0.17140  Biso   1.000  C
  H271     1.0000 0.31305  0.92785  0.41101  Biso   1.000  H
  H272     1.0000 0.22672  0.93885  0.41368  Biso   1.000  H
  H273     1.0000 0.26813  0.99606  0.38970  Biso   1.000  H
  H274     1.0000 0.34383  0.92258  0.33279  Biso   1.000  H
  H275     1.0000 0.28491  0.96828  0.29001  Biso   1.000  H
  H276     1.0000 0.28683  0.88896  0.28151  Biso   1.000  H
  H277     1.0000 0.76674  0.70086  0.02051  Biso   1.000  H
  C286     1.0000 0.91480  0.79937  0.09769  Biso   1.000  C
  H278     1.0000 0.96770  0.70747  0.10001  Biso   1.000  H
  C287     1.0000 0.92162  0.72179  0.01959  Biso   1.000  C
  H279     1.0000 0.99744  0.70680  0.24360  Biso   1.000  H
  H280     1.0000 0.91564  0.73827  0.21191  Biso   1.000  H
  O62      1.0000 0.00290  0.76687  0.18441  Biso   1.000  O
  C288     1.0000 0.58860  0.96147  0.08772  Biso   1.000  C
  C289     1.0000 0.66921  0.93179  0.03109  Biso   1.000  C
  H281     1.0000 0.57219  0.87269  0.94421  Biso   1.000  H
  H282     1.0000 0.48261  0.85299  0.93068  Biso   1.000  H
  C290     1.0000 0.49913  0.95748  0.92569  Biso   1.000  C
  H283     1.0000 0.57091  0.63690  0.95159  Biso   1.000  H
  H284     1.0000 0.65400  0.67067  0.96161  Biso   1.000  H
  C291     1.0000 0.65742  0.56777  0.95770  Biso   1.000  C
  C292     1.0000 0.72352  0.00102  0.10971  Biso   1.000  C
  H285     1.0000 0.89991  0.10080  0.74460  Biso   1.000  H
  C293     1.0000 0.90554  0.92969  0.13892  Biso   1.000  C
  C294     1.0000 0.95559  0.81400  0.15069  Biso   1.000  C
  C295     1.0000 0.86931  0.84997  0.06529  Biso   1.000  C
  H286     1.0000 0.92053  0.67410  0.00910  Biso   1.000  H
  C296     1.0000 0.99662  0.75510  0.01560  Biso   1.000  C
  H287     1.0000 0.87619  0.74446  0.99569  Biso   1.000  H
  C297     1.0000 0.73220  0.96797  0.06461  Biso   1.000  C
  H288     1.0000 0.67499  0.90989  0.00100  Biso   1.000  H
  H289     1.0000 0.44443  0.96587  0.92390  Biso   1.000  H
  H290     1.0000 0.53113  0.99110  0.94992  Biso   1.000  H
  C298     1.0000 0.50831  0.96797  0.87230  Biso   1.000  C
  H291     1.0000 0.63141  0.53078  0.97051  Biso   1.000  H
  H292     1.0000 0.71289  0.56547  0.97749  Biso   1.000  H
  C299     1.0000 0.65031  0.55319  0.89979  Biso   1.000  C
  O63      1.0000 0.78149  0.04493  0.13960  Biso   1.000  O
  C300     1.0000 0.86473  0.91506  0.08588  Biso   1.000  C
  O64      1.0000 0.90478  0.99539  0.16039  Biso   1.000  O
  H293     1.0000 0.84211  0.84030  0.02989  Biso   1.000  H
  H294     1.0000 0.99134  0.80418  0.01860  Biso   1.000  H
  C301     1.0000 0.01891  0.74047  0.96540  Biso   1.000  C
  H295     1.0000 0.03972  0.74037  0.04601  Biso   1.000  H
  C302     1.0000 0.81061  0.96879  0.05320  Biso   1.000  C
  C303     1.0000 0.44668  0.95236  0.82668  Biso   1.000  C
  C304     1.0000 0.57941  0.99319  0.86751  Biso   1.000  C
  C305     1.0000 0.60543  0.59448  0.85861  Biso   1.000  C
  C306     1.0000 0.68802  0.49527  0.88810  Biso   1.000  C
  C307     1.0000 0.84273  0.01095  0.17839  Biso   1.000  C
  C308     1.0000 0.02969  0.79686  0.93579  Biso   1.000  C
  C309     1.0000 0.03353  0.67456  0.95012  Biso   1.000  C
  C310     1.0000 0.80239  0.96536  0.99250  Biso   1.000  C
  H296     1.0000 0.83482  0.01315  0.06581  Biso   1.000  H
  H297     1.0000 0.39930  0.93558  0.82991  Biso   1.000  H
  C311     1.0000 0.45622  0.96208  0.77620  Biso   1.000  C
  C312     1.0000 0.58888  0.00276  0.81698  Biso   1.000  C
  H298     1.0000 0.62053  0.00353  0.89792  Biso   1.000  H
  H299     1.0000 0.58021  0.63307  0.86651  Biso   1.000  H
  C313     1.0000 0.59808  0.57791  0.80569  Biso   1.000  C
  C314     1.0000 0.68069  0.47869  0.83510  Biso   1.000  C
  H300     1.0000 0.71792  0.46769  0.91552  Biso   1.000  H
  H301     1.0000 0.82201  0.96899  0.18900  Biso   1.000  H
  H302     1.0000 0.86081  0.03966  0.20971  Biso   1.000  H
  H303     1.0000 0.02001  0.84076  0.94601  Biso   1.000  H
  C315     1.0000 0.05533  0.78749  0.89081  Biso   1.000  C
  C316     1.0000 0.05915  0.66520  0.90522  Biso   1.000  C
  H304     1.0000 0.02635  0.63701  0.96991  Biso   1.000  H
  H305     1.0000 0.78442  0.91997  0.97949  Biso   1.000  H
  H306     1.0000 0.76203  0.99770  0.97390  Biso   1.000  H
  C317     1.0000 0.87469  0.98030  0.97861  Biso   1.000  C
  H307     1.0000 0.41510  0.95170  0.74579  Biso   1.000  H
  C318     1.0000 0.52732  0.98716  0.77141  Biso   1.000  C
  H308     1.0000 0.63633  0.01960  0.81379  Biso   1.000  H
  H309     1.0000 0.56809  0.60538  0.77819  Biso   1.000  H
  C319     1.0000 0.63582  0.51998  0.79392  Biso   1.000  C
  H310     1.0000 0.70592  0.44011  0.82720  Biso   1.000  H
  H311     1.0000 0.06249  0.82510  0.87110  Biso   1.000  H
  C320     1.0000 0.06993  0.72159  0.87549  Biso   1.000  C
  H312     1.0000 0.06883  0.62130  0.89500  Biso   1.000  H
  H313     1.0000 0.91689  0.95006  0.99781  Biso   1.000  H
  C321     1.0000 0.85563  0.96899  0.91759  Biso   1.000  C
  H314     1.0000 0.89112  0.02722  0.98771  Biso   1.000  H
  H315     1.0000 0.53360  0.99366  0.73781  Biso   1.000  H
  H316     1.0000 0.63103  0.50888  0.75860  Biso   1.000  H
  H317     1.0000 0.08702  0.71540  0.84560  Biso   1.000  H
  C322     1.0000 0.85568  0.90718  0.89089  Biso   1.000  C
  C323     1.0000 0.84171  0.03024  0.88910  Biso   1.000  C
  H318     1.0000 0.86500  0.86640  0.90989  Biso   1.000  H
  C324     1.0000 0.84182  0.90667  0.83570  Biso   1.000  C
  C325     1.0000 0.82779  0.02978  0.83390  Biso   1.000  C
  H319     1.0000 0.84163  0.07138  0.90682  Biso   1.000  H
  H320     1.0000 0.84191  0.86558  0.81798  Biso   1.000  H
  C326     1.0000 0.82790  0.96797  0.80721  Biso   1.000  C
  H321     1.0000 0.81854  0.07061  0.81479  Biso   1.000  H
  H322     1.0000 0.81864  0.96766  0.77041  Biso   1.000  H
  Ne1      1.0000 0.25804  0.31997  0.73686  Biso   1.000  Ne
  He1      1.0000 0.27715  0.30603  0.96306  Biso   1.000  He
  He2      1.0000 0.45294  0.48868  0.80235  Biso   1.000  He
  He3      1.0000 0.46620  0.14186  0.79678  Biso   1.000  He
  He4      1.0000 0.05778  0.48318  0.73742  Biso   1.000  He
  He5      1.0000 0.06615  0.13253  0.73157  Biso   1.000  He
  He6      1.0000 0.23982  0.32257  0.54061  Biso   1.000  He
  Ar1      1.0000 0.25898  0.31069  0.74908  Biso   1.000  Ar
  Ne2      1.0000 0.74198  0.81996  0.26314  Biso   1.000  Ne
  He7      1.0000 0.76063  0.81828  0.46102  Biso   1.000  He
  He8      1.0000 0.97463  0.60289  0.26972  Biso   1.000  He
  He9      1.0000 0.82955  0.02113  0.26883  Biso   1.000  He
  He10     1.0000 0.53445  0.64237  0.20344  Biso   1.000  He
  He11     1.0000 0.56389  0.97309  0.20443  Biso   1.000  He
  He12     1.0000 0.72309  0.80611  0.03829  Biso   1.000  He
  Ar2      1.0000 0.74096  0.81088  0.25071  Biso   1.000  Ar
