data_image0
_cell_length_a       38.182
_cell_length_b       38.182
_cell_length_c       25.323
_cell_angle_alpha    90
_cell_angle_beta     90
_cell_angle_gamma    90

_symmetry_space_group_name_H-M    "P 1"
_symmetry_int_tables_number       1

loop_
  _symmetry_equiv_pos_as_xyz
  'x, y, z'

loop_
  _atom_site_label
  _atom_site_occupancy
  _atom_site_fract_x
  _atom_site_fract_y
  _atom_site_fract_z
  _atom_site_thermal_displace_type
  _atom_site_B_iso_or_equiv
  _atom_site_type_symbol
  C1       1.0000 0.57716  0.57435  0.51882  Biso   1.000  C
  C2       1.0000 0.60303  0.59612  0.49678  Biso   1.000  C
  H1       1.0000 0.55859  0.56579  0.49741  Biso   1.000  H
  C3       1.0000 0.57886  0.56521  0.57268  Biso   1.000  C
  C4       1.0000 0.60240  0.60646  0.43921  Biso   1.000  C
  C5       1.0000 0.63038  0.60733  0.52885  Biso   1.000  C
  H2       1.0000 0.56050  0.55170  0.58781  Biso   1.000  H
  C6       1.0000 0.60652  0.57545  0.60388  Biso   1.000  C
  C7       1.0000 0.57658  0.63035  0.42112  Biso   1.000  C
  C8       1.0000 0.62820  0.59332  0.40520  Biso   1.000  C
  C9       1.0000 0.63239  0.59722  0.58168  Biso   1.000  C
  H3       1.0000 0.64800  0.62210  0.51451  Biso   1.000  H
  C10      1.0000 0.61068  0.56582  0.65952  Biso   1.000  C
  C11      1.0000 0.54751  0.64295  0.45646  Biso   1.000  C
  C12      1.0000 0.57823  0.64135  0.36808  Biso   1.000  C
  C13      1.0000 0.62956  0.60481  0.35300  Biso   1.000  C
  C14      1.0000 0.65389  0.56532  0.42416  Biso   1.000  C
  H4       1.0000 0.65141  0.60510  0.60289  Biso   1.000  H
  N1       1.0000 0.58755  0.54900  0.68546  Biso   1.000  N
  H5       1.0000 0.63169  0.57239  0.67709  Biso   1.000  H
  C15      1.0000 0.51260  0.62480  0.44501  Biso   1.000  C
  H6       1.0000 0.55411  0.63860  0.49370  Biso   1.000  H
  H7       1.0000 0.54460  0.66851  0.45180  Biso   1.000  H
  C16      1.0000 0.55133  0.66772  0.34858  Biso   1.000  C
  C17      1.0000 0.60374  0.62886  0.33365  Biso   1.000  C
  C18      1.0000 0.65740  0.59261  0.31627  Biso   1.000  C
  H8       1.0000 0.66170  0.57119  0.46041  Biso   1.000  H
  H9       1.0000 0.67479  0.56561  0.40098  Biso   1.000  H
  C19      1.0000 0.63860  0.52910  0.42428  Biso   1.000  C
  C20      1.0000 0.59667  0.54007  0.74012  Biso   1.000  C
  H10      1.0000 0.49390  0.63640  0.46491  Biso   1.000  H
  H11      1.0000 0.50749  0.62629  0.40710  Biso   1.000  H
  H12      1.0000 0.51399  0.60020  0.45559  Biso   1.000  H
  C21      1.0000 0.52517  0.65793  0.31371  Biso   1.000  C
  C22      1.0000 0.55235  0.70190  0.36599  Biso   1.000  C
  C23      1.0000 0.60395  0.63931  0.27568  Biso   1.000  C
  C24      1.0000 0.65848  0.55893  0.29590  Biso   1.000  C
  C25      1.0000 0.68393  0.61592  0.30020  Biso   1.000  C
  H13      1.0000 0.61841  0.52839  0.44821  Biso   1.000  H
  H14      1.0000 0.63111  0.52289  0.38850  Biso   1.000  H
  H15      1.0000 0.65641  0.51239  0.43628  Biso   1.000  H
  H16      1.0000 0.59719  0.51430  0.74411  Biso   1.000  H
  H17      1.0000 0.62040  0.54919  0.74821  Biso   1.000  H
  C26      1.0000 0.57066  0.55526  0.77890  Biso   1.000  C
  C27      1.0000 0.50013  0.68244  0.29621  Biso   1.000  C
  H18      1.0000 0.52410  0.63441  0.30150  Biso   1.000  H
  H19      1.0000 0.57050  0.70900  0.38929  Biso   1.000  H
  C28      1.0000 0.52703  0.72639  0.34992  Biso   1.000  C
  H20      1.0000 0.62831  0.64489  0.26509  Biso   1.000  H
  H21      1.0000 0.58981  0.66081  0.27129  Biso   1.000  H
  C29      1.0000 0.58981  0.61120  0.23931  Biso   1.000  C
  H22      1.0000 0.64101  0.54269  0.30620  Biso   1.000  H
  C30      1.0000 0.68456  0.54814  0.26063  Biso   1.000  C
  C31      1.0000 0.70903  0.60555  0.26399  Biso   1.000  C
  H23      1.0000 0.68459  0.63889  0.31438  Biso   1.000  H
  N2       1.0000 0.57569  0.59248  0.78810  Biso   1.000  N
  H24      1.0000 0.57281  0.54269  0.81290  Biso   1.000  H
  H25      1.0000 0.54670  0.55139  0.76531  Biso   1.000  H
  C32      1.0000 0.50092  0.71638  0.31406  Biso   1.000  C
  H26      1.0000 0.48250  0.67540  0.27189  Biso   1.000  H
  H27      1.0000 0.52760  0.74959  0.36331  Biso   1.000  H
  H28      1.0000 0.56621  0.60450  0.25068  Biso   1.000  H
  H29      1.0000 0.58879  0.62019  0.20310  Biso   1.000  H
  H30      1.0000 0.60521  0.59059  0.24049  Biso   1.000  H
  H31      1.0000 0.68501  0.52459  0.24839  Biso   1.000  H
  C33      1.0000 0.71005  0.57200  0.24330  Biso   1.000  C
  H32      1.0000 0.72610  0.62210  0.25289  Biso   1.000  H
  C34      1.0000 0.54319  0.60929  0.80551  Biso   1.000  C
  C35      1.0000 0.60335  0.59821  0.82723  Biso   1.000  C
  C36      1.0000 0.47512  0.74313  0.29807  Biso   1.000  C
  C37      1.0000 0.73721  0.56246  0.20428  Biso   1.000  C
  C38      1.0000 0.51943  0.61770  0.75899  Biso   1.000  C
  H33      1.0000 0.53070  0.59360  0.83019  Biso   1.000  H
  H34      1.0000 0.54890  0.63119  0.82459  Biso   1.000  H
  C39      1.0000 0.62103  0.63341  0.82166  Biso   1.000  C
  H35      1.0000 0.59311  0.59641  0.86309  Biso   1.000  H
  H36      1.0000 0.62121  0.57949  0.82360  Biso   1.000  H
  N3       1.0000 0.45333  0.73912  0.26111  Biso   1.000  N
  H37      1.0000 0.47491  0.76471  0.31671  Biso   1.000  H
  N4       1.0000 0.73933  0.53253  0.18442  Biso   1.000  N
  H38      1.0000 0.75371  0.57980  0.19382  Biso   1.000  H
  N5       1.0000 0.53130  0.64910  0.73210  Biso   1.000  N
  H39      1.0000 0.49521  0.62121  0.77179  Biso   1.000  H
  H40      1.0000 0.51941  0.59779  0.73400  Biso   1.000  H
  N6       1.0000 0.64695  0.63208  0.77894  Biso   1.000  N
  H41      1.0000 0.63271  0.63970  0.85531  Biso   1.000  H
  H42      1.0000 0.60329  0.65159  0.81381  Biso   1.000  H
  C40      1.0000 0.42866  0.76759  0.25068  Biso   1.000  C
  C41      1.0000 0.76691  0.52758  0.14378  Biso   1.000  C
  C42      1.0000 0.54225  0.64622  0.68491  Biso   1.000  C
  C43      1.0000 0.64051  0.64915  0.73708  Biso   1.000  C
  C44      1.0000 0.43060  0.78039  0.19405  Biso   1.000  C
  H43      1.0000 0.40459  0.75939  0.25818  Biso   1.000  H
  H44      1.0000 0.43379  0.78731  0.27481  Biso   1.000  H
  H45      1.0000 0.75609  0.51880  0.11089  Biso   1.000  H
  H46      1.0000 0.77798  0.55039  0.13600  Biso   1.000  H
  C45      1.0000 0.79430  0.50230  0.16191  Biso   1.000  C
  C46      1.0000 0.55434  0.67595  0.65348  Biso   1.000  C
  H47      1.0000 0.54259  0.62359  0.66931  Biso   1.000  H
  C47      1.0000 0.66529  0.64921  0.69265  Biso   1.000  C
  H48      1.0000 0.61930  0.66209  0.73439  Biso   1.000  H
  N7       1.0000 0.46022  0.80417  0.18473  Biso   1.000  N
  H49      1.0000 0.40849  0.79270  0.18521  Biso   1.000  H
  H50      1.0000 0.43280  0.75999  0.17020  Biso   1.000  H
  N8       1.0000 0.81931  0.51862  0.20002  Biso   1.000  N
  H51      1.0000 0.80740  0.49361  0.13091  Biso   1.000  H
  H52      1.0000 0.78280  0.48201  0.17901  Biso   1.000  H
  C48      1.0000 0.55047  0.71068  0.66923  Biso   1.000  C
  C49      1.0000 0.57040  0.66963  0.60431  Biso   1.000  C
  C50      1.0000 0.69588  0.62841  0.69309  Biso   1.000  C
  C51      1.0000 0.65926  0.67037  0.64929  Biso   1.000  C
  C52      1.0000 0.45197  0.83961  0.20278  Biso   1.000  C
  C53      1.0000 0.46930  0.80465  0.12799  Biso   1.000  C
  C54      1.0000 0.84590  0.53798  0.17111  Biso   1.000  C
  C55      1.0000 0.83500  0.49141  0.23331  Biso   1.000  C
  C56      1.0000 0.56163  0.73804  0.63792  Biso   1.000  C
  H53      1.0000 0.53989  0.71560  0.70240  Biso   1.000  H
  H54      1.0000 0.57299  0.64630  0.59191  Biso   1.000  H
  C57      1.0000 0.58226  0.69732  0.57426  Biso   1.000  C
  C58      1.0000 0.71953  0.63001  0.65233  Biso   1.000  C
  H55      1.0000 0.70020  0.61309  0.72199  Biso   1.000  H
  H56      1.0000 0.63870  0.68441  0.64799  Biso   1.000  H
  C59      1.0000 0.68291  0.67136  0.60751  Biso   1.000  C
  H57      1.0000 0.43919  0.85229  0.17470  Biso   1.000  H
  H58      1.0000 0.43649  0.83830  0.23421  Biso   1.000  H
  C60      1.0000 0.48544  0.85986  0.21700  Biso   1.000  C
  H59      1.0000 0.44749  0.80499  0.10690  Biso   1.000  H
  H60      1.0000 0.48250  0.82631  0.12001  Biso   1.000  H
  C61      1.0000 0.49115  0.77311  0.11219  Biso   1.000  C
  C62      1.0000 0.86116  0.56794  0.20590  Biso   1.000  C
  H61      1.0000 0.86499  0.52190  0.16049  Biso   1.000  H
  H62      1.0000 0.83550  0.54809  0.13869  Biso   1.000  H
  C63      1.0000 0.81190  0.48041  0.27939  Biso   1.000  C
  H63      1.0000 0.84000  0.47059  0.21119  Biso   1.000  H
  H64      1.0000 0.85760  0.50021  0.24729  Biso   1.000  H
  C64      1.0000 0.57875  0.73184  0.58978  Biso   1.000  C
  H65      1.0000 0.55770  0.76148  0.64909  Biso   1.000  H
  H66      1.0000 0.59329  0.69239  0.54148  Biso   1.000  H
  C65      1.0000 0.71398  0.65206  0.60846  Biso   1.000  C
  H67      1.0000 0.74001  0.61600  0.65371  Biso   1.000  H
  H68      1.0000 0.67781  0.68551  0.57770  Biso   1.000  H
  N9       1.0000 0.49678  0.85040  0.27047  Biso   1.000  N
  H69      1.0000 0.48091  0.88529  0.21518  Biso   1.000  H
  H70      1.0000 0.50419  0.85420  0.19141  Biso   1.000  H
  N10      1.0000 0.52671  0.77657  0.13107  Biso   1.000  N
  H71      1.0000 0.49130  0.77089  0.07329  Biso   1.000  H
  H72      1.0000 0.48059  0.75158  0.12720  Biso   1.000  H
  N11      1.0000 0.83770  0.59840  0.20341  Biso   1.000  N
  H73      1.0000 0.88468  0.57449  0.19299  Biso   1.000  H
  H74      1.0000 0.86339  0.55990  0.24290  Biso   1.000  H
  N12      1.0000 0.81384  0.50668  0.32200  Biso   1.000  N
  H75      1.0000 0.81971  0.45739  0.29301  Biso   1.000  H
  H76      1.0000 0.78731  0.47810  0.26731  Biso   1.000  H
  C66      1.0000 0.59154  0.76114  0.55562  Biso   1.000  C
  C67      1.0000 0.74022  0.65552  0.56490  Biso   1.000  C
  C68      1.0000 0.52407  0.83186  0.27445  Biso   1.000  C
  C69      1.0000 0.53677  0.75575  0.16692  Biso   1.000  C
  C70      1.0000 0.82366  0.60749  0.24669  Biso   1.000  C
  C71      1.0000 0.78621  0.52525  0.32899  Biso   1.000  C
  C72      1.0000 0.57352  0.76973  0.50863  Biso   1.000  C
  C73      1.0000 0.62328  0.77840  0.56897  Biso   1.000  C
  C74      1.0000 0.74771  0.62760  0.53094  Biso   1.000  C
  C75      1.0000 0.75651  0.68886  0.55732  Biso   1.000  C
  H77      1.0000 0.53559  0.82418  0.24330  Biso   1.000  H
  C76      1.0000 0.53834  0.82188  0.32626  Biso   1.000  C
  H78      1.0000 0.52059  0.73899  0.18031  Biso   1.000  H
  C77      1.0000 0.57197  0.75646  0.18845  Biso   1.000  C
  C78      1.0000 0.80012  0.63800  0.25040  Biso   1.000  C
  H79      1.0000 0.82851  0.59429  0.27769  Biso   1.000  H
  C79      1.0000 0.78414  0.55228  0.37030  Biso   1.000  C
  H80      1.0000 0.76649  0.52140  0.30691  Biso   1.000  H
  C80      1.0000 0.58763  0.79503  0.47451  Biso   1.000  C
  C81      1.0000 0.53926  0.75137  0.49599  Biso   1.000  C
  C82      1.0000 0.63679  0.80376  0.53359  Biso   1.000  C
  C83      1.0000 0.64088  0.77144  0.62181  Biso   1.000  C
  C84      1.0000 0.77057  0.63281  0.48817  Biso   1.000  C
  C85      1.0000 0.73194  0.59143  0.54034  Biso   1.000  C
  C86      1.0000 0.77950  0.69297  0.51530  Biso   1.000  C
  C87      1.0000 0.74986  0.71793  0.59653  Biso   1.000  C
  C88      1.0000 0.52205  0.82976  0.37318  Biso   1.000  C
  C89      1.0000 0.57058  0.80355  0.32745  Biso   1.000  C
  C90      1.0000 0.58098  0.73613  0.23220  Biso   1.000  C
  C91      1.0000 0.59855  0.77835  0.16759  Biso   1.000  C
  C92      1.0000 0.78589  0.64745  0.29890  Biso   1.000  C
  C93      1.0000 0.79103  0.65767  0.20641  Biso   1.000  C
  C94      1.0000 0.75237  0.57095  0.37492  Biso   1.000  C
  C95      1.0000 0.81122  0.56011  0.40520  Biso   1.000  C
  C96      1.0000 0.57014  0.80305  0.42305  Biso   1.000  C
  C97      1.0000 0.61943  0.81227  0.48675  Biso   1.000  C
  H81      1.0000 0.53360  0.75488  0.45820  Biso   1.000  H
  H82      1.0000 0.54201  0.72589  0.50219  Biso   1.000  H
  C98      1.0000 0.50870  0.76523  0.52980  Biso   1.000  C
  C99      1.0000 0.67170  0.81999  0.54512  Biso   1.000  C
  H83      1.0000 0.66660  0.77138  0.61679  Biso   1.000  H
  H84      1.0000 0.63389  0.74800  0.63460  Biso   1.000  H
  C100     1.0000 0.63148  0.79828  0.66288  Biso   1.000  C
  C101     1.0000 0.77597  0.60432  0.44849  Biso   1.000  C
  C102     1.0000 0.78731  0.66523  0.48047  Biso   1.000  C
  H85      1.0000 0.71099  0.59379  0.56308  Biso   1.000  H
  H86      1.0000 0.72429  0.58150  0.50610  Biso   1.000  H
  C103     1.0000 0.75790  0.56629  0.56648  Biso   1.000  C
  C104     1.0000 0.79543  0.72820  0.50472  Biso   1.000  C
  H87      1.0000 0.72429  0.71989  0.60269  Biso   1.000  H
  H88      1.0000 0.75800  0.74040  0.58129  Biso   1.000  H
  C105     1.0000 0.76793  0.71198  0.64819  Biso   1.000  C
  H89      1.0000 0.49990  0.84110  0.37310  Biso   1.000  H
  C106     1.0000 0.53816  0.82112  0.42120  Biso   1.000  C
  C107     1.0000 0.58556  0.79446  0.37551  Biso   1.000  C
  H90      1.0000 0.58200  0.79750  0.29538  Biso   1.000  H
  H91      1.0000 0.56369  0.72139  0.24760  Biso   1.000  H
  C108     1.0000 0.61406  0.73671  0.25380  Biso   1.000  C
  C109     1.0000 0.63124  0.77856  0.18848  Biso   1.000  C
  H92      1.0000 0.59339  0.79320  0.13849  Biso   1.000  H
  C110     1.0000 0.76376  0.67592  0.30352  Biso   1.000  C
  H93      1.0000 0.79150  0.63409  0.32938  Biso   1.000  H
  H94      1.0000 0.79991  0.65141  0.17269  Biso   1.000  H
  C111     1.0000 0.76908  0.68629  0.21163  Biso   1.000  C
  C112     1.0000 0.74894  0.59641  0.41279  Biso   1.000  C
  H95      1.0000 0.73341  0.56589  0.35181  Biso   1.000  H
  H96      1.0000 0.83291  0.54801  0.40248  Biso   1.000  H
  C113     1.0000 0.80711  0.58480  0.44300  Biso   1.000  C
  C114     1.0000 0.63449  0.83992  0.45062  Biso   1.000  C
  H97      1.0000 0.51370  0.76091  0.56719  Biso   1.000  H
  H98      1.0000 0.50589  0.79040  0.52391  Biso   1.000  H
  H99      1.0000 0.48709  0.75310  0.51988  Biso   1.000  H
  C115     1.0000 0.70222  0.79996  0.53836  Biso   1.000  C
  C116     1.0000 0.67579  0.85407  0.56301  Biso   1.000  C
  H100     1.0000 0.64289  0.79228  0.69628  Biso   1.000  H
  H101     1.0000 0.63939  0.82141  0.65119  Biso   1.000  H
  H102     1.0000 0.60599  0.79860  0.66781  Biso   1.000  H
  C117     1.0000 0.81329  0.67058  0.43561  Biso   1.000  C
  H103     1.0000 0.76900  0.57789  0.59669  Biso   1.000  H
  H104     1.0000 0.74540  0.54539  0.57880  Biso   1.000  H
  H105     1.0000 0.77589  0.55940  0.54089  Biso   1.000  H
  C118     1.0000 0.78244  0.74938  0.46404  Biso   1.000  C
  C119     1.0000 0.82374  0.74100  0.53497  Biso   1.000  C
  H106     1.0000 0.76581  0.73299  0.67010  Biso   1.000  H
  H107     1.0000 0.75701  0.69211  0.66639  Biso   1.000  H
  H108     1.0000 0.79270  0.70690  0.64191  Biso   1.000  H
  H109     1.0000 0.52711  0.82769  0.45330  Biso   1.000  H
  H110     1.0000 0.60709  0.78189  0.37571  Biso   1.000  H
  H111     1.0000 0.61919  0.72241  0.28350  Biso   1.000  H
  C120     1.0000 0.64025  0.75826  0.23244  Biso   1.000  C
  H112     1.0000 0.64860  0.79299  0.17269  Biso   1.000  H
  C121     1.0000 0.75543  0.69614  0.25984  Biso   1.000  C
  H113     1.0000 0.75420  0.68171  0.33701  Biso   1.000  H
  H114     1.0000 0.76319  0.69949  0.18110  Biso   1.000  H
  H115     1.0000 0.72759  0.60911  0.41500  Biso   1.000  H
  H116     1.0000 0.82589  0.58920  0.46669  Biso   1.000  H
  H117     1.0000 0.65950  0.84330  0.45950  Biso   1.000  H
  H118     1.0000 0.63320  0.83139  0.41381  Biso   1.000  H
  C122     1.0000 0.61571  0.87520  0.45429  Biso   1.000  C
  H119     1.0000 0.70030  0.77631  0.52719  Biso   1.000  H
  C123     1.0000 0.73519  0.81397  0.54760  Biso   1.000  C
  C124     1.0000 0.70850  0.86850  0.57221  Biso   1.000  C
  H120     1.0000 0.65549  0.86800  0.56909  Biso   1.000  H
  H121     1.0000 0.80931  0.65251  0.40821  Biso   1.000  H
  H122     1.0000 0.80931  0.69381  0.41930  Biso   1.000  H
  C125     1.0000 0.85145  0.66830  0.45508  Biso   1.000  C
  C126     1.0000 0.79697  0.78225  0.45390  Biso   1.000  C
  H123     1.0000 0.76340  0.74129  0.44311  Biso   1.000  H
  H124     1.0000 0.83309  0.72720  0.56281  Biso   1.000  H
  C127     1.0000 0.83801  0.77379  0.52419  Biso   1.000  C
  C128     1.0000 0.67689  0.75774  0.25372  Biso   1.000  C
  C129     1.0000 0.73231  0.72765  0.26549  Biso   1.000  C
  H125     1.0000 0.61579  0.88330  0.49098  Biso   1.000  H
  H126     1.0000 0.62789  0.89238  0.43210  Biso   1.000  H
  H127     1.0000 0.59151  0.87258  0.44209  Biso   1.000  H
  H128     1.0000 0.75541  0.79998  0.54188  Biso   1.000  H
  C130     1.0000 0.73891  0.84823  0.56506  Biso   1.000  C
  H129     1.0000 0.71039  0.89220  0.58338  Biso   1.000  H
  H130     1.0000 0.85661  0.68849  0.47759  Biso   1.000  H
  H131     1.0000 0.85459  0.64669  0.47538  Biso   1.000  H
  H132     1.0000 0.86729  0.66819  0.42471  Biso   1.000  H
  C131     1.0000 0.82479  0.79467  0.48328  Biso   1.000  C
  H133     1.0000 0.78760  0.79629  0.42629  Biso   1.000  H
  H134     1.0000 0.85700  0.78220  0.54480  Biso   1.000  H
  C132     1.0000 0.69816  0.72780  0.24602  Biso   1.000  C
  C133     1.0000 0.68985  0.78681  0.28227  Biso   1.000  C
  C134     1.0000 0.74603  0.75766  0.29234  Biso   1.000  C
  C135     1.0000 0.77419  0.86145  0.57683  Biso   1.000  C
  C136     1.0000 0.84019  0.82911  0.47080  Biso   1.000  C
  C137     1.0000 0.68365  0.69666  0.21668  Biso   1.000  C
  C138     1.0000 0.72388  0.78626  0.30135  Biso   1.000  C
  C139     1.0000 0.66723  0.81923  0.28839  Biso   1.000  C
  C140     1.0000 0.78451  0.75850  0.30672  Biso   1.000  C
  N13      1.0000 0.77984  0.89134  0.59661  Biso   1.000  N
  H135     1.0000 0.79370  0.84679  0.56921  Biso   1.000  H
  N14      1.0000 0.86467  0.84239  0.49579  Biso   1.000  N
  H136     1.0000 0.83078  0.84189  0.44189  Biso   1.000  H
  H137     1.0000 0.69860  0.67610  0.22399  Biso   1.000  H
  H138     1.0000 0.65989  0.69150  0.23030  Biso   1.000  H
  C141     1.0000 0.68150  0.70195  0.15701  Biso   1.000  C
  C142     1.0000 0.73663  0.81614  0.33523  Biso   1.000  C
  H139     1.0000 0.64250  0.81279  0.28200  Biso   1.000  H
  H140     1.0000 0.66908  0.82790  0.32520  Biso   1.000  H
  C143     1.0000 0.67741  0.84857  0.25088  Biso   1.000  C
  H141     1.0000 0.78841  0.77639  0.33440  Biso   1.000  H
  H142     1.0000 0.79139  0.73550  0.32149  Biso   1.000  H
  C144     1.0000 0.80755  0.76677  0.25949  Biso   1.000  C
  C145     1.0000 0.81638  0.90040  0.60739  Biso   1.000  C
  C146     1.0000 0.87903  0.87615  0.47830  Biso   1.000  C
  H143     1.0000 0.66809  0.72330  0.14931  Biso   1.000  H
  H144     1.0000 0.70520  0.70421  0.14240  Biso   1.000  H
  H145     1.0000 0.66979  0.68179  0.14078  Biso   1.000  H
  C147     1.0000 0.76319  0.83914  0.31876  Biso   1.000  C
  C148     1.0000 0.72215  0.82096  0.38514  Biso   1.000  C
  H146     1.0000 0.70240  0.85381  0.25499  Biso   1.000  H
  H147     1.0000 0.67280  0.84129  0.21439  Biso   1.000  H
  H148     1.0000 0.66358  0.86949  0.25890  Biso   1.000  H
  H149     1.0000 0.83220  0.76698  0.27051  Biso   1.000  H
  H150     1.0000 0.80420  0.74881  0.23220  Biso   1.000  H
  H151     1.0000 0.80119  0.78980  0.24519  Biso   1.000  H
  H152     1.0000 0.81879  0.90721  0.64499  Biso   1.000  H
  H153     1.0000 0.83139  0.87960  0.60131  Biso   1.000  H
  C149     1.0000 0.82872  0.93041  0.57240  Biso   1.000  C
  C150     1.0000 0.87436  0.90370  0.52099  Biso   1.000  C
  H154     1.0000 0.90420  0.87350  0.47009  Biso   1.000  H
  H155     1.0000 0.86690  0.88379  0.44568  Biso   1.000  H
  H156     1.0000 0.77351  0.83621  0.28488  Biso   1.000  H
  C151     1.0000 0.77466  0.86591  0.35083  Biso   1.000  C
  C152     1.0000 0.73333  0.84859  0.41705  Biso   1.000  C
  H157     1.0000 0.70460  0.80541  0.39758  Biso   1.000  H
  N15      1.0000 0.83875  0.91852  0.52059  Biso   1.000  N
  H158     1.0000 0.84891  0.94209  0.58931  Biso   1.000  H
  H159     1.0000 0.80970  0.94791  0.56901  Biso   1.000  H
  H160     1.0000 0.89160  0.92269  0.51558  Biso   1.000  H
  H161     1.0000 0.87900  0.89299  0.55598  Biso   1.000  H
  H162     1.0000 0.79310  0.88070  0.33910  Biso   1.000  H
  C153     1.0000 0.75955  0.87164  0.40070  Biso   1.000  C
  H163     1.0000 0.72280  0.85179  0.45070  Biso   1.000  H
  C154     1.0000 0.83621  0.94670  0.48150  Biso   1.000  C
  C155     1.0000 0.76997  0.90024  0.43541  Biso   1.000  C
  C156     1.0000 0.79922  0.95173  0.46069  Biso   1.000  C
  H164     1.0000 0.84430  0.96889  0.49781  Biso   1.000  H
  H165     1.0000 0.85200  0.94139  0.45161  Biso   1.000  H
  N16      1.0000 0.79118  0.92441  0.42163  Biso   1.000  N
  H166     1.0000 0.76049  0.90090  0.47009  Biso   1.000  H
  H167     1.0000 0.79710  0.97509  0.44410  Biso   1.000  H
  H168     1.0000 0.78231  0.95040  0.49031  Biso   1.000  H
  C157     1.0000 0.57435  0.42284  0.48118  Biso   1.000  C
  C158     1.0000 0.56521  0.42114  0.42732  Biso   1.000  C
  C159     1.0000 0.59612  0.39697  0.50318  Biso   1.000  C
  H169     1.0000 0.56579  0.44139  0.50259  Biso   1.000  H
  C160     1.0000 0.57545  0.39348  0.39612  Biso   1.000  C
  H170     1.0000 0.55170  0.43950  0.41219  Biso   1.000  H
  C161     1.0000 0.60733  0.36960  0.47115  Biso   1.000  C
  C162     1.0000 0.60646  0.39760  0.56079  Biso   1.000  C
  C163     1.0000 0.56582  0.38932  0.34048  Biso   1.000  C
  C164     1.0000 0.59722  0.36761  0.41832  Biso   1.000  C
  H171     1.0000 0.62210  0.35200  0.48549  Biso   1.000  H
  C165     1.0000 0.59332  0.37180  0.59480  Biso   1.000  C
  C166     1.0000 0.63035  0.42342  0.57888  Biso   1.000  C
  N17      1.0000 0.54900  0.41245  0.31454  Biso   1.000  N
  H172     1.0000 0.57239  0.36829  0.32291  Biso   1.000  H
  H173     1.0000 0.60510  0.34859  0.39711  Biso   1.000  H
  C167     1.0000 0.60481  0.37044  0.64700  Biso   1.000  C
  C168     1.0000 0.56532  0.34611  0.57584  Biso   1.000  C
  C169     1.0000 0.64135  0.42177  0.63192  Biso   1.000  C
  C170     1.0000 0.64295  0.45249  0.54354  Biso   1.000  C
  C171     1.0000 0.54007  0.40331  0.25988  Biso   1.000  C
  C172     1.0000 0.62886  0.39626  0.66635  Biso   1.000  C
  C173     1.0000 0.59261  0.34260  0.68369  Biso   1.000  C
  H174     1.0000 0.57119  0.33830  0.53959  Biso   1.000  H
  H175     1.0000 0.56561  0.32521  0.59898  Biso   1.000  H
  C174     1.0000 0.52910  0.36140  0.57568  Biso   1.000  C
  C175     1.0000 0.66772  0.44867  0.65142  Biso   1.000  C
  H176     1.0000 0.63860  0.44589  0.50630  Biso   1.000  H
  H177     1.0000 0.66851  0.45540  0.54820  Biso   1.000  H
  C176     1.0000 0.62480  0.48740  0.55499  Biso   1.000  C
  H178     1.0000 0.51430  0.40281  0.25589  Biso   1.000  H
  H179     1.0000 0.54919  0.37960  0.25179  Biso   1.000  H
  C177     1.0000 0.55526  0.42934  0.22110  Biso   1.000  C
  C178     1.0000 0.63931  0.39605  0.72432  Biso   1.000  C
  C179     1.0000 0.55893  0.34152  0.70410  Biso   1.000  C
  C180     1.0000 0.61592  0.31607  0.69980  Biso   1.000  C
  H180     1.0000 0.52839  0.38159  0.55179  Biso   1.000  H
  H181     1.0000 0.52289  0.36889  0.61150  Biso   1.000  H
  H182     1.0000 0.51239  0.34359  0.56368  Biso   1.000  H
  C181     1.0000 0.65793  0.47480  0.68629  Biso   1.000  C
  C182     1.0000 0.70190  0.44765  0.63397  Biso   1.000  C
  H183     1.0000 0.63640  0.50610  0.53509  Biso   1.000  H
  H184     1.0000 0.62629  0.49251  0.59290  Biso   1.000  H
  H185     1.0000 0.60020  0.48599  0.54441  Biso   1.000  H
  N18      1.0000 0.59248  0.42431  0.21186  Biso   1.000  N
  H186     1.0000 0.54269  0.42719  0.18710  Biso   1.000  H
  H187     1.0000 0.55139  0.45330  0.23469  Biso   1.000  H
  H188     1.0000 0.64489  0.37169  0.73491  Biso   1.000  H
  H189     1.0000 0.66081  0.41019  0.72871  Biso   1.000  H
  C183     1.0000 0.61120  0.41019  0.76069  Biso   1.000  C
  H190     1.0000 0.54269  0.35899  0.69380  Biso   1.000  H
  C184     1.0000 0.54814  0.31544  0.73937  Biso   1.000  C
  C185     1.0000 0.60555  0.29097  0.73601  Biso   1.000  C
  H191     1.0000 0.63889  0.31541  0.68558  Biso   1.000  H
  C186     1.0000 0.68244  0.49987  0.70379  Biso   1.000  C
  H192     1.0000 0.63441  0.47590  0.69850  Biso   1.000  H
  H193     1.0000 0.70900  0.42950  0.61071  Biso   1.000  H
  C187     1.0000 0.72639  0.47297  0.65008  Biso   1.000  C
  C188     1.0000 0.60929  0.45681  0.19449  Biso   1.000  C
  C189     1.0000 0.59821  0.39663  0.17277  Biso   1.000  C
  H194     1.0000 0.60450  0.43379  0.74928  Biso   1.000  H
  H195     1.0000 0.62019  0.41119  0.79690  Biso   1.000  H
  H196     1.0000 0.59059  0.39479  0.75951  Biso   1.000  H
  H197     1.0000 0.52459  0.31499  0.75161  Biso   1.000  H
  C190     1.0000 0.57200  0.28993  0.75670  Biso   1.000  C
  H198     1.0000 0.62210  0.27390  0.74711  Biso   1.000  H
  C191     1.0000 0.71638  0.49908  0.68594  Biso   1.000  C
  H199     1.0000 0.67540  0.51750  0.72811  Biso   1.000  H
  H200     1.0000 0.74959  0.47240  0.63669  Biso   1.000  H
  C192     1.0000 0.61770  0.48057  0.24101  Biso   1.000  C
  H201     1.0000 0.59360  0.46930  0.16981  Biso   1.000  H
  H202     1.0000 0.63119  0.45110  0.17541  Biso   1.000  H
  C193     1.0000 0.63341  0.37897  0.17834  Biso   1.000  C
  H203     1.0000 0.59641  0.40689  0.13691  Biso   1.000  H
  H204     1.0000 0.57949  0.37879  0.17640  Biso   1.000  H
  C194     1.0000 0.56246  0.26279  0.79568  Biso   1.000  C
  C195     1.0000 0.74313  0.52485  0.70193  Biso   1.000  C
  N19      1.0000 0.64910  0.46870  0.26790  Biso   1.000  N
  H205     1.0000 0.62121  0.50479  0.22821  Biso   1.000  H
  H206     1.0000 0.59779  0.48059  0.26600  Biso   1.000  H
  N20      1.0000 0.63208  0.35302  0.22106  Biso   1.000  N
  H207     1.0000 0.63970  0.36729  0.14469  Biso   1.000  H
  H208     1.0000 0.65159  0.39671  0.18619  Biso   1.000  H
  N21      1.0000 0.53253  0.26067  0.81558  Biso   1.000  N
  H209     1.0000 0.57980  0.24629  0.80618  Biso   1.000  H
  N22      1.0000 0.73912  0.54667  0.73889  Biso   1.000  N
  H210     1.0000 0.76471  0.52509  0.68329  Biso   1.000  H
  C196     1.0000 0.64622  0.45775  0.31509  Biso   1.000  C
  C197     1.0000 0.64915  0.35949  0.26292  Biso   1.000  C
  C198     1.0000 0.52758  0.23309  0.85618  Biso   1.000  C
  C199     1.0000 0.76759  0.57134  0.74928  Biso   1.000  C
  C200     1.0000 0.67595  0.44563  0.34652  Biso   1.000  C
  H211     1.0000 0.62359  0.45739  0.33069  Biso   1.000  H
  C201     1.0000 0.64921  0.33471  0.30735  Biso   1.000  C
  H212     1.0000 0.66209  0.38070  0.26561  Biso   1.000  H
  H213     1.0000 0.51880  0.24391  0.88911  Biso   1.000  H
  H214     1.0000 0.55039  0.22199  0.86400  Biso   1.000  H
  C202     1.0000 0.50230  0.20570  0.83809  Biso   1.000  C
  C203     1.0000 0.78039  0.56938  0.80595  Biso   1.000  C
  H215     1.0000 0.75939  0.59539  0.74178  Biso   1.000  H
  H216     1.0000 0.78731  0.56621  0.72519  Biso   1.000  H
  C204     1.0000 0.71068  0.44951  0.33077  Biso   1.000  C
  C205     1.0000 0.66963  0.42960  0.39569  Biso   1.000  C
  C206     1.0000 0.62841  0.30410  0.30688  Biso   1.000  C
  C207     1.0000 0.67037  0.34071  0.35071  Biso   1.000  C
  N23      1.0000 0.51862  0.18069  0.79998  Biso   1.000  N
  H217     1.0000 0.49361  0.19260  0.86909  Biso   1.000  H
  H218     1.0000 0.48201  0.21720  0.82099  Biso   1.000  H
  N24      1.0000 0.80417  0.53976  0.81527  Biso   1.000  N
  H219     1.0000 0.79270  0.59151  0.81479  Biso   1.000  H
  H220     1.0000 0.75999  0.56720  0.82980  Biso   1.000  H
  C208     1.0000 0.73804  0.43835  0.36208  Biso   1.000  C
  H221     1.0000 0.71560  0.46009  0.29760  Biso   1.000  H
  H222     1.0000 0.64630  0.42701  0.40809  Biso   1.000  H
  C209     1.0000 0.69732  0.41774  0.42574  Biso   1.000  C
  C210     1.0000 0.63001  0.28047  0.34767  Biso   1.000  C
  H223     1.0000 0.61309  0.29980  0.27801  Biso   1.000  H
  H224     1.0000 0.68441  0.36130  0.35201  Biso   1.000  H
  C211     1.0000 0.67136  0.31709  0.39249  Biso   1.000  C
  C212     1.0000 0.53798  0.15410  0.82889  Biso   1.000  C
  C213     1.0000 0.49141  0.16500  0.76669  Biso   1.000  C
  C214     1.0000 0.83961  0.54803  0.79718  Biso   1.000  C
  C215     1.0000 0.80465  0.53067  0.87197  Biso   1.000  C
  C216     1.0000 0.73184  0.42125  0.41022  Biso   1.000  C
  H225     1.0000 0.76148  0.44230  0.35091  Biso   1.000  H
  H226     1.0000 0.69239  0.40671  0.45852  Biso   1.000  H
  C217     1.0000 0.65206  0.28600  0.39154  Biso   1.000  C
  H227     1.0000 0.61600  0.25999  0.34629  Biso   1.000  H
  H228     1.0000 0.68551  0.32219  0.42230  Biso   1.000  H
  C218     1.0000 0.56794  0.13884  0.79410  Biso   1.000  C
  H229     1.0000 0.52190  0.13501  0.83947  Biso   1.000  H
  H230     1.0000 0.54809  0.16450  0.86131  Biso   1.000  H
  C219     1.0000 0.48041  0.18810  0.72061  Biso   1.000  C
  H231     1.0000 0.47059  0.16000  0.78881  Biso   1.000  H
  H232     1.0000 0.50021  0.14240  0.75268  Biso   1.000  H
  H233     1.0000 0.85229  0.56079  0.82530  Biso   1.000  H
  H234     1.0000 0.83830  0.56349  0.76579  Biso   1.000  H
  C220     1.0000 0.85986  0.51456  0.78300  Biso   1.000  C
  H235     1.0000 0.80499  0.55249  0.89310  Biso   1.000  H
  H236     1.0000 0.82631  0.51750  0.87999  Biso   1.000  H
  C221     1.0000 0.77311  0.50883  0.88781  Biso   1.000  C
  C222     1.0000 0.76114  0.40846  0.44438  Biso   1.000  C
  C223     1.0000 0.65552  0.25978  0.43510  Biso   1.000  C
  N25      1.0000 0.59840  0.16230  0.79659  Biso   1.000  N
  H237     1.0000 0.57449  0.11529  0.80697  Biso   1.000  H
  H238     1.0000 0.55990  0.13661  0.75710  Biso   1.000  H
  N26      1.0000 0.50668  0.18616  0.67800  Biso   1.000  N
  H239     1.0000 0.45739  0.18029  0.70699  Biso   1.000  H
  H240     1.0000 0.47810  0.21269  0.73269  Biso   1.000  H
  N27      1.0000 0.85040  0.50320  0.72953  Biso   1.000  N
  H241     1.0000 0.88529  0.51909  0.78478  Biso   1.000  H
  H242     1.0000 0.85420  0.49581  0.80859  Biso   1.000  H
  N28      1.0000 0.77657  0.47326  0.86889  Biso   1.000  N
  H243     1.0000 0.77089  0.50870  0.92671  Biso   1.000  H
  H244     1.0000 0.75158  0.51941  0.87280  Biso   1.000  H
  C224     1.0000 0.77840  0.37670  0.43099  Biso   1.000  C
  C225     1.0000 0.76973  0.42648  0.49137  Biso   1.000  C
  C226     1.0000 0.62760  0.25229  0.46906  Biso   1.000  C
  C227     1.0000 0.68886  0.24349  0.44268  Biso   1.000  C
  C228     1.0000 0.60749  0.17634  0.75331  Biso   1.000  C
  C229     1.0000 0.52525  0.21379  0.67101  Biso   1.000  C
  C230     1.0000 0.83186  0.47593  0.72555  Biso   1.000  C
  C231     1.0000 0.75575  0.46323  0.83308  Biso   1.000  C
  C232     1.0000 0.80376  0.36321  0.46641  Biso   1.000  C
  C233     1.0000 0.77144  0.35912  0.37819  Biso   1.000  C
  C234     1.0000 0.79503  0.41237  0.52545  Biso   1.000  C
  C235     1.0000 0.75137  0.46074  0.50401  Biso   1.000  C
  C236     1.0000 0.63281  0.22943  0.51183  Biso   1.000  C
  C237     1.0000 0.59143  0.26806  0.45966  Biso   1.000  C
  C238     1.0000 0.69297  0.22050  0.48466  Biso   1.000  C
  C239     1.0000 0.71793  0.25014  0.40347  Biso   1.000  C
  C240     1.0000 0.63800  0.19988  0.74960  Biso   1.000  C
  H245     1.0000 0.59429  0.17149  0.72231  Biso   1.000  H
  C241     1.0000 0.55228  0.21586  0.62970  Biso   1.000  C
  H246     1.0000 0.52140  0.23349  0.69309  Biso   1.000  H
  C242     1.0000 0.82188  0.46166  0.67374  Biso   1.000  C
  H247     1.0000 0.82418  0.46441  0.75670  Biso   1.000  H
  H248     1.0000 0.73899  0.47939  0.81969  Biso   1.000  H
  C243     1.0000 0.75646  0.42803  0.81155  Biso   1.000  C
  C244     1.0000 0.81227  0.38057  0.51325  Biso   1.000  C
  C245     1.0000 0.81999  0.32827  0.45488  Biso   1.000  C
  H249     1.0000 0.77138  0.33340  0.38321  Biso   1.000  H
  H250     1.0000 0.74800  0.36609  0.36540  Biso   1.000  H
  C246     1.0000 0.79828  0.36852  0.33708  Biso   1.000  C
  C247     1.0000 0.80305  0.42984  0.57695  Biso   1.000  C
  H251     1.0000 0.75488  0.46640  0.54180  Biso   1.000  H
  H252     1.0000 0.72589  0.45799  0.49781  Biso   1.000  H
  C248     1.0000 0.76523  0.49130  0.47020  Biso   1.000  C
  C249     1.0000 0.66523  0.21269  0.51953  Biso   1.000  C
  C250     1.0000 0.60432  0.22403  0.55151  Biso   1.000  C
  H253     1.0000 0.59379  0.28901  0.43692  Biso   1.000  H
  H254     1.0000 0.58150  0.27571  0.49390  Biso   1.000  H
  C251     1.0000 0.56629  0.24210  0.43348  Biso   1.000  C
  C252     1.0000 0.72820  0.20457  0.49528  Biso   1.000  C
  H255     1.0000 0.71989  0.27571  0.39731  Biso   1.000  H
  H256     1.0000 0.74040  0.24200  0.41871  Biso   1.000  H
  C253     1.0000 0.71198  0.23207  0.35181  Biso   1.000  C
  C254     1.0000 0.64745  0.21411  0.70110  Biso   1.000  C
  C255     1.0000 0.65767  0.20897  0.79355  Biso   1.000  C
  C256     1.0000 0.57095  0.24763  0.62508  Biso   1.000  C
  C257     1.0000 0.56011  0.18878  0.59480  Biso   1.000  C
  C258     1.0000 0.82976  0.47795  0.62678  Biso   1.000  C
  C259     1.0000 0.80355  0.42942  0.67255  Biso   1.000  C
  C260     1.0000 0.73613  0.41902  0.76780  Biso   1.000  C
  C261     1.0000 0.77835  0.40142  0.83237  Biso   1.000  C
  C262     1.0000 0.83992  0.36551  0.54934  Biso   1.000  C
  C263     1.0000 0.79996  0.29778  0.46164  Biso   1.000  C
  C264     1.0000 0.85407  0.32421  0.43699  Biso   1.000  C
  H257     1.0000 0.79228  0.35711  0.30372  Biso   1.000  H
  H258     1.0000 0.82141  0.36059  0.34881  Biso   1.000  H
  H259     1.0000 0.79860  0.39401  0.33219  Biso   1.000  H
  C265     1.0000 0.82112  0.46184  0.57880  Biso   1.000  C
  C266     1.0000 0.79446  0.41444  0.62445  Biso   1.000  C
  H260     1.0000 0.76091  0.48630  0.43281  Biso   1.000  H
  H261     1.0000 0.79040  0.49411  0.47609  Biso   1.000  H
  H262     1.0000 0.75310  0.51289  0.48008  Biso   1.000  H
  C267     1.0000 0.67058  0.18671  0.56439  Biso   1.000  C
  C268     1.0000 0.59641  0.25106  0.58721  Biso   1.000  C
  C269     1.0000 0.58480  0.19289  0.55700  Biso   1.000  C
  H263     1.0000 0.57789  0.23100  0.40331  Biso   1.000  H
  H264     1.0000 0.54539  0.25460  0.42120  Biso   1.000  H
  H265     1.0000 0.55940  0.22411  0.45911  Biso   1.000  H
  C270     1.0000 0.74938  0.21756  0.53596  Biso   1.000  C
  C271     1.0000 0.74100  0.17626  0.46503  Biso   1.000  C
  H266     1.0000 0.73299  0.23419  0.32990  Biso   1.000  H
  H267     1.0000 0.69211  0.24299  0.33361  Biso   1.000  H
  H268     1.0000 0.70690  0.20730  0.35809  Biso   1.000  H
  C272     1.0000 0.67592  0.23621  0.69644  Biso   1.000  C
  H269     1.0000 0.63409  0.20850  0.67058  Biso   1.000  H
  H270     1.0000 0.65141  0.20009  0.82731  Biso   1.000  H
  C273     1.0000 0.68629  0.23092  0.78833  Biso   1.000  C
  H271     1.0000 0.56589  0.26659  0.64819  Biso   1.000  H
  H272     1.0000 0.54801  0.16709  0.59748  Biso   1.000  H
  H273     1.0000 0.84110  0.50010  0.62690  Biso   1.000  H
  H274     1.0000 0.79750  0.41800  0.70458  Biso   1.000  H
  H275     1.0000 0.72139  0.43631  0.75240  Biso   1.000  H
  C274     1.0000 0.73671  0.38594  0.74616  Biso   1.000  C
  C275     1.0000 0.77856  0.36876  0.81148  Biso   1.000  C
  H276     1.0000 0.79320  0.40661  0.86151  Biso   1.000  H
  H277     1.0000 0.84330  0.34050  0.54050  Biso   1.000  H
  H278     1.0000 0.83139  0.36680  0.58619  Biso   1.000  H
  C276     1.0000 0.87520  0.38429  0.54571  Biso   1.000  C
  H279     1.0000 0.77631  0.29970  0.47281  Biso   1.000  H
  C277     1.0000 0.81397  0.26481  0.45240  Biso   1.000  C
  C278     1.0000 0.86850  0.29150  0.42779  Biso   1.000  C
  H280     1.0000 0.86800  0.34451  0.43091  Biso   1.000  H
  H281     1.0000 0.82769  0.47289  0.54670  Biso   1.000  H
  H282     1.0000 0.78189  0.39291  0.62429  Biso   1.000  H
  H283     1.0000 0.65251  0.19069  0.59179  Biso   1.000  H
  H284     1.0000 0.69381  0.19069  0.58070  Biso   1.000  H
  C279     1.0000 0.66830  0.14855  0.54488  Biso   1.000  C
  H285     1.0000 0.60911  0.27241  0.58500  Biso   1.000  H
  H286     1.0000 0.58920  0.17409  0.53331  Biso   1.000  H
  C280     1.0000 0.78225  0.20303  0.54610  Biso   1.000  C
  H287     1.0000 0.74129  0.23660  0.55689  Biso   1.000  H
  H288     1.0000 0.72720  0.16691  0.43719  Biso   1.000  H
  C281     1.0000 0.77379  0.16196  0.47581  Biso   1.000  C
  C282     1.0000 0.69614  0.24454  0.74012  Biso   1.000  C
  H289     1.0000 0.68171  0.24580  0.66299  Biso   1.000  H
  H290     1.0000 0.69949  0.23679  0.81890  Biso   1.000  H
  H291     1.0000 0.72241  0.38081  0.71650  Biso   1.000  H
  C283     1.0000 0.75826  0.35975  0.76756  Biso   1.000  C
  H292     1.0000 0.79299  0.35140  0.82731  Biso   1.000  H
  H293     1.0000 0.88330  0.38419  0.50898  Biso   1.000  H
  H294     1.0000 0.89238  0.37209  0.56790  Biso   1.000  H
  H295     1.0000 0.87258  0.40849  0.55791  Biso   1.000  H
  H296     1.0000 0.79998  0.24459  0.45808  Biso   1.000  H
  C284     1.0000 0.84823  0.26109  0.43494  Biso   1.000  C
  H297     1.0000 0.89220  0.28959  0.41658  Biso   1.000  H
  H298     1.0000 0.68849  0.14339  0.52241  Biso   1.000  H
  H299     1.0000 0.64669  0.14541  0.52458  Biso   1.000  H
  H300     1.0000 0.66819  0.13271  0.57529  Biso   1.000  H
  C285     1.0000 0.79467  0.17521  0.51672  Biso   1.000  C
  H301     1.0000 0.79629  0.21240  0.57371  Biso   1.000  H
  H302     1.0000 0.78220  0.14300  0.45520  Biso   1.000  H
  C286     1.0000 0.72765  0.26769  0.73447  Biso   1.000  C
  C287     1.0000 0.75774  0.32311  0.74628  Biso   1.000  C
  C288     1.0000 0.86145  0.22581  0.42317  Biso   1.000  C
  C289     1.0000 0.82911  0.15981  0.52920  Biso   1.000  C
  C290     1.0000 0.72780  0.30184  0.75398  Biso   1.000  C
  C291     1.0000 0.75766  0.25397  0.70766  Biso   1.000  C
  C292     1.0000 0.78681  0.31015  0.71769  Biso   1.000  C
  N29      1.0000 0.89134  0.22013  0.40335  Biso   1.000  N
  H303     1.0000 0.84679  0.20630  0.43079  Biso   1.000  H
  N30      1.0000 0.84239  0.13530  0.50421  Biso   1.000  N
  H304     1.0000 0.84189  0.16919  0.55811  Biso   1.000  H
  C293     1.0000 0.69666  0.31635  0.78328  Biso   1.000  C
  C294     1.0000 0.78626  0.27612  0.69865  Biso   1.000  C
  C295     1.0000 0.75850  0.21547  0.69328  Biso   1.000  C
  C296     1.0000 0.81923  0.33277  0.71161  Biso   1.000  C
  C297     1.0000 0.90040  0.18362  0.39261  Biso   1.000  C
  C298     1.0000 0.87615  0.12095  0.52170  Biso   1.000  C
  H305     1.0000 0.67610  0.30140  0.77597  Biso   1.000  H
  H306     1.0000 0.69150  0.34011  0.76970  Biso   1.000  H
  C299     1.0000 0.70195  0.31850  0.84299  Biso   1.000  C
  C300     1.0000 0.81614  0.26337  0.66477  Biso   1.000  C
  H307     1.0000 0.77639  0.21159  0.66560  Biso   1.000  H
  H308     1.0000 0.73550  0.20861  0.67851  Biso   1.000  H
  C301     1.0000 0.76677  0.19242  0.74051  Biso   1.000  C
  H309     1.0000 0.81279  0.35750  0.71800  Biso   1.000  H
  H310     1.0000 0.82790  0.33089  0.67480  Biso   1.000  H
  C302     1.0000 0.84857  0.32259  0.74908  Biso   1.000  C
  H311     1.0000 0.90721  0.18121  0.35501  Biso   1.000  H
  H312     1.0000 0.87960  0.16859  0.39869  Biso   1.000  H
  C303     1.0000 0.93041  0.17128  0.42760  Biso   1.000  C
  C304     1.0000 0.90370  0.12564  0.47901  Biso   1.000  C
  H313     1.0000 0.87350  0.09580  0.52991  Biso   1.000  H
  H314     1.0000 0.88379  0.13310  0.55428  Biso   1.000  H
  H315     1.0000 0.72330  0.33191  0.85069  Biso   1.000  H
  H316     1.0000 0.70421  0.29480  0.85760  Biso   1.000  H
  H317     1.0000 0.68179  0.33021  0.85918  Biso   1.000  H
  C305     1.0000 0.83914  0.23679  0.68120  Biso   1.000  C
  C306     1.0000 0.82096  0.27783  0.61482  Biso   1.000  C
  H318     1.0000 0.76698  0.16780  0.72949  Biso   1.000  H
  H319     1.0000 0.74881  0.19580  0.76780  Biso   1.000  H
  H320     1.0000 0.78980  0.19881  0.75481  Biso   1.000  H
  H321     1.0000 0.85381  0.29760  0.74497  Biso   1.000  H
  H322     1.0000 0.84129  0.32720  0.78561  Biso   1.000  H
  H323     1.0000 0.86949  0.33639  0.74110  Biso   1.000  H
  N31      1.0000 0.91852  0.16123  0.47941  Biso   1.000  N
  H324     1.0000 0.94209  0.15109  0.41069  Biso   1.000  H
  H325     1.0000 0.94791  0.19030  0.43099  Biso   1.000  H
  H326     1.0000 0.92269  0.10840  0.48438  Biso   1.000  H
  H327     1.0000 0.89299  0.12100  0.44398  Biso   1.000  H
  C307     1.0000 0.86591  0.22534  0.64917  Biso   1.000  C
  H328     1.0000 0.83621  0.22649  0.71508  Biso   1.000  H
  C308     1.0000 0.84859  0.26667  0.58295  Biso   1.000  C
  H329     1.0000 0.80541  0.29540  0.60238  Biso   1.000  H
  C309     1.0000 0.94670  0.16379  0.51850  Biso   1.000  C
  C310     1.0000 0.87164  0.24043  0.59930  Biso   1.000  C
  H330     1.0000 0.88070  0.20690  0.66090  Biso   1.000  H
  H331     1.0000 0.85179  0.27720  0.54930  Biso   1.000  H
  C311     1.0000 0.95173  0.20078  0.53931  Biso   1.000  C
  H332     1.0000 0.96889  0.15570  0.50219  Biso   1.000  H
  H333     1.0000 0.94139  0.14800  0.54839  Biso   1.000  H
  C312     1.0000 0.90024  0.23003  0.56459  Biso   1.000  C
  N32      1.0000 0.92441  0.20882  0.57833  Biso   1.000  N
  H334     1.0000 0.97509  0.20290  0.55590  Biso   1.000  H
  H335     1.0000 0.95040  0.21769  0.50969  Biso   1.000  H
  H336     1.0000 0.90090  0.23951  0.52991  Biso   1.000  H
  C313     1.0000 0.42565  0.57716  0.48118  Biso   1.000  C
  C314     1.0000 0.43479  0.57886  0.42732  Biso   1.000  C
  C315     1.0000 0.40386  0.60303  0.50318  Biso   1.000  C
  H337     1.0000 0.43421  0.55859  0.50259  Biso   1.000  H
  C316     1.0000 0.42455  0.60652  0.39612  Biso   1.000  C
  H338     1.0000 0.44830  0.56050  0.41219  Biso   1.000  H
  C317     1.0000 0.39265  0.63038  0.47115  Biso   1.000  C
  C318     1.0000 0.39354  0.60240  0.56079  Biso   1.000  C
  C319     1.0000 0.43418  0.61068  0.34048  Biso   1.000  C
  C320     1.0000 0.40276  0.63239  0.41832  Biso   1.000  C
  H339     1.0000 0.37790  0.64800  0.48549  Biso   1.000  H
  C321     1.0000 0.40666  0.62820  0.59480  Biso   1.000  C
  C322     1.0000 0.36965  0.57658  0.57888  Biso   1.000  C
  N33      1.0000 0.45100  0.58755  0.31454  Biso   1.000  N
  H340     1.0000 0.42761  0.63169  0.32291  Biso   1.000  H
  H341     1.0000 0.39490  0.65141  0.39711  Biso   1.000  H
  C323     1.0000 0.39519  0.62956  0.64700  Biso   1.000  C
  C324     1.0000 0.43468  0.65389  0.57584  Biso   1.000  C
  C325     1.0000 0.35865  0.57823  0.63192  Biso   1.000  C
  C326     1.0000 0.35705  0.54751  0.54354  Biso   1.000  C
  C327     1.0000 0.45993  0.59667  0.25988  Biso   1.000  C
  C328     1.0000 0.37114  0.60374  0.66635  Biso   1.000  C
  C329     1.0000 0.40739  0.65740  0.68369  Biso   1.000  C
  H342     1.0000 0.42879  0.66170  0.53959  Biso   1.000  H
  H343     1.0000 0.43439  0.67479  0.59898  Biso   1.000  H
  C330     1.0000 0.47090  0.63860  0.57568  Biso   1.000  C
  C331     1.0000 0.33228  0.55133  0.65142  Biso   1.000  C
  H344     1.0000 0.36140  0.55411  0.50630  Biso   1.000  H
  H345     1.0000 0.33149  0.54460  0.54820  Biso   1.000  H
  C332     1.0000 0.37520  0.51260  0.55499  Biso   1.000  C
  C333     1.0000 0.44474  0.57066  0.22110  Biso   1.000  C
  H346     1.0000 0.48570  0.59719  0.25589  Biso   1.000  H
  H347     1.0000 0.45079  0.62040  0.25179  Biso   1.000  H
  C334     1.0000 0.36069  0.60395  0.72432  Biso   1.000  C
  C335     1.0000 0.44105  0.65848  0.70410  Biso   1.000  C
  C336     1.0000 0.38408  0.68393  0.69980  Biso   1.000  C
  H348     1.0000 0.47161  0.61841  0.55179  Biso   1.000  H
  H349     1.0000 0.47711  0.63111  0.61150  Biso   1.000  H
  H350     1.0000 0.48759  0.65641  0.56368  Biso   1.000  H
  C337     1.0000 0.34207  0.52517  0.68629  Biso   1.000  C
  C338     1.0000 0.29810  0.55235  0.63397  Biso   1.000  C
  H351     1.0000 0.36360  0.49390  0.53509  Biso   1.000  H
  H352     1.0000 0.37371  0.50749  0.59290  Biso   1.000  H
  H353     1.0000 0.39980  0.51399  0.54441  Biso   1.000  H
  N34      1.0000 0.40752  0.57569  0.21186  Biso   1.000  N
  H354     1.0000 0.45731  0.57281  0.18710  Biso   1.000  H
  H355     1.0000 0.44859  0.54670  0.23469  Biso   1.000  H
  H356     1.0000 0.35509  0.62831  0.73491  Biso   1.000  H
  H357     1.0000 0.33919  0.58981  0.72871  Biso   1.000  H
  C339     1.0000 0.38880  0.58981  0.76069  Biso   1.000  C
  H358     1.0000 0.45731  0.64101  0.69380  Biso   1.000  H
  C340     1.0000 0.45184  0.68456  0.73937  Biso   1.000  C
  C341     1.0000 0.39443  0.70903  0.73601  Biso   1.000  C
  H359     1.0000 0.36109  0.68459  0.68558  Biso   1.000  H
  C342     1.0000 0.31756  0.50013  0.70379  Biso   1.000  C
  H360     1.0000 0.36559  0.52410  0.69850  Biso   1.000  H
  H361     1.0000 0.29100  0.57050  0.61071  Biso   1.000  H
  C343     1.0000 0.27361  0.52703  0.65008  Biso   1.000  C
  C344     1.0000 0.39071  0.54319  0.19449  Biso   1.000  C
  C345     1.0000 0.40179  0.60335  0.17277  Biso   1.000  C
  H362     1.0000 0.39550  0.56621  0.74928  Biso   1.000  H
  H363     1.0000 0.37979  0.58879  0.79690  Biso   1.000  H
  H364     1.0000 0.40941  0.60521  0.75951  Biso   1.000  H
  H365     1.0000 0.47541  0.68501  0.75161  Biso   1.000  H
  C346     1.0000 0.42800  0.71005  0.75670  Biso   1.000  C
  H366     1.0000 0.37790  0.72610  0.74711  Biso   1.000  H
  C347     1.0000 0.28359  0.50092  0.68594  Biso   1.000  C
  H367     1.0000 0.32460  0.48250  0.72811  Biso   1.000  H
  H368     1.0000 0.25041  0.52760  0.63669  Biso   1.000  H
  C348     1.0000 0.38230  0.51943  0.24101  Biso   1.000  C
  H369     1.0000 0.40640  0.53070  0.16981  Biso   1.000  H
  H370     1.0000 0.36879  0.54890  0.17541  Biso   1.000  H
  C349     1.0000 0.36659  0.62103  0.17834  Biso   1.000  C
  H371     1.0000 0.40359  0.59311  0.13691  Biso   1.000  H
  H372     1.0000 0.42049  0.62121  0.17640  Biso   1.000  H
  C350     1.0000 0.43751  0.73721  0.79568  Biso   1.000  C
  C351     1.0000 0.25685  0.47512  0.70193  Biso   1.000  C
  N35      1.0000 0.35090  0.53130  0.26790  Biso   1.000  N
  H373     1.0000 0.37879  0.49521  0.22821  Biso   1.000  H
  H374     1.0000 0.40221  0.51941  0.26600  Biso   1.000  H
  N36      1.0000 0.36790  0.64695  0.22106  Biso   1.000  N
  H375     1.0000 0.36030  0.63271  0.14469  Biso   1.000  H
  H376     1.0000 0.34841  0.60329  0.18619  Biso   1.000  H
  N37      1.0000 0.46747  0.73933  0.81558  Biso   1.000  N
  H377     1.0000 0.42020  0.75371  0.80618  Biso   1.000  H
  N38      1.0000 0.26086  0.45333  0.73889  Biso   1.000  N
  H378     1.0000 0.23529  0.47491  0.68329  Biso   1.000  H
  C352     1.0000 0.35378  0.54225  0.31509  Biso   1.000  C
  C353     1.0000 0.35085  0.64051  0.26292  Biso   1.000  C
  C354     1.0000 0.47242  0.76691  0.85618  Biso   1.000  C
  C355     1.0000 0.23241  0.42866  0.74928  Biso   1.000  C
  C356     1.0000 0.32405  0.55434  0.34652  Biso   1.000  C
  H379     1.0000 0.37641  0.54259  0.33069  Biso   1.000  H
  C357     1.0000 0.35079  0.66529  0.30735  Biso   1.000  C
  H380     1.0000 0.33791  0.61930  0.26561  Biso   1.000  H
  H381     1.0000 0.48120  0.75609  0.88911  Biso   1.000  H
  H382     1.0000 0.44961  0.77798  0.86400  Biso   1.000  H
  C358     1.0000 0.49770  0.79430  0.83809  Biso   1.000  C
  C359     1.0000 0.21958  0.43060  0.80595  Biso   1.000  C
  H383     1.0000 0.24061  0.40459  0.74178  Biso   1.000  H
  H384     1.0000 0.21269  0.43379  0.72519  Biso   1.000  H
  C360     1.0000 0.28932  0.55047  0.33077  Biso   1.000  C
  C361     1.0000 0.33034  0.57040  0.39569  Biso   1.000  C
  C362     1.0000 0.37159  0.69588  0.30688  Biso   1.000  C
  C363     1.0000 0.32963  0.65926  0.35071  Biso   1.000  C
  N39      1.0000 0.48138  0.81931  0.79998  Biso   1.000  N
  H385     1.0000 0.50639  0.80740  0.86909  Biso   1.000  H
  H386     1.0000 0.51799  0.78280  0.82099  Biso   1.000  H
  N40      1.0000 0.19580  0.46022  0.81527  Biso   1.000  N
  H387     1.0000 0.20730  0.40849  0.81479  Biso   1.000  H
  H388     1.0000 0.24001  0.43280  0.82980  Biso   1.000  H
  C364     1.0000 0.26193  0.56163  0.36208  Biso   1.000  C
  H389     1.0000 0.28440  0.53989  0.29760  Biso   1.000  H
  H390     1.0000 0.35370  0.57299  0.40809  Biso   1.000  H
  C365     1.0000 0.30268  0.58226  0.42574  Biso   1.000  C
  C366     1.0000 0.36999  0.71953  0.34767  Biso   1.000  C
  H391     1.0000 0.38691  0.70020  0.27801  Biso   1.000  H
  H392     1.0000 0.31559  0.63870  0.35201  Biso   1.000  H
  C367     1.0000 0.32861  0.68291  0.39249  Biso   1.000  C
  C368     1.0000 0.50856  0.83500  0.76669  Biso   1.000  C
  C369     1.0000 0.46200  0.84590  0.82889  Biso   1.000  C
  C370     1.0000 0.16039  0.45197  0.79718  Biso   1.000  C
  C371     1.0000 0.19533  0.46930  0.87197  Biso   1.000  C
  C372     1.0000 0.26816  0.57875  0.41022  Biso   1.000  C
  H393     1.0000 0.23849  0.55770  0.35091  Biso   1.000  H
  H394     1.0000 0.30761  0.59329  0.45852  Biso   1.000  H
  C373     1.0000 0.34794  0.71398  0.39154  Biso   1.000  C
  H395     1.0000 0.38400  0.74001  0.34629  Biso   1.000  H
  H396     1.0000 0.31449  0.67781  0.42230  Biso   1.000  H
  C374     1.0000 0.51959  0.81190  0.72061  Biso   1.000  C
  H397     1.0000 0.52939  0.84000  0.78881  Biso   1.000  H
  H398     1.0000 0.49979  0.85760  0.75268  Biso   1.000  H
  C375     1.0000 0.43206  0.86116  0.79410  Biso   1.000  C
  H399     1.0000 0.47810  0.86499  0.83947  Biso   1.000  H
  H400     1.0000 0.45189  0.83550  0.86131  Biso   1.000  H
  C376     1.0000 0.14014  0.48544  0.78300  Biso   1.000  C
  H401     1.0000 0.14769  0.43919  0.82530  Biso   1.000  H
  H402     1.0000 0.16170  0.43649  0.76579  Biso   1.000  H
  H403     1.0000 0.19499  0.44749  0.89310  Biso   1.000  H
  H404     1.0000 0.17369  0.48250  0.87999  Biso   1.000  H
  C377     1.0000 0.22689  0.49115  0.88781  Biso   1.000  C
  C378     1.0000 0.23886  0.59154  0.44438  Biso   1.000  C
  C379     1.0000 0.34448  0.74022  0.43510  Biso   1.000  C
  N41      1.0000 0.49332  0.81384  0.67800  Biso   1.000  N
  H405     1.0000 0.54259  0.81971  0.70699  Biso   1.000  H
  H406     1.0000 0.52190  0.78731  0.73269  Biso   1.000  H
  N42      1.0000 0.40160  0.83770  0.79659  Biso   1.000  N
  H407     1.0000 0.42549  0.88468  0.80697  Biso   1.000  H
  H408     1.0000 0.44010  0.86339  0.75710  Biso   1.000  H
  N43      1.0000 0.14960  0.49678  0.72953  Biso   1.000  N
  H409     1.0000 0.11469  0.48091  0.78478  Biso   1.000  H
  H410     1.0000 0.14580  0.50419  0.80859  Biso   1.000  H
  N44      1.0000 0.22343  0.52671  0.86889  Biso   1.000  N
  H411     1.0000 0.22909  0.49130  0.92671  Biso   1.000  H
  H412     1.0000 0.24839  0.48059  0.87280  Biso   1.000  H
  C380     1.0000 0.22157  0.62328  0.43099  Biso   1.000  C
  C381     1.0000 0.23027  0.57352  0.49137  Biso   1.000  C
  C382     1.0000 0.37240  0.74771  0.46906  Biso   1.000  C
  C383     1.0000 0.31114  0.75651  0.44268  Biso   1.000  C
  C384     1.0000 0.47475  0.78621  0.67101  Biso   1.000  C
  C385     1.0000 0.39251  0.82366  0.75331  Biso   1.000  C
  C386     1.0000 0.16814  0.52407  0.72555  Biso   1.000  C
  C387     1.0000 0.24425  0.53677  0.83308  Biso   1.000  C
  C388     1.0000 0.19624  0.63679  0.46641  Biso   1.000  C
  C389     1.0000 0.22854  0.64088  0.37819  Biso   1.000  C
  C390     1.0000 0.20497  0.58763  0.52545  Biso   1.000  C
  C391     1.0000 0.24860  0.53926  0.50401  Biso   1.000  C
  C392     1.0000 0.36719  0.77057  0.51183  Biso   1.000  C
  C393     1.0000 0.40857  0.73194  0.45966  Biso   1.000  C
  C394     1.0000 0.30703  0.77950  0.48466  Biso   1.000  C
  C395     1.0000 0.28207  0.74986  0.40347  Biso   1.000  C
  C396     1.0000 0.44770  0.78414  0.62970  Biso   1.000  C
  H413     1.0000 0.47860  0.76649  0.69309  Biso   1.000  H
  C397     1.0000 0.36198  0.80012  0.74960  Biso   1.000  C
  H414     1.0000 0.40569  0.82851  0.72231  Biso   1.000  H
  C398     1.0000 0.17812  0.53834  0.67374  Biso   1.000  C
  H415     1.0000 0.17579  0.53559  0.75670  Biso   1.000  H
  H416     1.0000 0.26099  0.52059  0.81969  Biso   1.000  H
  C399     1.0000 0.24354  0.57197  0.81155  Biso   1.000  C
  C400     1.0000 0.18773  0.61943  0.51325  Biso   1.000  C
  C401     1.0000 0.18001  0.67170  0.45488  Biso   1.000  C
  H417     1.0000 0.22859  0.66660  0.38321  Biso   1.000  H
  H418     1.0000 0.25200  0.63389  0.36540  Biso   1.000  H
  C402     1.0000 0.20172  0.63148  0.33708  Biso   1.000  C
  C403     1.0000 0.19695  0.57014  0.57695  Biso   1.000  C
  H419     1.0000 0.24509  0.53360  0.54180  Biso   1.000  H
  H420     1.0000 0.27411  0.54201  0.49781  Biso   1.000  H
  C404     1.0000 0.23477  0.50870  0.47020  Biso   1.000  C
  C405     1.0000 0.33474  0.78731  0.51953  Biso   1.000  C
  C406     1.0000 0.39568  0.77597  0.55151  Biso   1.000  C
  H421     1.0000 0.40619  0.71099  0.43692  Biso   1.000  H
  H422     1.0000 0.41850  0.72429  0.49390  Biso   1.000  H
  C407     1.0000 0.43371  0.75790  0.43348  Biso   1.000  C
  C408     1.0000 0.27180  0.79543  0.49528  Biso   1.000  C
  H423     1.0000 0.28011  0.72429  0.39731  Biso   1.000  H
  H424     1.0000 0.25960  0.75800  0.41871  Biso   1.000  H
  C409     1.0000 0.28802  0.76793  0.35181  Biso   1.000  C
  C410     1.0000 0.42905  0.75237  0.62508  Biso   1.000  C
  C411     1.0000 0.43987  0.81122  0.59480  Biso   1.000  C
  C412     1.0000 0.35255  0.78589  0.70110  Biso   1.000  C
  C413     1.0000 0.34233  0.79103  0.79355  Biso   1.000  C
  C414     1.0000 0.17024  0.52205  0.62678  Biso   1.000  C
  C415     1.0000 0.19645  0.57058  0.67255  Biso   1.000  C
  C416     1.0000 0.26387  0.58098  0.76780  Biso   1.000  C
  C417     1.0000 0.22165  0.59855  0.83237  Biso   1.000  C
  C418     1.0000 0.16008  0.63449  0.54934  Biso   1.000  C
  C419     1.0000 0.20004  0.70222  0.46164  Biso   1.000  C
  C420     1.0000 0.14591  0.67579  0.43699  Biso   1.000  C
  H425     1.0000 0.20769  0.64289  0.30372  Biso   1.000  H
  H426     1.0000 0.17859  0.63939  0.34881  Biso   1.000  H
  H427     1.0000 0.20140  0.60599  0.33219  Biso   1.000  H
  C421     1.0000 0.17888  0.53816  0.57880  Biso   1.000  C
  C422     1.0000 0.20554  0.58556  0.62445  Biso   1.000  C
  H428     1.0000 0.23909  0.51370  0.43281  Biso   1.000  H
  H429     1.0000 0.20960  0.50589  0.47609  Biso   1.000  H
  H430     1.0000 0.24690  0.48709  0.48008  Biso   1.000  H
  C423     1.0000 0.32942  0.81329  0.56439  Biso   1.000  C
  C424     1.0000 0.40359  0.74894  0.58721  Biso   1.000  C
  C425     1.0000 0.41520  0.80711  0.55700  Biso   1.000  C
  H431     1.0000 0.42211  0.76900  0.40331  Biso   1.000  H
  H432     1.0000 0.45459  0.74540  0.42120  Biso   1.000  H
  H433     1.0000 0.44060  0.77589  0.45911  Biso   1.000  H
  C426     1.0000 0.25059  0.78244  0.53596  Biso   1.000  C
  C427     1.0000 0.25897  0.82374  0.46503  Biso   1.000  C
  H434     1.0000 0.26701  0.76581  0.32990  Biso   1.000  H
  H435     1.0000 0.30789  0.75701  0.33361  Biso   1.000  H
  H436     1.0000 0.29310  0.79270  0.35809  Biso   1.000  H
  H437     1.0000 0.43411  0.73341  0.64819  Biso   1.000  H
  H438     1.0000 0.45199  0.83291  0.59748  Biso   1.000  H
  C428     1.0000 0.32408  0.76376  0.69644  Biso   1.000  C
  H439     1.0000 0.36591  0.79150  0.67058  Biso   1.000  H
  C429     1.0000 0.31371  0.76908  0.78833  Biso   1.000  C
  H440     1.0000 0.34859  0.79991  0.82731  Biso   1.000  H
  H441     1.0000 0.15890  0.49990  0.62690  Biso   1.000  H
  H442     1.0000 0.20250  0.58200  0.70458  Biso   1.000  H
  H443     1.0000 0.27859  0.56369  0.75240  Biso   1.000  H
  C430     1.0000 0.26329  0.61406  0.74616  Biso   1.000  C
  C431     1.0000 0.22144  0.63124  0.81148  Biso   1.000  C
  H444     1.0000 0.20680  0.59339  0.86151  Biso   1.000  H
  H445     1.0000 0.15670  0.65950  0.54050  Biso   1.000  H
  H446     1.0000 0.16859  0.63320  0.58619  Biso   1.000  H
  C432     1.0000 0.12480  0.61571  0.54571  Biso   1.000  C
  H447     1.0000 0.22369  0.70030  0.47281  Biso   1.000  H
  C433     1.0000 0.18603  0.73519  0.45240  Biso   1.000  C
  C434     1.0000 0.13150  0.70850  0.42779  Biso   1.000  C
  H448     1.0000 0.13200  0.65549  0.43091  Biso   1.000  H
  H449     1.0000 0.17231  0.52711  0.54670  Biso   1.000  H
  H450     1.0000 0.21809  0.60709  0.62429  Biso   1.000  H
  H451     1.0000 0.34749  0.80931  0.59179  Biso   1.000  H
  H452     1.0000 0.30619  0.80931  0.58070  Biso   1.000  H
  C435     1.0000 0.33170  0.85145  0.54488  Biso   1.000  C
  H453     1.0000 0.39089  0.72759  0.58500  Biso   1.000  H
  H454     1.0000 0.41080  0.82589  0.53331  Biso   1.000  H
  C436     1.0000 0.21775  0.79697  0.54610  Biso   1.000  C
  H455     1.0000 0.25871  0.76340  0.55689  Biso   1.000  H
  H456     1.0000 0.27280  0.83309  0.43719  Biso   1.000  H
  C437     1.0000 0.22618  0.83801  0.47581  Biso   1.000  C
  C438     1.0000 0.30386  0.75543  0.74012  Biso   1.000  C
  H457     1.0000 0.31829  0.75420  0.66299  Biso   1.000  H
  H458     1.0000 0.30051  0.76319  0.81890  Biso   1.000  H
  H459     1.0000 0.27759  0.61919  0.71650  Biso   1.000  H
  C439     1.0000 0.24171  0.64025  0.76756  Biso   1.000  C
  H460     1.0000 0.20701  0.64860  0.82731  Biso   1.000  H
  H461     1.0000 0.11670  0.61579  0.50898  Biso   1.000  H
  H462     1.0000 0.10759  0.62789  0.56790  Biso   1.000  H
  H463     1.0000 0.12739  0.59151  0.55791  Biso   1.000  H
  H464     1.0000 0.19999  0.75541  0.45808  Biso   1.000  H
  C440     1.0000 0.15175  0.73891  0.43494  Biso   1.000  C
  H465     1.0000 0.10780  0.71039  0.41658  Biso   1.000  H
  H466     1.0000 0.31151  0.85661  0.52241  Biso   1.000  H
  H467     1.0000 0.35331  0.85459  0.52458  Biso   1.000  H
  H468     1.0000 0.33181  0.86729  0.57529  Biso   1.000  H
  C441     1.0000 0.20533  0.82479  0.51672  Biso   1.000  C
  H469     1.0000 0.20371  0.78760  0.57371  Biso   1.000  H
  H470     1.0000 0.21780  0.85700  0.45520  Biso   1.000  H
  C442     1.0000 0.27235  0.73231  0.73447  Biso   1.000  C
  C443     1.0000 0.24226  0.67689  0.74628  Biso   1.000  C
  C444     1.0000 0.13855  0.77419  0.42317  Biso   1.000  C
  C445     1.0000 0.17089  0.84019  0.52920  Biso   1.000  C
  C446     1.0000 0.24234  0.74603  0.70766  Biso   1.000  C
  C447     1.0000 0.27220  0.69816  0.75398  Biso   1.000  C
  C448     1.0000 0.21319  0.68985  0.71769  Biso   1.000  C
  N45      1.0000 0.10864  0.77984  0.40335  Biso   1.000  N
  H471     1.0000 0.15319  0.79370  0.43079  Biso   1.000  H
  N46      1.0000 0.15759  0.86467  0.50421  Biso   1.000  N
  H472     1.0000 0.15811  0.83078  0.55811  Biso   1.000  H
  C449     1.0000 0.21374  0.72388  0.69865  Biso   1.000  C
  C450     1.0000 0.24150  0.78451  0.69328  Biso   1.000  C
  C451     1.0000 0.30334  0.68365  0.78328  Biso   1.000  C
  C452     1.0000 0.18074  0.66723  0.71161  Biso   1.000  C
  C453     1.0000 0.09960  0.81638  0.39261  Biso   1.000  C
  C454     1.0000 0.12385  0.87903  0.52170  Biso   1.000  C
  C455     1.0000 0.18383  0.73663  0.66477  Biso   1.000  C
  H473     1.0000 0.22359  0.78841  0.66560  Biso   1.000  H
  H474     1.0000 0.26450  0.79139  0.67851  Biso   1.000  H
  C456     1.0000 0.23323  0.80755  0.74051  Biso   1.000  C
  H475     1.0000 0.32390  0.69860  0.77597  Biso   1.000  H
  H476     1.0000 0.30850  0.65989  0.76970  Biso   1.000  H
  C457     1.0000 0.29802  0.68150  0.84299  Biso   1.000  C
  H477     1.0000 0.18721  0.64250  0.71800  Biso   1.000  H
  H478     1.0000 0.17210  0.66908  0.67480  Biso   1.000  H
  C458     1.0000 0.15143  0.67741  0.74908  Biso   1.000  C
  H479     1.0000 0.09279  0.81879  0.35501  Biso   1.000  H
  H480     1.0000 0.12040  0.83139  0.39869  Biso   1.000  H
  C459     1.0000 0.06959  0.82872  0.42760  Biso   1.000  C
  C460     1.0000 0.09630  0.87436  0.47901  Biso   1.000  C
  H481     1.0000 0.12650  0.90420  0.52991  Biso   1.000  H
  H482     1.0000 0.11621  0.86690  0.55428  Biso   1.000  H
  C461     1.0000 0.16086  0.76319  0.68120  Biso   1.000  C
  C462     1.0000 0.17904  0.72215  0.61482  Biso   1.000  C
  H483     1.0000 0.23299  0.83220  0.72949  Biso   1.000  H
  H484     1.0000 0.25119  0.80420  0.76780  Biso   1.000  H
  H485     1.0000 0.21020  0.80119  0.75481  Biso   1.000  H
  H486     1.0000 0.27670  0.66809  0.85069  Biso   1.000  H
  H487     1.0000 0.29579  0.70520  0.85760  Biso   1.000  H
  H488     1.0000 0.31819  0.66979  0.85918  Biso   1.000  H
  H489     1.0000 0.14619  0.70240  0.74497  Biso   1.000  H
  H490     1.0000 0.15869  0.67280  0.78561  Biso   1.000  H
  H491     1.0000 0.13051  0.66358  0.74110  Biso   1.000  H
  N47      1.0000 0.08148  0.83875  0.47941  Biso   1.000  N
  H492     1.0000 0.05791  0.84891  0.41069  Biso   1.000  H
  H493     1.0000 0.05209  0.80970  0.43099  Biso   1.000  H
  H494     1.0000 0.07729  0.89160  0.48438  Biso   1.000  H
  H495     1.0000 0.10699  0.87900  0.44398  Biso   1.000  H
  C463     1.0000 0.13407  0.77466  0.64917  Biso   1.000  C
  H496     1.0000 0.16379  0.77351  0.71508  Biso   1.000  H
  C464     1.0000 0.15138  0.73333  0.58295  Biso   1.000  C
  H497     1.0000 0.19459  0.70460  0.60238  Biso   1.000  H
  C465     1.0000 0.05327  0.83621  0.51850  Biso   1.000  C
  C466     1.0000 0.12836  0.75955  0.59930  Biso   1.000  C
  H498     1.0000 0.11930  0.79310  0.66090  Biso   1.000  H
  H499     1.0000 0.14821  0.72280  0.54930  Biso   1.000  H
  C467     1.0000 0.04827  0.79922  0.53931  Biso   1.000  C
  H500     1.0000 0.03109  0.84430  0.50219  Biso   1.000  H
  H501     1.0000 0.05859  0.85200  0.54839  Biso   1.000  H
  C468     1.0000 0.09976  0.76997  0.56459  Biso   1.000  C
  N48      1.0000 0.07559  0.79118  0.57833  Biso   1.000  N
  H502     1.0000 0.02491  0.79710  0.55590  Biso   1.000  H
  H503     1.0000 0.04960  0.78231  0.50969  Biso   1.000  H
  H504     1.0000 0.09910  0.76049  0.52991  Biso   1.000  H
  C469     1.0000 0.42284  0.42565  0.51882  Biso   1.000  C
  C470     1.0000 0.39697  0.40386  0.49678  Biso   1.000  C
  H505     1.0000 0.44139  0.43421  0.49741  Biso   1.000  H
  C471     1.0000 0.42114  0.43479  0.57268  Biso   1.000  C
  C472     1.0000 0.39760  0.39354  0.43921  Biso   1.000  C
  C473     1.0000 0.36960  0.39265  0.52885  Biso   1.000  C
  H506     1.0000 0.43950  0.44830  0.58781  Biso   1.000  H
  C474     1.0000 0.39348  0.42455  0.60388  Biso   1.000  C
  C475     1.0000 0.37180  0.40666  0.40520  Biso   1.000  C
  C476     1.0000 0.42342  0.36965  0.42112  Biso   1.000  C
  C477     1.0000 0.36761  0.40276  0.58168  Biso   1.000  C
  H507     1.0000 0.35200  0.37790  0.51451  Biso   1.000  H
  C478     1.0000 0.38932  0.43418  0.65952  Biso   1.000  C
  C479     1.0000 0.37044  0.39519  0.35300  Biso   1.000  C
  C480     1.0000 0.34611  0.43468  0.42416  Biso   1.000  C
  C481     1.0000 0.42177  0.35865  0.36808  Biso   1.000  C
  C482     1.0000 0.45249  0.35705  0.45646  Biso   1.000  C
  H508     1.0000 0.34859  0.39490  0.60289  Biso   1.000  H
  N49      1.0000 0.41245  0.45100  0.68546  Biso   1.000  N
  H509     1.0000 0.36829  0.42761  0.67709  Biso   1.000  H
  C483     1.0000 0.34260  0.40739  0.31627  Biso   1.000  C
  C484     1.0000 0.39626  0.37114  0.33365  Biso   1.000  C
  H510     1.0000 0.33830  0.42879  0.46041  Biso   1.000  H
  H511     1.0000 0.32521  0.43439  0.40098  Biso   1.000  H
  C485     1.0000 0.36140  0.47090  0.42428  Biso   1.000  C
  C486     1.0000 0.44867  0.33228  0.34858  Biso   1.000  C
  H512     1.0000 0.44589  0.36140  0.49370  Biso   1.000  H
  H513     1.0000 0.45540  0.33149  0.45180  Biso   1.000  H
  C487     1.0000 0.48740  0.37520  0.44501  Biso   1.000  C
  C488     1.0000 0.40331  0.45993  0.74012  Biso   1.000  C
  C489     1.0000 0.34152  0.44105  0.29590  Biso   1.000  C
  C490     1.0000 0.31607  0.38408  0.30020  Biso   1.000  C
  C491     1.0000 0.39605  0.36069  0.27568  Biso   1.000  C
  H514     1.0000 0.38159  0.47161  0.44821  Biso   1.000  H
  H515     1.0000 0.36889  0.47711  0.38850  Biso   1.000  H
  H516     1.0000 0.34359  0.48759  0.43628  Biso   1.000  H
  C492     1.0000 0.47480  0.34207  0.31371  Biso   1.000  C
  C493     1.0000 0.44765  0.29810  0.36599  Biso   1.000  C
  H517     1.0000 0.50610  0.36360  0.46491  Biso   1.000  H
  H518     1.0000 0.49251  0.37371  0.40710  Biso   1.000  H
  H519     1.0000 0.48599  0.39980  0.45559  Biso   1.000  H
  H520     1.0000 0.40281  0.48570  0.74411  Biso   1.000  H
  H521     1.0000 0.37960  0.45079  0.74821  Biso   1.000  H
  C494     1.0000 0.42934  0.44474  0.77890  Biso   1.000  C
  C495     1.0000 0.31544  0.45184  0.26063  Biso   1.000  C
  H522     1.0000 0.35899  0.45731  0.30620  Biso   1.000  H
  C496     1.0000 0.29097  0.39443  0.26399  Biso   1.000  C
  H523     1.0000 0.31541  0.36109  0.31438  Biso   1.000  H
  H524     1.0000 0.37169  0.35509  0.26509  Biso   1.000  H
  H525     1.0000 0.41019  0.33919  0.27129  Biso   1.000  H
  C497     1.0000 0.41019  0.38880  0.23931  Biso   1.000  C
  C498     1.0000 0.49987  0.31756  0.29621  Biso   1.000  C
  H526     1.0000 0.47590  0.36559  0.30150  Biso   1.000  H
  C499     1.0000 0.47297  0.27361  0.34992  Biso   1.000  C
  H527     1.0000 0.42950  0.29100  0.38929  Biso   1.000  H
  N50      1.0000 0.42431  0.40752  0.78810  Biso   1.000  N
  H528     1.0000 0.42719  0.45731  0.81290  Biso   1.000  H
  H529     1.0000 0.45330  0.44859  0.76531  Biso   1.000  H
  C500     1.0000 0.28993  0.42800  0.24330  Biso   1.000  C
  H530     1.0000 0.31499  0.47541  0.24839  Biso   1.000  H
  H531     1.0000 0.27390  0.37790  0.25289  Biso   1.000  H
  H532     1.0000 0.43379  0.39550  0.25068  Biso   1.000  H
  H533     1.0000 0.41119  0.37979  0.20310  Biso   1.000  H
  H534     1.0000 0.39479  0.40941  0.24049  Biso   1.000  H
  C501     1.0000 0.49908  0.28359  0.31406  Biso   1.000  C
  H535     1.0000 0.51750  0.32460  0.27189  Biso   1.000  H
  H536     1.0000 0.47240  0.25041  0.36331  Biso   1.000  H
  C502     1.0000 0.39663  0.40179  0.82723  Biso   1.000  C
  C503     1.0000 0.45681  0.39071  0.80551  Biso   1.000  C
  C504     1.0000 0.26279  0.43751  0.20428  Biso   1.000  C
  C505     1.0000 0.52485  0.25685  0.29807  Biso   1.000  C
  C506     1.0000 0.37897  0.36659  0.82166  Biso   1.000  C
  H537     1.0000 0.40689  0.40359  0.86309  Biso   1.000  H
  H538     1.0000 0.37879  0.42049  0.82360  Biso   1.000  H
  C507     1.0000 0.48057  0.38230  0.75899  Biso   1.000  C
  H539     1.0000 0.46930  0.40640  0.83019  Biso   1.000  H
  H540     1.0000 0.45110  0.36879  0.82459  Biso   1.000  H
  N51      1.0000 0.26067  0.46747  0.18442  Biso   1.000  N
  H541     1.0000 0.24629  0.42020  0.19382  Biso   1.000  H
  N52      1.0000 0.54667  0.26086  0.26111  Biso   1.000  N
  H542     1.0000 0.52509  0.23529  0.31671  Biso   1.000  H
  N53      1.0000 0.35302  0.36790  0.77894  Biso   1.000  N
  H543     1.0000 0.36729  0.36030  0.85531  Biso   1.000  H
  H544     1.0000 0.39671  0.34841  0.81381  Biso   1.000  H
  N54      1.0000 0.46870  0.35090  0.73210  Biso   1.000  N
  H545     1.0000 0.50479  0.37879  0.77179  Biso   1.000  H
  H546     1.0000 0.48059  0.40221  0.73400  Biso   1.000  H
  C508     1.0000 0.23309  0.47242  0.14378  Biso   1.000  C
  C509     1.0000 0.57134  0.23241  0.25068  Biso   1.000  C
  C510     1.0000 0.35949  0.35085  0.73708  Biso   1.000  C
  C511     1.0000 0.45775  0.35378  0.68491  Biso   1.000  C
  C512     1.0000 0.20570  0.49770  0.16191  Biso   1.000  C
  H547     1.0000 0.24391  0.48120  0.11089  Biso   1.000  H
  H548     1.0000 0.22199  0.44961  0.13600  Biso   1.000  H
  C513     1.0000 0.56938  0.21958  0.19405  Biso   1.000  C
  H549     1.0000 0.59539  0.24061  0.25818  Biso   1.000  H
  H550     1.0000 0.56621  0.21269  0.27481  Biso   1.000  H
  C514     1.0000 0.33471  0.35079  0.69265  Biso   1.000  C
  H551     1.0000 0.38070  0.33791  0.73439  Biso   1.000  H
  C515     1.0000 0.44563  0.32405  0.65348  Biso   1.000  C
  H552     1.0000 0.45739  0.37641  0.66931  Biso   1.000  H
  N55      1.0000 0.18069  0.48138  0.20002  Biso   1.000  N
  H553     1.0000 0.19260  0.50639  0.13091  Biso   1.000  H
  H554     1.0000 0.21720  0.51799  0.17901  Biso   1.000  H
  N56      1.0000 0.53976  0.19580  0.18473  Biso   1.000  N
  H555     1.0000 0.59151  0.20730  0.18521  Biso   1.000  H
  H556     1.0000 0.56720  0.24001  0.17020  Biso   1.000  H
  C516     1.0000 0.30410  0.37159  0.69309  Biso   1.000  C
  C517     1.0000 0.34071  0.32963  0.64929  Biso   1.000  C
  C518     1.0000 0.44951  0.28932  0.66923  Biso   1.000  C
  C519     1.0000 0.42960  0.33034  0.60431  Biso   1.000  C
  C520     1.0000 0.15410  0.46200  0.17111  Biso   1.000  C
  C521     1.0000 0.16500  0.50856  0.23331  Biso   1.000  C
  C522     1.0000 0.53067  0.19533  0.12799  Biso   1.000  C
  C523     1.0000 0.54803  0.16039  0.20278  Biso   1.000  C
  C524     1.0000 0.28047  0.36999  0.65233  Biso   1.000  C
  H557     1.0000 0.29980  0.38691  0.72199  Biso   1.000  H
  C525     1.0000 0.31709  0.32861  0.60751  Biso   1.000  C
  H558     1.0000 0.36130  0.31559  0.64799  Biso   1.000  H
  C526     1.0000 0.43835  0.26193  0.63792  Biso   1.000  C
  H559     1.0000 0.46009  0.28440  0.70240  Biso   1.000  H
  C527     1.0000 0.41774  0.30268  0.57426  Biso   1.000  C
  H560     1.0000 0.42701  0.35370  0.59191  Biso   1.000  H
  C528     1.0000 0.13884  0.43206  0.20590  Biso   1.000  C
  H561     1.0000 0.13501  0.47810  0.16049  Biso   1.000  H
  H562     1.0000 0.16450  0.45189  0.13869  Biso   1.000  H
  C529     1.0000 0.18810  0.51959  0.27939  Biso   1.000  C
  H563     1.0000 0.16000  0.52939  0.21119  Biso   1.000  H
  H564     1.0000 0.14240  0.49979  0.24729  Biso   1.000  H
  C530     1.0000 0.50883  0.22689  0.11219  Biso   1.000  C
  H565     1.0000 0.55249  0.19499  0.10690  Biso   1.000  H
  H566     1.0000 0.51750  0.17369  0.12001  Biso   1.000  H
  H567     1.0000 0.56079  0.14769  0.17470  Biso   1.000  H
  H568     1.0000 0.56349  0.16170  0.23421  Biso   1.000  H
  C531     1.0000 0.51456  0.14014  0.21700  Biso   1.000  C
  C532     1.0000 0.28600  0.34794  0.60846  Biso   1.000  C
  H569     1.0000 0.25999  0.38400  0.65371  Biso   1.000  H
  H570     1.0000 0.32219  0.31449  0.57770  Biso   1.000  H
  C533     1.0000 0.42125  0.26816  0.58978  Biso   1.000  C
  H571     1.0000 0.44230  0.23849  0.64909  Biso   1.000  H
  H572     1.0000 0.40671  0.30761  0.54148  Biso   1.000  H
  N57      1.0000 0.16230  0.40160  0.20341  Biso   1.000  N
  H573     1.0000 0.11529  0.42549  0.19299  Biso   1.000  H
  H574     1.0000 0.13661  0.44010  0.24290  Biso   1.000  H
  N58      1.0000 0.18616  0.49332  0.32200  Biso   1.000  N
  H575     1.0000 0.18029  0.54259  0.29301  Biso   1.000  H
  H576     1.0000 0.21269  0.52190  0.26731  Biso   1.000  H
  N59      1.0000 0.47326  0.22343  0.13107  Biso   1.000  N
  H577     1.0000 0.50870  0.22909  0.07329  Biso   1.000  H
  H578     1.0000 0.51941  0.24839  0.12720  Biso   1.000  H
  N60      1.0000 0.50320  0.14960  0.27047  Biso   1.000  N
  H579     1.0000 0.51909  0.11469  0.21518  Biso   1.000  H
  H580     1.0000 0.49581  0.14580  0.19141  Biso   1.000  H
  C534     1.0000 0.25978  0.34448  0.56490  Biso   1.000  C
  C535     1.0000 0.40846  0.23886  0.55562  Biso   1.000  C
  C536     1.0000 0.17634  0.39251  0.24669  Biso   1.000  C
  C537     1.0000 0.21379  0.47475  0.32899  Biso   1.000  C
  C538     1.0000 0.46323  0.24425  0.16692  Biso   1.000  C
  C539     1.0000 0.47593  0.16814  0.27445  Biso   1.000  C
  C540     1.0000 0.25229  0.37240  0.53094  Biso   1.000  C
  C541     1.0000 0.24349  0.31114  0.55732  Biso   1.000  C
  C542     1.0000 0.42648  0.23027  0.50863  Biso   1.000  C
  C543     1.0000 0.37670  0.22157  0.56897  Biso   1.000  C
  C544     1.0000 0.19988  0.36198  0.25040  Biso   1.000  C
  H581     1.0000 0.17149  0.40569  0.27769  Biso   1.000  H
  C545     1.0000 0.21586  0.44770  0.37030  Biso   1.000  C
  H582     1.0000 0.23349  0.47860  0.30691  Biso   1.000  H
  C546     1.0000 0.42803  0.24354  0.18845  Biso   1.000  C
  H583     1.0000 0.47939  0.26099  0.18031  Biso   1.000  H
  H584     1.0000 0.46441  0.17579  0.24330  Biso   1.000  H
  C547     1.0000 0.46166  0.17812  0.32626  Biso   1.000  C
  C548     1.0000 0.22943  0.36719  0.48817  Biso   1.000  C
  C549     1.0000 0.26806  0.40857  0.54034  Biso   1.000  C
  C550     1.0000 0.22050  0.30703  0.51530  Biso   1.000  C
  C551     1.0000 0.25014  0.28207  0.59653  Biso   1.000  C
  C552     1.0000 0.41237  0.20497  0.47451  Biso   1.000  C
  C553     1.0000 0.46074  0.24860  0.49599  Biso   1.000  C
  C554     1.0000 0.36321  0.19624  0.53359  Biso   1.000  C
  C555     1.0000 0.35912  0.22854  0.62181  Biso   1.000  C
  C556     1.0000 0.21411  0.35255  0.29890  Biso   1.000  C
  C557     1.0000 0.20897  0.34233  0.20641  Biso   1.000  C
  C558     1.0000 0.24763  0.42905  0.37492  Biso   1.000  C
  C559     1.0000 0.18878  0.43987  0.40520  Biso   1.000  C
  C560     1.0000 0.41902  0.26387  0.23220  Biso   1.000  C
  C561     1.0000 0.40142  0.22165  0.16759  Biso   1.000  C
  C562     1.0000 0.47795  0.17024  0.37318  Biso   1.000  C
  C563     1.0000 0.42942  0.19645  0.32745  Biso   1.000  C
  C564     1.0000 0.22403  0.39568  0.44849  Biso   1.000  C
  C565     1.0000 0.21269  0.33474  0.48047  Biso   1.000  C
  H585     1.0000 0.28901  0.40619  0.56308  Biso   1.000  H
  H586     1.0000 0.27571  0.41850  0.50610  Biso   1.000  H
  C566     1.0000 0.24210  0.43371  0.56648  Biso   1.000  C
  C567     1.0000 0.20457  0.27180  0.50472  Biso   1.000  C
  H587     1.0000 0.27571  0.28011  0.60269  Biso   1.000  H
  H588     1.0000 0.24200  0.25960  0.58129  Biso   1.000  H
  C568     1.0000 0.23207  0.28802  0.64819  Biso   1.000  C
  C569     1.0000 0.42984  0.19695  0.42305  Biso   1.000  C
  C570     1.0000 0.38057  0.18773  0.48675  Biso   1.000  C
  H589     1.0000 0.46640  0.24509  0.45820  Biso   1.000  H
  H590     1.0000 0.45799  0.27411  0.50219  Biso   1.000  H
  C571     1.0000 0.49130  0.23477  0.52980  Biso   1.000  C
  C572     1.0000 0.32827  0.18001  0.54512  Biso   1.000  C
  H591     1.0000 0.33340  0.22859  0.61679  Biso   1.000  H
  H592     1.0000 0.36609  0.25200  0.63460  Biso   1.000  H
  C573     1.0000 0.36852  0.20172  0.66288  Biso   1.000  C
  C574     1.0000 0.23621  0.32408  0.30352  Biso   1.000  C
  H593     1.0000 0.20850  0.36591  0.32938  Biso   1.000  H
  C575     1.0000 0.23092  0.31371  0.21163  Biso   1.000  C
  H594     1.0000 0.20009  0.34859  0.17269  Biso   1.000  H
  C576     1.0000 0.25106  0.40359  0.41279  Biso   1.000  C
  H595     1.0000 0.26659  0.43411  0.35181  Biso   1.000  H
  H596     1.0000 0.16709  0.45199  0.40248  Biso   1.000  H
  C577     1.0000 0.19289  0.41520  0.44300  Biso   1.000  C
  C578     1.0000 0.38594  0.26329  0.25380  Biso   1.000  C
  H597     1.0000 0.43631  0.27859  0.24760  Biso   1.000  H
  C579     1.0000 0.36876  0.22144  0.18848  Biso   1.000  C
  H598     1.0000 0.40661  0.20680  0.13849  Biso   1.000  H
  H599     1.0000 0.50010  0.15890  0.37310  Biso   1.000  H
  C580     1.0000 0.46184  0.17888  0.42120  Biso   1.000  C
  C581     1.0000 0.41444  0.20554  0.37551  Biso   1.000  C
  H600     1.0000 0.41800  0.20250  0.29538  Biso   1.000  H
  C582     1.0000 0.18671  0.32942  0.43561  Biso   1.000  C
  H601     1.0000 0.23100  0.42211  0.59669  Biso   1.000  H
  H602     1.0000 0.25460  0.45459  0.57880  Biso   1.000  H
  H603     1.0000 0.22411  0.44060  0.54089  Biso   1.000  H
  C583     1.0000 0.21756  0.25059  0.46404  Biso   1.000  C
  C584     1.0000 0.17626  0.25897  0.53497  Biso   1.000  C
  H604     1.0000 0.23419  0.26701  0.67010  Biso   1.000  H
  H605     1.0000 0.24299  0.30789  0.66639  Biso   1.000  H
  H606     1.0000 0.20730  0.29310  0.64191  Biso   1.000  H
  C585     1.0000 0.36551  0.16008  0.45062  Biso   1.000  C
  H607     1.0000 0.48630  0.23909  0.56719  Biso   1.000  H
  H608     1.0000 0.49411  0.20960  0.52391  Biso   1.000  H
  H609     1.0000 0.51289  0.24690  0.51988  Biso   1.000  H
  C586     1.0000 0.29778  0.20004  0.53836  Biso   1.000  C
  C587     1.0000 0.32421  0.14591  0.56301  Biso   1.000  C
  H610     1.0000 0.35711  0.20769  0.69628  Biso   1.000  H
  H611     1.0000 0.36059  0.17859  0.65119  Biso   1.000  H
  H612     1.0000 0.39401  0.20140  0.66781  Biso   1.000  H
  C588     1.0000 0.24454  0.30386  0.25984  Biso   1.000  C
  H613     1.0000 0.24580  0.31829  0.33701  Biso   1.000  H
  H614     1.0000 0.23679  0.30051  0.18110  Biso   1.000  H
  H615     1.0000 0.27241  0.39089  0.41500  Biso   1.000  H
  H616     1.0000 0.17409  0.41080  0.46669  Biso   1.000  H
  C589     1.0000 0.35975  0.24171  0.23244  Biso   1.000  C
  H617     1.0000 0.38081  0.27759  0.28350  Biso   1.000  H
  H618     1.0000 0.35140  0.20701  0.17269  Biso   1.000  H
  H619     1.0000 0.47289  0.17231  0.45330  Biso   1.000  H
  H620     1.0000 0.39291  0.21809  0.37571  Biso   1.000  H
  H621     1.0000 0.19069  0.34749  0.40821  Biso   1.000  H
  H622     1.0000 0.19069  0.30619  0.41930  Biso   1.000  H
  C590     1.0000 0.14855  0.33170  0.45508  Biso   1.000  C
  C591     1.0000 0.20303  0.21775  0.45390  Biso   1.000  C
  H623     1.0000 0.23660  0.25871  0.44311  Biso   1.000  H
  C592     1.0000 0.16196  0.22618  0.52419  Biso   1.000  C
  H624     1.0000 0.16691  0.27280  0.56281  Biso   1.000  H
  H625     1.0000 0.34050  0.15670  0.45950  Biso   1.000  H
  H626     1.0000 0.36680  0.16859  0.41381  Biso   1.000  H
  C593     1.0000 0.38429  0.12480  0.45429  Biso   1.000  C
  C594     1.0000 0.26481  0.18603  0.54760  Biso   1.000  C
  H627     1.0000 0.29970  0.22369  0.52719  Biso   1.000  H
  C595     1.0000 0.29150  0.13150  0.57221  Biso   1.000  C
  H628     1.0000 0.34451  0.13200  0.56909  Biso   1.000  H
  C596     1.0000 0.26769  0.27235  0.26549  Biso   1.000  C
  C597     1.0000 0.32311  0.24226  0.25372  Biso   1.000  C
  H629     1.0000 0.14339  0.31151  0.47759  Biso   1.000  H
  H630     1.0000 0.14541  0.35331  0.47538  Biso   1.000  H
  H631     1.0000 0.13271  0.33181  0.42471  Biso   1.000  H
  C598     1.0000 0.17521  0.20533  0.48328  Biso   1.000  C
  H632     1.0000 0.21240  0.20371  0.42629  Biso   1.000  H
  H633     1.0000 0.14300  0.21780  0.54480  Biso   1.000  H
  H634     1.0000 0.38419  0.11670  0.49098  Biso   1.000  H
  H635     1.0000 0.37209  0.10759  0.43210  Biso   1.000  H
  H636     1.0000 0.40849  0.12739  0.44209  Biso   1.000  H
  C599     1.0000 0.26109  0.15175  0.56506  Biso   1.000  C
  H637     1.0000 0.24459  0.19999  0.54188  Biso   1.000  H
  H638     1.0000 0.28959  0.10780  0.58338  Biso   1.000  H
  C600     1.0000 0.30184  0.27220  0.24602  Biso   1.000  C
  C601     1.0000 0.25397  0.24234  0.29234  Biso   1.000  C
  C602     1.0000 0.31015  0.21319  0.28227  Biso   1.000  C
  C603     1.0000 0.15981  0.17089  0.47080  Biso   1.000  C
  C604     1.0000 0.22581  0.13855  0.57683  Biso   1.000  C
  C605     1.0000 0.31635  0.30334  0.21668  Biso   1.000  C
  C606     1.0000 0.27612  0.21374  0.30135  Biso   1.000  C
  C607     1.0000 0.21547  0.24150  0.30672  Biso   1.000  C
  C608     1.0000 0.33277  0.18074  0.28839  Biso   1.000  C
  N61      1.0000 0.13530  0.15759  0.49579  Biso   1.000  N
  H639     1.0000 0.16919  0.15811  0.44189  Biso   1.000  H
  N62      1.0000 0.22013  0.10864  0.59661  Biso   1.000  N
  H640     1.0000 0.20630  0.15319  0.56921  Biso   1.000  H
  H641     1.0000 0.30140  0.32390  0.22399  Biso   1.000  H
  H642     1.0000 0.34011  0.30850  0.23030  Biso   1.000  H
  C609     1.0000 0.31850  0.29802  0.15701  Biso   1.000  C
  C610     1.0000 0.26337  0.18383  0.33523  Biso   1.000  C
  H643     1.0000 0.21159  0.22359  0.33440  Biso   1.000  H
  H644     1.0000 0.20861  0.26450  0.32149  Biso   1.000  H
  C611     1.0000 0.19242  0.23323  0.25949  Biso   1.000  C
  H645     1.0000 0.35750  0.18721  0.28200  Biso   1.000  H
  H646     1.0000 0.33089  0.17210  0.32520  Biso   1.000  H
  C612     1.0000 0.32259  0.15143  0.25088  Biso   1.000  C
  C613     1.0000 0.12095  0.12385  0.47830  Biso   1.000  C
  C614     1.0000 0.18362  0.09960  0.60739  Biso   1.000  C
  H647     1.0000 0.33191  0.27670  0.14931  Biso   1.000  H
  H648     1.0000 0.29480  0.29579  0.14240  Biso   1.000  H
  H649     1.0000 0.33021  0.31819  0.14078  Biso   1.000  H
  C615     1.0000 0.23679  0.16086  0.31876  Biso   1.000  C
  C616     1.0000 0.27783  0.17904  0.38514  Biso   1.000  C
  H650     1.0000 0.16780  0.23299  0.27051  Biso   1.000  H
  H651     1.0000 0.19580  0.25119  0.23220  Biso   1.000  H
  H652     1.0000 0.19881  0.21020  0.24519  Biso   1.000  H
  H653     1.0000 0.29760  0.14619  0.25499  Biso   1.000  H
  H654     1.0000 0.32720  0.15869  0.21439  Biso   1.000  H
  H655     1.0000 0.33639  0.13051  0.25890  Biso   1.000  H
  C617     1.0000 0.12564  0.09630  0.52099  Biso   1.000  C
  H656     1.0000 0.09580  0.12650  0.47009  Biso   1.000  H
  H657     1.0000 0.13310  0.11621  0.44568  Biso   1.000  H
  C618     1.0000 0.17128  0.06959  0.57240  Biso   1.000  C
  H658     1.0000 0.18121  0.09279  0.64499  Biso   1.000  H
  H659     1.0000 0.16859  0.12040  0.60131  Biso   1.000  H
  H660     1.0000 0.22649  0.16379  0.28488  Biso   1.000  H
  C619     1.0000 0.22534  0.13407  0.35083  Biso   1.000  C
  C620     1.0000 0.26667  0.15138  0.41705  Biso   1.000  C
  H661     1.0000 0.29540  0.19459  0.39758  Biso   1.000  H
  N63      1.0000 0.16123  0.08148  0.52059  Biso   1.000  N
  H662     1.0000 0.10840  0.07729  0.51558  Biso   1.000  H
  H663     1.0000 0.12100  0.10699  0.55598  Biso   1.000  H
  H664     1.0000 0.15109  0.05791  0.58931  Biso   1.000  H
  H665     1.0000 0.19030  0.05209  0.56901  Biso   1.000  H
  H666     1.0000 0.20690  0.11930  0.33910  Biso   1.000  H
  C621     1.0000 0.24043  0.12836  0.40070  Biso   1.000  C
  H667     1.0000 0.27720  0.14821  0.45070  Biso   1.000  H
  C622     1.0000 0.16379  0.05327  0.48150  Biso   1.000  C
  C623     1.0000 0.23003  0.09976  0.43541  Biso   1.000  C
  C624     1.0000 0.20078  0.04827  0.46069  Biso   1.000  C
  H668     1.0000 0.15570  0.03109  0.49781  Biso   1.000  H
  H669     1.0000 0.14800  0.05859  0.45161  Biso   1.000  H
  N64      1.0000 0.20882  0.07559  0.42163  Biso   1.000  N
  H670     1.0000 0.23951  0.09910  0.47009  Biso   1.000  H
  H671     1.0000 0.20290  0.02491  0.44410  Biso   1.000  H
  H672     1.0000 0.21769  0.04960  0.49031  Biso   1.000  H
  C625     1.0000 0.73323  0.30758  0.24049  Biso   1.000  C
  C626     1.0000 0.74150  0.28451  0.19330  Biso   1.000  C
  H673     1.0000 0.73299  0.33220  0.22951  Biso   1.000  H
  H674     1.0000 0.75119  0.30420  0.26778  Biso   1.000  H
  H675     1.0000 0.71020  0.30119  0.25479  Biso   1.000  H
  C627     1.0000 0.74231  0.24603  0.20764  Biso   1.000  C
  H676     1.0000 0.72359  0.28841  0.16558  Biso   1.000  H
  H677     1.0000 0.76450  0.29139  0.17849  Biso   1.000  H
  C628     1.0000 0.71374  0.22388  0.19867  Biso   1.000  C
  C629     1.0000 0.77235  0.23231  0.23449  Biso   1.000  C
  C630     1.0000 0.68383  0.23663  0.16475  Biso   1.000  C
  C631     1.0000 0.71316  0.18985  0.21771  Biso   1.000  C
  C632     1.0000 0.77220  0.19816  0.25396  Biso   1.000  C
  C633     1.0000 0.80386  0.25546  0.24014  Biso   1.000  C
  C634     1.0000 0.66083  0.26319  0.18122  Biso   1.000  C
  C635     1.0000 0.67904  0.22215  0.11484  Biso   1.000  C
  C636     1.0000 0.74223  0.17689  0.24626  Biso   1.000  C
  C637     1.0000 0.68074  0.16723  0.21159  Biso   1.000  C
  C638     1.0000 0.80334  0.18365  0.28330  Biso   1.000  C
  C639     1.0000 0.82408  0.26379  0.19646  Biso   1.000  C
  C640     1.0000 0.81371  0.26908  0.28835  Biso   1.000  C
  C641     1.0000 0.63407  0.27466  0.14915  Biso   1.000  C
  H678     1.0000 0.66379  0.27351  0.21510  Biso   1.000  H
  C642     1.0000 0.65138  0.23333  0.08293  Biso   1.000  C
  H679     1.0000 0.69459  0.20460  0.10240  Biso   1.000  H
  C643     1.0000 0.74171  0.14025  0.26758  Biso   1.000  C
  H680     1.0000 0.68721  0.14250  0.21798  Biso   1.000  H
  H681     1.0000 0.67210  0.16911  0.17478  Biso   1.000  H
  C644     1.0000 0.65143  0.17741  0.24910  Biso   1.000  C
  H682     1.0000 0.82390  0.19860  0.27599  Biso   1.000  H
  H683     1.0000 0.80850  0.15989  0.26972  Biso   1.000  H
  C645     1.0000 0.79802  0.18150  0.34301  Biso   1.000  C
  H684     1.0000 0.81829  0.25420  0.16301  Biso   1.000  H
  C646     1.0000 0.85255  0.28589  0.20108  Biso   1.000  C
  C647     1.0000 0.84233  0.29103  0.29357  Biso   1.000  C
  H685     1.0000 0.80051  0.26319  0.31888  Biso   1.000  H
  C648     1.0000 0.62836  0.25955  0.09932  Biso   1.000  C
  H686     1.0000 0.61930  0.29310  0.16088  Biso   1.000  H
  H687     1.0000 0.64819  0.22280  0.04928  Biso   1.000  H
  C649     1.0000 0.76329  0.11406  0.24618  Biso   1.000  C
  C650     1.0000 0.72144  0.13124  0.31150  Biso   1.000  C
  H688     1.0000 0.64619  0.20240  0.24499  Biso   1.000  H
  H689     1.0000 0.65869  0.17280  0.28559  Biso   1.000  H
  H690     1.0000 0.63051  0.16361  0.24109  Biso   1.000  H
  H691     1.0000 0.77670  0.16809  0.35071  Biso   1.000  H
  H692     1.0000 0.79579  0.20520  0.35758  Biso   1.000  H
  H693     1.0000 0.81819  0.16979  0.35920  Biso   1.000  H
  H694     1.0000 0.86591  0.29150  0.17060  Biso   1.000  H
  C651     1.0000 0.86198  0.30012  0.24961  Biso   1.000  C
  H695     1.0000 0.84859  0.29991  0.32729  Biso   1.000  H
  C652     1.0000 0.59976  0.26997  0.06457  Biso   1.000  C
  C653     1.0000 0.76387  0.08098  0.26778  Biso   1.000  C
  H696     1.0000 0.77759  0.11919  0.21648  Biso   1.000  H
  H697     1.0000 0.70701  0.14860  0.32729  Biso   1.000  H
  C654     1.0000 0.72165  0.09858  0.33239  Biso   1.000  C
  C655     1.0000 0.89251  0.32366  0.25329  Biso   1.000  C
  N65      1.0000 0.57559  0.29118  0.07835  Biso   1.000  N
  H698     1.0000 0.59910  0.26049  0.02989  Biso   1.000  H
  C656     1.0000 0.74354  0.07197  0.31153  Biso   1.000  C
  H699     1.0000 0.77859  0.06369  0.25238  Biso   1.000  H
  H700     1.0000 0.70680  0.09339  0.36149  Biso   1.000  H
  N66      1.0000 0.90160  0.33770  0.29661  Biso   1.000  N
  H701     1.0000 0.90569  0.32851  0.22229  Biso   1.000  H
  C657     1.0000 0.54827  0.29922  0.03929  Biso   1.000  C
  C658     1.0000 0.74423  0.03677  0.33306  Biso   1.000  C
  C659     1.0000 0.93206  0.36116  0.29408  Biso   1.000  C
  H702     1.0000 0.52491  0.29710  0.05592  Biso   1.000  H
  H703     1.0000 0.54960  0.28231  0.00971  Biso   1.000  H
  C660     1.0000 0.55327  0.33621  0.01848  Biso   1.000  C
  N67      1.0000 0.72343  0.02674  0.36891  Biso   1.000  N
  H704     1.0000 0.76099  0.02061  0.31971  Biso   1.000  H
  H705     1.0000 0.92549  0.38471  0.30699  Biso   1.000  H
  H706     1.0000 0.94010  0.36339  0.25708  Biso   1.000  H
  C661     1.0000 0.96200  0.34590  0.32891  Biso   1.000  C
  H707     1.0000 0.53109  0.34430  0.00221  Biso   1.000  H
  H708     1.0000 0.55859  0.35200  0.04841  Biso   1.000  H
  N68      1.0000 0.58148  0.33875  0.97939  Biso   1.000  N
  C662     1.0000 0.72689  0.99115  0.38779  Biso   1.000  C
  N69      1.0000 0.98135  0.31931  0.30000  Biso   1.000  N
  H709     1.0000 0.97810  0.36499  0.33949  Biso   1.000  H
  H710     1.0000 0.95189  0.33550  0.36129  Biso   1.000  H
  C663     1.0000 0.56959  0.32872  0.92762  Biso   1.000  C
  C664     1.0000 0.59628  0.37436  0.97899  Biso   1.000  C
  C665     1.0000 0.69533  0.96933  0.37199  Biso   1.000  C
  H711     1.0000 0.72909  0.99130  0.42669  Biso   1.000  H
  H712     1.0000 0.74839  0.98059  0.37278  Biso   1.000  H
  C666     1.0000 0.99770  0.29430  0.33811  Biso   1.000  C
  C667     1.0000 0.00856  0.33500  0.26671  Biso   1.000  C
  C668     1.0000 0.59960  0.31638  0.89259  Biso   1.000  C
  H713     1.0000 0.55791  0.34891  0.91071  Biso   1.000  H
  H714     1.0000 0.55209  0.30970  0.93101  Biso   1.000  H
  C669     1.0000 0.62385  0.37903  0.02172  Biso   1.000  C
  H715     1.0000 0.57729  0.39160  0.98440  Biso   1.000  H
  H716     1.0000 0.60699  0.37900  0.94400  Biso   1.000  H
  N70      1.0000 0.69580  0.96024  0.31529  Biso   1.000  N
  H717     1.0000 0.69499  0.94749  0.39308  Biso   1.000  H
  H718     1.0000 0.67369  0.98250  0.38001  Biso   1.000  H
  C670     1.0000 0.97242  0.26691  0.35620  Biso   1.000  C
  H719     1.0000 0.00639  0.30740  0.36911  Biso   1.000  H
  H720     1.0000 0.01799  0.28280  0.32101  Biso   1.000  H
  H721     1.0000 0.99979  0.35760  0.25270  Biso   1.000  H
  C671     1.0000 0.01959  0.31190  0.22059  Biso   1.000  C
  H722     1.0000 0.02939  0.34000  0.28879  Biso   1.000  H
  N71      1.0000 0.60864  0.27987  0.90337  Biso   1.000  N
  H723     1.0000 0.59279  0.31879  0.85499  Biso   1.000  H
  H724     1.0000 0.62040  0.33139  0.89871  Biso   1.000  H
  N72      1.0000 0.65759  0.36470  0.00419  Biso   1.000  N
  H725     1.0000 0.62650  0.40420  0.02989  Biso   1.000  H
  H726     1.0000 0.61621  0.36690  0.05430  Biso   1.000  H
  C672     1.0000 0.71958  0.93062  0.30597  Biso   1.000  C
  C673     1.0000 0.66039  0.95197  0.29720  Biso   1.000  C
  N73      1.0000 0.96747  0.23933  0.31560  Biso   1.000  N
  H727     1.0000 0.98120  0.25609  0.38909  Biso   1.000  H
  H728     1.0000 0.94958  0.27801  0.36398  Biso   1.000  H
  N74      1.0000 0.99332  0.31384  0.17798  Biso   1.000  N
  H729     1.0000 0.04259  0.31971  0.20701  Biso   1.000  H
  H730     1.0000 0.02190  0.28731  0.23271  Biso   1.000  H
  C674     1.0000 0.63855  0.27419  0.92315  Biso   1.000  C
  C675     1.0000 0.67089  0.34019  0.02918  Biso   1.000  C
  H731     1.0000 0.70730  0.90849  0.31481  Biso   1.000  H
  H732     1.0000 0.74001  0.93280  0.32978  Biso   1.000  H
  C676     1.0000 0.73241  0.92866  0.24930  Biso   1.000  C
  H733     1.0000 0.64769  0.93921  0.32532  Biso   1.000  H
  H734     1.0000 0.66170  0.93649  0.26581  Biso   1.000  H
  C677     1.0000 0.64014  0.98544  0.28298  Biso   1.000  C
  C678     1.0000 0.93751  0.23721  0.29570  Biso   1.000  C
  C679     1.0000 0.97475  0.28621  0.17099  Biso   1.000  C
  C680     1.0000 0.65175  0.23891  0.93492  Biso   1.000  C
  H735     1.0000 0.65319  0.29370  0.93081  Biso   1.000  H
  H736     1.0000 0.65808  0.33081  0.05809  Biso   1.000  H
  C681     1.0000 0.70533  0.32479  0.01674  Biso   1.000  C
  N75      1.0000 0.76086  0.95333  0.23891  Biso   1.000  N
  H737     1.0000 0.74058  0.90459  0.24180  Biso   1.000  H
  H738     1.0000 0.71269  0.93379  0.22521  Biso   1.000  H
  N76      1.0000 0.64960  0.99678  0.22955  Biso   1.000  N
  H739     1.0000 0.64580  0.00419  0.30861  Biso   1.000  H
  H740     1.0000 0.61469  0.98091  0.28480  Biso   1.000  H
  C682     1.0000 0.92800  0.21005  0.25668  Biso   1.000  C
  H741     1.0000 0.92020  0.25371  0.30620  Biso   1.000  H
  C683     1.0000 0.94770  0.28414  0.12968  Biso   1.000  C
  H742     1.0000 0.97860  0.26649  0.19311  Biso   1.000  H
  C684     1.0000 0.68600  0.23519  0.95238  Biso   1.000  C
  C685     1.0000 0.63150  0.20850  0.92777  Biso   1.000  C
  C686     1.0000 0.71775  0.29697  0.04612  Biso   1.000  C
  C687     1.0000 0.72618  0.33804  0.97579  Biso   1.000  C
  C688     1.0000 0.75685  0.97512  0.20195  Biso   1.000  C
  C689     1.0000 0.66814  0.02407  0.22557  Biso   1.000  C
  C690     1.0000 0.95184  0.18456  0.23939  Biso   1.000  C
  C691     1.0000 0.89443  0.20903  0.23599  Biso   1.000  C
  C692     1.0000 0.92905  0.25237  0.12510  Biso   1.000  C
  C693     1.0000 0.93987  0.31122  0.09481  Biso   1.000  C
  C694     1.0000 0.70004  0.20222  0.96166  Biso   1.000  C
  H743     1.0000 0.69999  0.25541  0.95810  Biso   1.000  H
  H744     1.0000 0.60780  0.21039  0.91660  Biso   1.000  H
  C695     1.0000 0.64591  0.17579  0.93701  Biso   1.000  C
  H745     1.0000 0.70371  0.28760  0.07369  Biso   1.000  H
  C696     1.0000 0.75059  0.28244  0.03594  Biso   1.000  C
  C697     1.0000 0.75897  0.32374  0.96501  Biso   1.000  C
  H746     1.0000 0.71780  0.35700  0.95522  Biso   1.000  H
  C698     1.0000 0.78359  0.00092  0.18596  Biso   1.000  C
  H747     1.0000 0.73529  0.97491  0.18331  Biso   1.000  H
  C699     1.0000 0.67812  0.03834  0.17376  Biso   1.000  C
  H748     1.0000 0.67579  0.03559  0.25668  Biso   1.000  H
  C700     1.0000 0.94105  0.15848  0.20408  Biso   1.000  C
  H749     1.0000 0.97541  0.18501  0.25159  Biso   1.000  H
  H750     1.0000 0.87790  0.22610  0.24709  Biso   1.000  H
  C701     1.0000 0.88408  0.18393  0.19978  Biso   1.000  C
  C702     1.0000 0.90359  0.24894  0.08719  Biso   1.000  C
  H751     1.0000 0.93411  0.23341  0.14821  Biso   1.000  H
  C703     1.0000 0.91520  0.30711  0.05698  Biso   1.000  C
  H752     1.0000 0.95199  0.33291  0.09750  Biso   1.000  H
  C704     1.0000 0.68001  0.17173  0.95486  Biso   1.000  C
  H753     1.0000 0.72369  0.20030  0.97279  Biso   1.000  H
  H754     1.0000 0.63200  0.15549  0.93089  Biso   1.000  H
  H755     1.0000 0.75871  0.26340  0.05690  Biso   1.000  H
  C705     1.0000 0.77180  0.29543  0.99526  Biso   1.000  C
  H756     1.0000 0.77280  0.33309  0.93721  Biso   1.000  H
  C706     1.0000 0.81756  0.00013  0.20377  Biso   1.000  C
  C707     1.0000 0.77358  0.02703  0.15010  Biso   1.000  C
  C708     1.0000 0.67024  0.02205  0.12680  Biso   1.000  C
  C709     1.0000 0.69645  0.07058  0.17253  Biso   1.000  C
  C710     1.0000 0.90736  0.15740  0.18371  Biso   1.000  C
  H757     1.0000 0.95728  0.14101  0.19382  Biso   1.000  H
  H758     1.0000 0.86109  0.18459  0.18560  Biso   1.000  H
  C711     1.0000 0.89568  0.27597  0.05149  Biso   1.000  C
  H759     1.0000 0.89089  0.22759  0.08498  Biso   1.000  H
  H760     1.0000 0.91080  0.32589  0.03329  Biso   1.000  H
  C712     1.0000 0.69624  0.13679  0.96639  Biso   1.000  C
  C713     1.0000 0.80703  0.27950  0.98468  Biso   1.000  C
  C714     1.0000 0.84207  0.02517  0.18627  Biso   1.000  C
  H761     1.0000 0.82460  0.98250  0.22809  Biso   1.000  H
  C715     1.0000 0.79810  0.05235  0.13399  Biso   1.000  C
  H762     1.0000 0.75041  0.02760  0.13671  Biso   1.000  H
  C716     1.0000 0.67885  0.03816  0.07878  Biso   1.000  C
  H763     1.0000 0.65890  0.99990  0.12688  Biso   1.000  H
  C717     1.0000 0.70554  0.08556  0.12447  Biso   1.000  C
  H764     1.0000 0.70250  0.08200  0.20460  Biso   1.000  H
  C718     1.0000 0.89519  0.12956  0.14702  Biso   1.000  C
  C719     1.0000 0.86716  0.27057  0.01185  Biso   1.000  C
  C720     1.0000 0.68773  0.11943  0.01327  Biso   1.000  C
  C721     1.0000 0.72157  0.12328  0.93101  Biso   1.000  C
  C722     1.0000 0.83474  0.28731  0.01955  Biso   1.000  C
  C723     1.0000 0.81112  0.25651  0.94270  Biso   1.000  C
  H765     1.0000 0.86559  0.02410  0.19852  Biso   1.000  H
  C724     1.0000 0.83228  0.05133  0.15144  Biso   1.000  C
  H766     1.0000 0.79100  0.07050  0.11069  Biso   1.000  H
  C725     1.0000 0.69693  0.07014  0.07697  Biso   1.000  C
  H767     1.0000 0.67231  0.02711  0.04672  Biso   1.000  H
  H768     1.0000 0.71809  0.10709  0.12431  Biso   1.000  H
  C726     1.0000 0.87114  0.10374  0.16637  Biso   1.000  C
  C727     1.0000 0.90666  0.12820  0.09481  Biso   1.000  C
  C728     1.0000 0.87240  0.24771  0.96908  Biso   1.000  C
  C729     1.0000 0.70497  0.08763  0.02547  Biso   1.000  C
  C730     1.0000 0.66008  0.13449  0.04936  Biso   1.000  C
  C731     1.0000 0.73886  0.09154  0.94436  Biso   1.000  C
  C732     1.0000 0.72854  0.14088  0.87817  Biso   1.000  C
  C733     1.0000 0.82942  0.31329  0.06441  Biso   1.000  C
  C734     1.0000 0.84448  0.24022  0.93508  Biso   1.000  C
  C735     1.0000 0.78207  0.24986  0.90349  Biso   1.000  C
  C736     1.0000 0.85862  0.07823  0.13194  Biso   1.000  C
  C737     1.0000 0.86069  0.10395  0.22434  Biso   1.000  C
  C738     1.0000 0.89354  0.10240  0.06077  Biso   1.000  C
  C739     1.0000 0.93468  0.15389  0.07582  Biso   1.000  C
  C740     1.0000 0.90854  0.23194  0.95964  Biso   1.000  C
  C741     1.0000 0.73027  0.07352  0.99139  Biso   1.000  C
  H769     1.0000 0.65670  0.15950  0.04052  Biso   1.000  H
  H770     1.0000 0.66859  0.13320  0.08621  Biso   1.000  H
  C742     1.0000 0.62480  0.11571  0.04569  Biso   1.000  C
  C743     1.0000 0.76816  0.07875  0.91024  Biso   1.000  C
  H771     1.0000 0.72859  0.16660  0.88319  Biso   1.000  H
  H772     1.0000 0.75200  0.13391  0.86542  Biso   1.000  H
  C744     1.0000 0.70172  0.13148  0.83710  Biso   1.000  C
  H773     1.0000 0.84749  0.30931  0.09181  Biso   1.000  H
  H774     1.0000 0.80619  0.30931  0.08072  Biso   1.000  H
  C745     1.0000 0.83170  0.35145  0.04490  Biso   1.000  C
  C746     1.0000 0.84791  0.21400  0.89152  Biso   1.000  C
  H775     1.0000 0.78011  0.22429  0.89729  Biso   1.000  H
  H776     1.0000 0.75960  0.25800  0.91869  Biso   1.000  H
  C747     1.0000 0.78802  0.26793  0.85179  Biso   1.000  C
  C748     1.0000 0.86965  0.07658  0.07890  Biso   1.000  C
  H777     1.0000 0.85509  0.12831  0.23489  Biso   1.000  H
  H778     1.0000 0.83919  0.08981  0.22869  Biso   1.000  H
  C749     1.0000 0.88880  0.08981  0.26071  Biso   1.000  C
  C750     1.0000 0.90386  0.10303  0.00320  Biso   1.000  C
  H779     1.0000 0.92879  0.16170  0.03961  Biso   1.000  H
  H780     1.0000 0.93439  0.17479  0.09900  Biso   1.000  H
  C751     1.0000 0.97090  0.13860  0.07570  Biso   1.000  C
  H781     1.0000 0.90619  0.21099  0.93690  Biso   1.000  H
  H782     1.0000 0.91850  0.22429  0.99392  Biso   1.000  H
  C752     1.0000 0.93371  0.25790  0.93350  Biso   1.000  C
  C753     1.0000 0.74860  0.03926  0.00403  Biso   1.000  C
  H783     1.0000 0.61670  0.11579  0.00900  Biso   1.000  H
  H784     1.0000 0.60759  0.12789  0.06788  Biso   1.000  H
  H785     1.0000 0.62739  0.09151  0.05789  Biso   1.000  H
  C754     1.0000 0.76193  0.06165  0.86206  Biso   1.000  C
  C755     1.0000 0.80268  0.08226  0.92576  Biso   1.000  C
  H786     1.0000 0.70769  0.14289  0.80370  Biso   1.000  H
  H787     1.0000 0.67859  0.13941  0.84879  Biso   1.000  H
  H788     1.0000 0.70140  0.10599  0.83221  Biso   1.000  H
  H789     1.0000 0.81151  0.35661  0.02239  Biso   1.000  H
  H790     1.0000 0.85331  0.35459  0.02460  Biso   1.000  H
  H791     1.0000 0.83181  0.36729  0.07531  Biso   1.000  H
  C756     1.0000 0.86996  0.21953  0.84765  Biso   1.000  C
  C757     1.0000 0.82861  0.18291  0.89247  Biso   1.000  C
  H792     1.0000 0.76698  0.26581  0.82992  Biso   1.000  H
  H793     1.0000 0.80789  0.25701  0.83359  Biso   1.000  H
  H794     1.0000 0.79310  0.29270  0.85811  Biso   1.000  H
  C758     1.0000 0.85705  0.04751  0.04356  Biso   1.000  C
  H795     1.0000 0.89550  0.06621  0.24930  Biso   1.000  H
  H796     1.0000 0.87979  0.08881  0.29688  Biso   1.000  H
  H797     1.0000 0.90941  0.10521  0.25949  Biso   1.000  H
  C759     1.0000 0.92565  0.07716  0.98116  Biso   1.000  C
  C760     1.0000 0.89265  0.13040  0.97113  Biso   1.000  C
  H798     1.0000 0.97158  0.11841  0.05181  Biso   1.000  H
  H799     1.0000 0.97708  0.13111  0.11148  Biso   1.000  H
  H800     1.0000 0.98759  0.15641  0.06370  Biso   1.000  H
  H801     1.0000 0.92208  0.26900  0.90329  Biso   1.000  H
  H802     1.0000 0.95459  0.24540  0.92122  Biso   1.000  H
  H803     1.0000 0.94060  0.27589  0.95909  Biso   1.000  H
  H804     1.0000 0.74509  0.03360  0.04178  Biso   1.000  H
  H805     1.0000 0.77411  0.04201  0.99779  Biso   1.000  H
  C761     1.0000 0.73477  0.00870  0.97019  Biso   1.000  C
  H806     1.0000 0.73849  0.05770  0.85089  Biso   1.000  H
  C762     1.0000 0.78932  0.05047  0.83075  Biso   1.000  C
  C763     1.0000 0.83034  0.07040  0.89571  Biso   1.000  C
  H807     1.0000 0.80761  0.09329  0.95850  Biso   1.000  H
  H808     1.0000 0.88400  0.24001  0.84631  Biso   1.000  H
  C764     1.0000 0.87159  0.19588  0.80689  Biso   1.000  C
  C765     1.0000 0.82963  0.15929  0.85073  Biso   1.000  C
  H809     1.0000 0.81449  0.17781  0.92228  Biso   1.000  H
  H810     1.0000 0.86140  0.05411  0.00632  Biso   1.000  H
  H811     1.0000 0.83149  0.04460  0.04822  Biso   1.000  H
  C766     1.0000 0.87520  0.01260  0.05501  Biso   1.000  C
  C767     1.0000 0.93479  0.07886  0.92734  Biso   1.000  C
  H812     1.0000 0.93418  0.05859  0.00261  Biso   1.000  H
  C768     1.0000 0.90276  0.13239  0.91834  Biso   1.000  C
  H813     1.0000 0.87790  0.14800  0.98551  Biso   1.000  H
  H814     1.0000 0.74690  0.98709  0.98010  Biso   1.000  H
  H815     1.0000 0.73909  0.01370  0.93279  Biso   1.000  H
  H816     1.0000 0.70960  0.00589  0.97611  Biso   1.000  H
  H817     1.0000 0.78440  0.03989  0.79761  Biso   1.000  H
  C769     1.0000 0.82405  0.05437  0.84650  Biso   1.000  C
  H818     1.0000 0.85370  0.07299  0.90811  Biso   1.000  H
  H819     1.0000 0.88688  0.20020  0.77799  Biso   1.000  H
  C770     1.0000 0.85079  0.16529  0.80737  Biso   1.000  C
  H820     1.0000 0.81559  0.13870  0.85199  Biso   1.000  H
  H821     1.0000 0.87368  0.00749  0.09288  Biso   1.000  H
  H822     1.0000 0.89980  0.01401  0.04439  Biso   1.000  H
  H823     1.0000 0.86360  0.99390  0.03511  Biso   1.000  H
  C771     1.0000 0.92455  0.10652  0.89610  Biso   1.000  C
  H824     1.0000 0.94830  0.06050  0.91221  Biso   1.000  H
  H825     1.0000 0.89490  0.15141  0.89709  Biso   1.000  H
  C772     1.0000 0.85378  0.04225  0.81511  Biso   1.000  C
  C773     1.0000 0.85085  0.14051  0.76294  Biso   1.000  C
  C774     1.0000 0.93418  0.11068  0.84050  Biso   1.000  C
  N77      1.0000 0.85090  0.03130  0.76788  Biso   1.000  N
  H826     1.0000 0.87641  0.04261  0.83071  Biso   1.000  H
  N78      1.0000 0.86790  0.14698  0.72104  Biso   1.000  N
  H827     1.0000 0.83791  0.11930  0.76559  Biso   1.000  H
  N79      1.0000 0.95100  0.08755  0.81456  Biso   1.000  N
  H828     1.0000 0.92758  0.13171  0.82289  Biso   1.000  H
  C775     1.0000 0.88230  0.01943  0.74099  Biso   1.000  C
  C776     1.0000 0.86659  0.12103  0.67832  Biso   1.000  C
  C777     1.0000 0.95990  0.09667  0.75986  Biso   1.000  C
  H829     1.0000 0.87879  0.99521  0.72819  Biso   1.000  H
  H830     1.0000 0.90221  0.01941  0.76598  Biso   1.000  H
  C778     1.0000 0.89071  0.04319  0.69451  Biso   1.000  C
  H831     1.0000 0.86030  0.13271  0.64471  Biso   1.000  H
  H832     1.0000 0.84838  0.10329  0.68621  Biso   1.000  H
  C779     1.0000 0.90179  0.10335  0.67275  Biso   1.000  C
  C780     1.0000 0.94471  0.07066  0.72108  Biso   1.000  C
  H833     1.0000 0.98570  0.09719  0.75591  Biso   1.000  H
  H834     1.0000 0.95079  0.12040  0.75181  Biso   1.000  H
  N80      1.0000 0.90752  0.07569  0.71188  Biso   1.000  N
  H835     1.0000 0.90640  0.03070  0.66979  Biso   1.000  H
  H836     1.0000 0.86879  0.04890  0.67539  Biso   1.000  H
  H837     1.0000 0.90359  0.09311  0.63689  Biso   1.000  H
  H838     1.0000 0.92049  0.12121  0.67642  Biso   1.000  H
  H839     1.0000 0.95728  0.07281  0.68708  Biso   1.000  H
  H840     1.0000 0.94859  0.04670  0.73471  Biso   1.000  H
  C781     1.0000 0.69242  0.73323  0.75951  Biso   1.000  C
  C782     1.0000 0.71547  0.74150  0.80670  Biso   1.000  C
  H841     1.0000 0.66780  0.73299  0.77049  Biso   1.000  H
  H842     1.0000 0.69580  0.75119  0.73218  Biso   1.000  H
  H843     1.0000 0.69878  0.71020  0.74521  Biso   1.000  H
  C783     1.0000 0.75397  0.74231  0.79236  Biso   1.000  C
  H844     1.0000 0.71159  0.72359  0.83438  Biso   1.000  H
  H845     1.0000 0.70861  0.76450  0.82151  Biso   1.000  H
  C784     1.0000 0.77612  0.71374  0.80133  Biso   1.000  C
  C785     1.0000 0.76767  0.77235  0.76551  Biso   1.000  C
  C786     1.0000 0.76337  0.68383  0.83525  Biso   1.000  C
  C787     1.0000 0.81015  0.71316  0.78229  Biso   1.000  C
  C788     1.0000 0.80184  0.77220  0.74604  Biso   1.000  C
  C789     1.0000 0.74454  0.80386  0.75986  Biso   1.000  C
  C790     1.0000 0.73679  0.66083  0.81878  Biso   1.000  C
  C791     1.0000 0.77783  0.67904  0.88516  Biso   1.000  C
  C792     1.0000 0.82308  0.74223  0.75374  Biso   1.000  C
  C793     1.0000 0.83277  0.68074  0.78837  Biso   1.000  C
  C794     1.0000 0.81635  0.80334  0.71670  Biso   1.000  C
  C795     1.0000 0.73621  0.82408  0.80354  Biso   1.000  C
  C796     1.0000 0.73092  0.81371  0.71165  Biso   1.000  C
  C797     1.0000 0.72534  0.63407  0.85081  Biso   1.000  C
  H846     1.0000 0.72649  0.66379  0.78490  Biso   1.000  H
  C798     1.0000 0.76667  0.65138  0.91707  Biso   1.000  C
  H847     1.0000 0.79540  0.69459  0.89760  Biso   1.000  H
  C799     1.0000 0.85972  0.74171  0.73242  Biso   1.000  C
  H848     1.0000 0.85750  0.68721  0.78198  Biso   1.000  H
  H849     1.0000 0.83089  0.67210  0.82518  Biso   1.000  H
  C800     1.0000 0.82259  0.65143  0.75090  Biso   1.000  C
  H850     1.0000 0.80140  0.82390  0.72401  Biso   1.000  H
  H851     1.0000 0.84011  0.80850  0.73028  Biso   1.000  H
  C801     1.0000 0.81850  0.79802  0.65699  Biso   1.000  C
  H852     1.0000 0.74580  0.81829  0.83699  Biso   1.000  H
  C802     1.0000 0.71411  0.85255  0.79888  Biso   1.000  C
  C803     1.0000 0.70897  0.84233  0.70643  Biso   1.000  C
  H853     1.0000 0.73679  0.80051  0.68108  Biso   1.000  H
  C804     1.0000 0.74043  0.62836  0.90068  Biso   1.000  C
  H854     1.0000 0.70690  0.61930  0.83908  Biso   1.000  H
  H855     1.0000 0.77720  0.64819  0.95068  Biso   1.000  H
  C805     1.0000 0.88594  0.76329  0.75382  Biso   1.000  C
  C806     1.0000 0.86876  0.72144  0.68850  Biso   1.000  C
  H856     1.0000 0.79760  0.64619  0.75501  Biso   1.000  H
  H857     1.0000 0.82720  0.65869  0.71441  Biso   1.000  H
  H858     1.0000 0.83639  0.63051  0.75888  Biso   1.000  H
  H859     1.0000 0.83188  0.77670  0.64929  Biso   1.000  H
  H860     1.0000 0.79480  0.79579  0.64238  Biso   1.000  H
  H861     1.0000 0.83021  0.81819  0.64080  Biso   1.000  H
  H862     1.0000 0.70850  0.86591  0.82940  Biso   1.000  H
  C807     1.0000 0.69988  0.86198  0.75039  Biso   1.000  C
  H863     1.0000 0.70009  0.84859  0.67271  Biso   1.000  H
  C808     1.0000 0.73000  0.59976  0.93539  Biso   1.000  C
  C809     1.0000 0.91899  0.76387  0.73218  Biso   1.000  C
  H864     1.0000 0.88081  0.77759  0.78348  Biso   1.000  H
  H865     1.0000 0.85140  0.70701  0.67271  Biso   1.000  H
  C810     1.0000 0.90142  0.72165  0.66761  Biso   1.000  C
  C811     1.0000 0.67634  0.89251  0.74671  Biso   1.000  C
  N81      1.0000 0.70882  0.57559  0.92165  Biso   1.000  N
  H866     1.0000 0.73948  0.59910  0.97011  Biso   1.000  H
  C812     1.0000 0.92800  0.74354  0.68843  Biso   1.000  C
  H867     1.0000 0.93631  0.77859  0.74758  Biso   1.000  H
  H868     1.0000 0.90661  0.70680  0.63851  Biso   1.000  H
  N82      1.0000 0.66230  0.90160  0.70339  Biso   1.000  N
  H869     1.0000 0.67149  0.90569  0.77771  Biso   1.000  H
  C813     1.0000 0.70078  0.54827  0.96071  Biso   1.000  C
  C814     1.0000 0.96323  0.74423  0.66694  Biso   1.000  C
  C815     1.0000 0.63884  0.93206  0.70588  Biso   1.000  C
  C816     1.0000 0.66379  0.55327  0.98148  Biso   1.000  C
  H870     1.0000 0.70290  0.52491  0.94408  Biso   1.000  H
  H871     1.0000 0.71769  0.54960  0.99029  Biso   1.000  H
  N83      1.0000 0.97326  0.72343  0.63109  Biso   1.000  N
  H872     1.0000 0.97939  0.76099  0.68029  Biso   1.000  H
  H873     1.0000 0.61529  0.92549  0.69301  Biso   1.000  H
  H874     1.0000 0.63661  0.94010  0.74288  Biso   1.000  H
  C817     1.0000 0.65410  0.96200  0.67109  Biso   1.000  C
  H875     1.0000 0.65570  0.53109  0.99779  Biso   1.000  H
  H876     1.0000 0.64800  0.55859  0.95159  Biso   1.000  H
  N84      1.0000 0.66123  0.58148  0.02057  Biso   1.000  N
  C818     1.0000 0.00883  0.72689  0.61221  Biso   1.000  C
  N85      1.0000 0.68069  0.98135  0.70000  Biso   1.000  N
  H877     1.0000 0.63499  0.97810  0.66051  Biso   1.000  H
  H878     1.0000 0.66450  0.95189  0.63871  Biso   1.000  H
  C819     1.0000 0.67128  0.56959  0.07238  Biso   1.000  C
  C820     1.0000 0.62564  0.59628  0.02101  Biso   1.000  C
  C821     1.0000 0.03067  0.69533  0.62801  Biso   1.000  C
  H879     1.0000 0.00870  0.72909  0.57331  Biso   1.000  H
  H880     1.0000 0.01941  0.74839  0.62718  Biso   1.000  H
  C822     1.0000 0.70570  0.99770  0.66189  Biso   1.000  C
  C823     1.0000 0.66500  0.00856  0.73329  Biso   1.000  C
  C824     1.0000 0.68359  0.59960  0.10737  Biso   1.000  C
  H881     1.0000 0.65109  0.55791  0.08929  Biso   1.000  H
  H882     1.0000 0.69030  0.55209  0.06899  Biso   1.000  H
  C825     1.0000 0.62095  0.62385  0.97828  Biso   1.000  C
  H883     1.0000 0.60840  0.57729  0.01560  Biso   1.000  H
  H884     1.0000 0.62100  0.60699  0.05600  Biso   1.000  H
  N86      1.0000 0.03976  0.69580  0.68471  Biso   1.000  N
  H885     1.0000 0.05249  0.69499  0.60688  Biso   1.000  H
  H886     1.0000 0.01750  0.67369  0.61999  Biso   1.000  H
  C826     1.0000 0.73309  0.97242  0.64380  Biso   1.000  C
  H887     1.0000 0.69260  0.00639  0.63089  Biso   1.000  H
  H888     1.0000 0.71720  0.01799  0.67899  Biso   1.000  H
  C827     1.0000 0.68810  0.01959  0.77941  Biso   1.000  C
  H889     1.0000 0.64240  0.99979  0.74730  Biso   1.000  H
  H890     1.0000 0.66000  0.02939  0.71121  Biso   1.000  H
  N87      1.0000 0.72013  0.60864  0.09663  Biso   1.000  N
  H891     1.0000 0.68118  0.59279  0.14501  Biso   1.000  H
  H892     1.0000 0.66859  0.62040  0.10129  Biso   1.000  H
  N88      1.0000 0.63530  0.65759  0.99577  Biso   1.000  N
  H893     1.0000 0.59580  0.62650  0.97011  Biso   1.000  H
  H894     1.0000 0.63310  0.61621  0.94570  Biso   1.000  H
  C828     1.0000 0.06938  0.71958  0.69403  Biso   1.000  C
  C829     1.0000 0.04803  0.66039  0.70280  Biso   1.000  C
  N89      1.0000 0.76067  0.96747  0.68440  Biso   1.000  N
  H895     1.0000 0.74388  0.98120  0.61091  Biso   1.000  H
  H896     1.0000 0.72199  0.94958  0.63598  Biso   1.000  H
  N90      1.0000 0.68613  0.99332  0.82198  Biso   1.000  N
  H897     1.0000 0.68029  0.04259  0.79299  Biso   1.000  H
  H898     1.0000 0.71269  0.02190  0.76729  Biso   1.000  H
  C830     1.0000 0.72581  0.63855  0.07681  Biso   1.000  C
  C831     1.0000 0.65981  0.67089  0.97078  Biso   1.000  C
  H899     1.0000 0.09148  0.70730  0.68519  Biso   1.000  H
  H900     1.0000 0.06720  0.74001  0.67018  Biso   1.000  H
  C832     1.0000 0.07134  0.73241  0.75070  Biso   1.000  C
  C833     1.0000 0.01456  0.64014  0.71698  Biso   1.000  C
  H901     1.0000 0.06079  0.64769  0.67468  Biso   1.000  H
  H902     1.0000 0.06349  0.66170  0.73419  Biso   1.000  H
  C834     1.0000 0.76279  0.93751  0.70430  Biso   1.000  C
  C835     1.0000 0.71377  0.97475  0.82901  Biso   1.000  C
  C836     1.0000 0.76109  0.65175  0.06508  Biso   1.000  C
  H903     1.0000 0.70630  0.65319  0.06919  Biso   1.000  H
  H904     1.0000 0.66919  0.65808  0.94191  Biso   1.000  H
  C837     1.0000 0.67521  0.70533  0.98326  Biso   1.000  C
  N91      1.0000 0.04667  0.76086  0.76109  Biso   1.000  N
  H905     1.0000 0.09539  0.74058  0.75820  Biso   1.000  H
  H906     1.0000 0.06618  0.71269  0.77479  Biso   1.000  H
  N92      1.0000 0.00320  0.64960  0.77045  Biso   1.000  N
  H907     1.0000 0.99578  0.64580  0.69139  Biso   1.000  H
  H908     1.0000 0.01909  0.61469  0.71520  Biso   1.000  H
  C838     1.0000 0.78993  0.92800  0.74332  Biso   1.000  C
  H909     1.0000 0.74629  0.92020  0.69380  Biso   1.000  H
  C839     1.0000 0.71586  0.94770  0.87032  Biso   1.000  C
  H910     1.0000 0.73349  0.97860  0.80689  Biso   1.000  H
  C840     1.0000 0.76481  0.68600  0.04759  Biso   1.000  C
  C841     1.0000 0.79150  0.63150  0.07223  Biso   1.000  C
  C842     1.0000 0.70303  0.71775  0.95388  Biso   1.000  C
  C843     1.0000 0.66196  0.72618  0.02421  Biso   1.000  C
  C844     1.0000 0.02485  0.75685  0.79805  Biso   1.000  C
  C845     1.0000 0.97593  0.66814  0.77443  Biso   1.000  C
  C846     1.0000 0.81544  0.95184  0.76061  Biso   1.000  C
  C847     1.0000 0.79097  0.89443  0.76397  Biso   1.000  C
  C848     1.0000 0.74763  0.92905  0.87490  Biso   1.000  C
  C849     1.0000 0.68875  0.93987  0.90519  Biso   1.000  C
  C850     1.0000 0.79778  0.70004  0.03834  Biso   1.000  C
  H911     1.0000 0.74459  0.69999  0.04190  Biso   1.000  H
  H912     1.0000 0.78959  0.60780  0.08340  Biso   1.000  H
  C851     1.0000 0.82418  0.64591  0.06299  Biso   1.000  C
  H913     1.0000 0.71240  0.70371  0.92631  Biso   1.000  H
  C852     1.0000 0.71756  0.75059  0.96406  Biso   1.000  C
  C853     1.0000 0.67626  0.75897  0.03499  Biso   1.000  C
  H914     1.0000 0.64300  0.71780  0.04478  Biso   1.000  H
  C854     1.0000 0.99908  0.78359  0.81404  Biso   1.000  C
  H915     1.0000 0.02509  0.73529  0.81669  Biso   1.000  H
  C855     1.0000 0.96166  0.67812  0.82624  Biso   1.000  C
  H916     1.0000 0.96441  0.67579  0.74328  Biso   1.000  H
  C856     1.0000 0.84152  0.94105  0.79588  Biso   1.000  C
  H917     1.0000 0.81499  0.97541  0.74841  Biso   1.000  H
  H918     1.0000 0.77390  0.87790  0.75291  Biso   1.000  H
  C857     1.0000 0.81607  0.88408  0.80022  Biso   1.000  C
  C858     1.0000 0.75106  0.90359  0.91281  Biso   1.000  C
  H919     1.0000 0.76659  0.93411  0.85179  Biso   1.000  H
  C859     1.0000 0.69289  0.91520  0.94298  Biso   1.000  C
  H920     1.0000 0.66709  0.95199  0.90250  Biso   1.000  H
  C860     1.0000 0.82827  0.68001  0.04510  Biso   1.000  C
  H921     1.0000 0.79970  0.72369  0.02721  Biso   1.000  H
  H922     1.0000 0.84451  0.63200  0.06911  Biso   1.000  H
  H923     1.0000 0.73660  0.75871  0.94310  Biso   1.000  H
  C861     1.0000 0.70457  0.77180  0.00470  Biso   1.000  C
  H924     1.0000 0.66688  0.77280  0.06279  Biso   1.000  H
  C862     1.0000 0.99987  0.81756  0.79623  Biso   1.000  C
  C863     1.0000 0.97297  0.77358  0.84990  Biso   1.000  C
  C864     1.0000 0.97795  0.67024  0.87320  Biso   1.000  C
  C865     1.0000 0.92942  0.69645  0.82743  Biso   1.000  C
  C866     1.0000 0.84260  0.90736  0.81629  Biso   1.000  C
  H925     1.0000 0.85899  0.95728  0.80618  Biso   1.000  H
  H926     1.0000 0.81538  0.86109  0.81440  Biso   1.000  H
  C867     1.0000 0.72403  0.89568  0.94847  Biso   1.000  C
  H927     1.0000 0.77241  0.89089  0.91498  Biso   1.000  H
  H928     1.0000 0.67409  0.91080  0.96671  Biso   1.000  H
  C868     1.0000 0.86321  0.69624  0.03361  Biso   1.000  C
  C869     1.0000 0.72050  0.80703  0.01532  Biso   1.000  C
  C870     1.0000 0.97480  0.84207  0.81369  Biso   1.000  C
  H929     1.0000 0.01750  0.82460  0.77191  Biso   1.000  H
  C871     1.0000 0.94765  0.79810  0.86601  Biso   1.000  C
  H930     1.0000 0.97240  0.75041  0.86329  Biso   1.000  H
  C872     1.0000 0.96184  0.67885  0.92118  Biso   1.000  C
  H931     1.0000 0.00010  0.65890  0.87308  Biso   1.000  H
  C873     1.0000 0.91444  0.70554  0.87553  Biso   1.000  C
  H932     1.0000 0.91800  0.70250  0.79540  Biso   1.000  H
  C874     1.0000 0.87044  0.89519  0.85298  Biso   1.000  C
  C875     1.0000 0.72943  0.86716  0.98815  Biso   1.000  C
  C876     1.0000 0.88057  0.68773  0.98673  Biso   1.000  C
  C877     1.0000 0.87670  0.72157  0.06899  Biso   1.000  C
  C878     1.0000 0.71269  0.83474  0.98045  Biso   1.000  C
  C879     1.0000 0.74347  0.81112  0.05730  Biso   1.000  C
  H933     1.0000 0.97590  0.86559  0.80148  Biso   1.000  H
  C880     1.0000 0.94867  0.83228  0.84856  Biso   1.000  C
  H934     1.0000 0.92950  0.79100  0.88931  Biso   1.000  H
  C881     1.0000 0.92984  0.69693  0.92303  Biso   1.000  C
  H935     1.0000 0.97289  0.67231  0.95328  Biso   1.000  H
  H936     1.0000 0.89291  0.71809  0.87569  Biso   1.000  H
  C882     1.0000 0.89623  0.87114  0.83363  Biso   1.000  C
  C883     1.0000 0.87180  0.90666  0.90519  Biso   1.000  C
  C884     1.0000 0.75229  0.87240  0.03092  Biso   1.000  C
  C885     1.0000 0.91237  0.70497  0.97453  Biso   1.000  C
  C886     1.0000 0.86551  0.66008  0.95064  Biso   1.000  C
  C887     1.0000 0.90846  0.73886  0.05564  Biso   1.000  C
  C888     1.0000 0.85912  0.72854  0.12179  Biso   1.000  C
  C889     1.0000 0.68668  0.82942  0.93559  Biso   1.000  C
  C890     1.0000 0.75978  0.84448  0.06492  Biso   1.000  C
  C891     1.0000 0.75014  0.78207  0.09651  Biso   1.000  C
  C892     1.0000 0.92177  0.85862  0.86806  Biso   1.000  C
  C893     1.0000 0.89602  0.86069  0.77566  Biso   1.000  C
  C894     1.0000 0.89760  0.89354  0.93923  Biso   1.000  C
  C895     1.0000 0.84611  0.93468  0.92414  Biso   1.000  C
  C896     1.0000 0.76806  0.90854  0.04032  Biso   1.000  C
  C897     1.0000 0.92648  0.73027  0.00861  Biso   1.000  C
  H937     1.0000 0.84050  0.65670  0.95948  Biso   1.000  H
  H938     1.0000 0.86680  0.66859  0.91379  Biso   1.000  H
  C898     1.0000 0.88429  0.62480  0.95431  Biso   1.000  C
  C899     1.0000 0.92125  0.76816  0.08976  Biso   1.000  C
  H939     1.0000 0.83340  0.72859  0.11681  Biso   1.000  H
  H940     1.0000 0.86609  0.75200  0.13458  Biso   1.000  H
  C900     1.0000 0.86852  0.70172  0.16290  Biso   1.000  C
  H941     1.0000 0.69069  0.84749  0.90819  Biso   1.000  H
  H942     1.0000 0.69069  0.80619  0.91928  Biso   1.000  H
  C901     1.0000 0.64855  0.83170  0.95510  Biso   1.000  C
  C902     1.0000 0.78600  0.84791  0.10844  Biso   1.000  C
  H943     1.0000 0.77571  0.78011  0.10267  Biso   1.000  H
  H944     1.0000 0.74200  0.75960  0.08131  Biso   1.000  H
  C903     1.0000 0.73207  0.78802  0.14821  Biso   1.000  C
  C904     1.0000 0.92339  0.86965  0.92110  Biso   1.000  C
  H945     1.0000 0.87169  0.85509  0.76508  Biso   1.000  H
  H946     1.0000 0.91019  0.83919  0.77128  Biso   1.000  H
  C905     1.0000 0.91019  0.88880  0.73929  Biso   1.000  C
  C906     1.0000 0.89697  0.90386  0.99680  Biso   1.000  C
  H947     1.0000 0.83830  0.92879  0.96039  Biso   1.000  H
  H948     1.0000 0.82521  0.93439  0.90100  Biso   1.000  H
  C907     1.0000 0.86140  0.97090  0.92430  Biso   1.000  C
  H949     1.0000 0.78898  0.90619  0.06310  Biso   1.000  H
  H950     1.0000 0.77571  0.91850  0.00608  Biso   1.000  H
  C908     1.0000 0.74210  0.93371  0.06650  Biso   1.000  C
  C909     1.0000 0.96074  0.74860  0.99597  Biso   1.000  C
  H951     1.0000 0.88419  0.61670  0.99100  Biso   1.000  H
  H952     1.0000 0.87209  0.60759  0.93208  Biso   1.000  H
  H953     1.0000 0.90849  0.62739  0.94211  Biso   1.000  H
  C910     1.0000 0.93835  0.76193  0.13790  Biso   1.000  C
  C911     1.0000 0.91774  0.80268  0.07424  Biso   1.000  C
  H954     1.0000 0.85711  0.70769  0.19630  Biso   1.000  H
  H955     1.0000 0.86059  0.67859  0.15121  Biso   1.000  H
  H956     1.0000 0.89401  0.70140  0.16779  Biso   1.000  H
  H957     1.0000 0.64339  0.81151  0.97761  Biso   1.000  H
  H958     1.0000 0.64541  0.85331  0.97540  Biso   1.000  H
  H959     1.0000 0.63271  0.83181  0.92469  Biso   1.000  H
  C912     1.0000 0.78047  0.86996  0.15231  Biso   1.000  C
  C913     1.0000 0.81709  0.82861  0.10753  Biso   1.000  C
  H960     1.0000 0.73419  0.76698  0.17008  Biso   1.000  H
  H961     1.0000 0.74299  0.80789  0.16641  Biso   1.000  H
  H962     1.0000 0.70730  0.79310  0.14189  Biso   1.000  H
  C914     1.0000 0.95246  0.85705  0.95644  Biso   1.000  C
  H963     1.0000 0.93379  0.89550  0.75070  Biso   1.000  H
  H964     1.0000 0.91119  0.87979  0.70308  Biso   1.000  H
  H965     1.0000 0.89479  0.90941  0.74051  Biso   1.000  H
  C915     1.0000 0.92284  0.92565  0.01880  Biso   1.000  C
  C916     1.0000 0.86960  0.89265  0.02887  Biso   1.000  C
  H966     1.0000 0.88159  0.97158  0.94819  Biso   1.000  H
  H967     1.0000 0.86889  0.97708  0.88848  Biso   1.000  H
  H968     1.0000 0.84359  0.98759  0.93630  Biso   1.000  H
  H969     1.0000 0.73100  0.92208  0.09671  Biso   1.000  H
  H970     1.0000 0.75460  0.95459  0.07878  Biso   1.000  H
  H971     1.0000 0.72408  0.94060  0.04091  Biso   1.000  H
  H972     1.0000 0.96640  0.74509  0.95818  Biso   1.000  H
  H973     1.0000 0.95799  0.77411  0.00221  Biso   1.000  H
  C917     1.0000 0.99130  0.73477  0.02978  Biso   1.000  C
  H974     1.0000 0.94230  0.73849  0.14907  Biso   1.000  H
  C918     1.0000 0.94951  0.78932  0.16921  Biso   1.000  C
  C919     1.0000 0.92960  0.83034  0.10429  Biso   1.000  C
  H975     1.0000 0.90668  0.80761  0.04150  Biso   1.000  H
  H976     1.0000 0.75999  0.88400  0.15369  Biso   1.000  H
  C920     1.0000 0.80410  0.87159  0.19311  Biso   1.000  C
  C921     1.0000 0.84071  0.82963  0.14927  Biso   1.000  C
  H977     1.0000 0.82219  0.81449  0.07768  Biso   1.000  H
  H978     1.0000 0.94589  0.86140  0.99368  Biso   1.000  H
  H979     1.0000 0.95540  0.83149  0.95178  Biso   1.000  H
  C922     1.0000 0.98740  0.87520  0.94499  Biso   1.000  C
  C923     1.0000 0.92111  0.93479  0.07266  Biso   1.000  C
  H980     1.0000 0.94139  0.93418  0.99739  Biso   1.000  H
  C924     1.0000 0.86761  0.90276  0.08166  Biso   1.000  C
  H981     1.0000 0.85200  0.87790  0.01449  Biso   1.000  H
  H982     1.0000 0.98630  0.73909  0.06717  Biso   1.000  H
  H983     1.0000 0.99411  0.70960  0.02389  Biso   1.000  H
  H984     1.0000 0.01289  0.74690  0.01990  Biso   1.000  H
  H985     1.0000 0.96009  0.78440  0.20239  Biso   1.000  H
  C925     1.0000 0.94563  0.82405  0.15350  Biso   1.000  C
  H986     1.0000 0.92701  0.85370  0.09189  Biso   1.000  H
  H987     1.0000 0.79980  0.88688  0.22197  Biso   1.000  H
  C926     1.0000 0.83471  0.85079  0.19263  Biso   1.000  C
  H988     1.0000 0.86130  0.81559  0.14801  Biso   1.000  H
  H989     1.0000 0.99248  0.87368  0.90708  Biso   1.000  H
  H990     1.0000 0.98599  0.89980  0.95557  Biso   1.000  H
  H991     1.0000 0.00610  0.86360  0.96489  Biso   1.000  H
  C927     1.0000 0.89348  0.92455  0.10386  Biso   1.000  C
  H992     1.0000 0.93950  0.94830  0.08779  Biso   1.000  H
  H993     1.0000 0.84859  0.89490  0.10291  Biso   1.000  H
  C928     1.0000 0.95775  0.85378  0.18489  Biso   1.000  C
  C929     1.0000 0.85949  0.85085  0.23706  Biso   1.000  C
  C930     1.0000 0.88929  0.93418  0.15950  Biso   1.000  C
  N93      1.0000 0.96870  0.85090  0.23208  Biso   1.000  N
  H994     1.0000 0.95739  0.87641  0.16929  Biso   1.000  H
  N94      1.0000 0.85302  0.86790  0.27892  Biso   1.000  N
  H995     1.0000 0.88070  0.83791  0.23437  Biso   1.000  H
  N95      1.0000 0.91245  0.95100  0.18544  Biso   1.000  N
  H996     1.0000 0.86829  0.92758  0.17707  Biso   1.000  H
  C931     1.0000 0.98057  0.88230  0.25897  Biso   1.000  C
  C932     1.0000 0.87897  0.86659  0.32168  Biso   1.000  C
  C933     1.0000 0.90331  0.95990  0.24014  Biso   1.000  C
  H997     1.0000 0.98059  0.90221  0.23398  Biso   1.000  H
  C934     1.0000 0.95681  0.89071  0.30549  Biso   1.000  C
  H998     1.0000 0.00479  0.87879  0.27181  Biso   1.000  H
  H999     1.0000 0.86729  0.86030  0.35529  Biso   1.000  H
  H1000    1.0000 0.89671  0.84838  0.31379  Biso   1.000  H
  C935     1.0000 0.89663  0.90179  0.32721  Biso   1.000  C
  C936     1.0000 0.92934  0.94471  0.27888  Biso   1.000  C
  H1001    1.0000 0.90281  0.98570  0.24409  Biso   1.000  H
  H1002    1.0000 0.87960  0.95079  0.24819  Biso   1.000  H
  N96      1.0000 0.92431  0.90752  0.28812  Biso   1.000  N
  H1003    1.0000 0.96930  0.90640  0.33017  Biso   1.000  H
  H1004    1.0000 0.95110  0.86879  0.32461  Biso   1.000  H
  H1005    1.0000 0.90689  0.90359  0.36311  Biso   1.000  H
  H1006    1.0000 0.87879  0.92049  0.32358  Biso   1.000  H
  H1007    1.0000 0.92719  0.95728  0.31288  Biso   1.000  H
  H1008    1.0000 0.95330  0.94859  0.26529  Biso   1.000  H
  C937     1.0000 0.30758  0.26677  0.75951  Biso   1.000  C
  C938     1.0000 0.28451  0.25850  0.80670  Biso   1.000  C
  H1009    1.0000 0.33220  0.26701  0.77049  Biso   1.000  H
  H1010    1.0000 0.30420  0.24881  0.73218  Biso   1.000  H
  H1011    1.0000 0.30119  0.28980  0.74521  Biso   1.000  H
  C939     1.0000 0.24603  0.25766  0.79236  Biso   1.000  C
  H1012    1.0000 0.28841  0.27639  0.83438  Biso   1.000  H
  H1013    1.0000 0.29139  0.23550  0.82151  Biso   1.000  H
  C940     1.0000 0.23231  0.22765  0.76551  Biso   1.000  C
  C941     1.0000 0.22388  0.28626  0.80133  Biso   1.000  C
  C942     1.0000 0.19816  0.22780  0.74604  Biso   1.000  C
  C943     1.0000 0.25546  0.19614  0.75986  Biso   1.000  C
  C944     1.0000 0.18985  0.28681  0.78229  Biso   1.000  C
  C945     1.0000 0.23663  0.31617  0.83525  Biso   1.000  C
  C946     1.0000 0.18365  0.19666  0.71670  Biso   1.000  C
  C947     1.0000 0.17689  0.25774  0.75374  Biso   1.000  C
  C948     1.0000 0.26379  0.17592  0.80354  Biso   1.000  C
  C949     1.0000 0.26908  0.18629  0.71165  Biso   1.000  C
  C950     1.0000 0.16723  0.31926  0.78837  Biso   1.000  C
  C951     1.0000 0.26319  0.33914  0.81878  Biso   1.000  C
  C952     1.0000 0.22215  0.32096  0.88516  Biso   1.000  C
  C953     1.0000 0.18150  0.20198  0.65699  Biso   1.000  C
  H1014    1.0000 0.19860  0.17610  0.72401  Biso   1.000  H
  H1015    1.0000 0.15989  0.19150  0.73028  Biso   1.000  H
  C954     1.0000 0.14025  0.25829  0.73242  Biso   1.000  C
  H1016    1.0000 0.25420  0.18171  0.83699  Biso   1.000  H
  C955     1.0000 0.28589  0.14745  0.79888  Biso   1.000  C
  C956     1.0000 0.29103  0.15767  0.70643  Biso   1.000  C
  H1017    1.0000 0.26319  0.19949  0.68108  Biso   1.000  H
  H1018    1.0000 0.14250  0.31279  0.78198  Biso   1.000  H
  H1019    1.0000 0.16911  0.32790  0.82518  Biso   1.000  H
  C957     1.0000 0.17741  0.34857  0.75090  Biso   1.000  C
  H1020    1.0000 0.27351  0.33621  0.78490  Biso   1.000  H
  C958     1.0000 0.27466  0.36591  0.85081  Biso   1.000  C
  C959     1.0000 0.23333  0.34862  0.91707  Biso   1.000  C
  H1021    1.0000 0.20460  0.30541  0.89760  Biso   1.000  H
  H1022    1.0000 0.16809  0.22330  0.64929  Biso   1.000  H
  H1023    1.0000 0.20520  0.20421  0.64238  Biso   1.000  H
  H1024    1.0000 0.16979  0.18179  0.64080  Biso   1.000  H
  C960     1.0000 0.11406  0.23671  0.75382  Biso   1.000  C
  C961     1.0000 0.13124  0.27856  0.68850  Biso   1.000  C
  H1025    1.0000 0.29150  0.13409  0.82940  Biso   1.000  H
  C962     1.0000 0.30012  0.13800  0.75039  Biso   1.000  C
  H1026    1.0000 0.29991  0.15141  0.67271  Biso   1.000  H
  H1027    1.0000 0.20240  0.35381  0.75501  Biso   1.000  H
  H1028    1.0000 0.17280  0.34129  0.71441  Biso   1.000  H
  H1029    1.0000 0.16361  0.36949  0.75888  Biso   1.000  H
  H1030    1.0000 0.29310  0.38070  0.83908  Biso   1.000  H
  C963     1.0000 0.25955  0.37164  0.90068  Biso   1.000  C
  H1031    1.0000 0.22280  0.35179  0.95068  Biso   1.000  H
  C964     1.0000 0.08098  0.23613  0.73218  Biso   1.000  C
  H1032    1.0000 0.11919  0.22241  0.78348  Biso   1.000  H
  H1033    1.0000 0.14860  0.29299  0.67271  Biso   1.000  H
  C965     1.0000 0.09858  0.27835  0.66761  Biso   1.000  C
  C966     1.0000 0.32366  0.10749  0.74671  Biso   1.000  C
  C967     1.0000 0.26997  0.40024  0.93539  Biso   1.000  C
  C968     1.0000 0.07197  0.25646  0.68843  Biso   1.000  C
  H1034    1.0000 0.06369  0.22139  0.74758  Biso   1.000  H
  H1035    1.0000 0.09339  0.29320  0.63851  Biso   1.000  H
  N97      1.0000 0.33770  0.09840  0.70339  Biso   1.000  N
  H1036    1.0000 0.32851  0.09431  0.77771  Biso   1.000  H
  N98      1.0000 0.29118  0.42441  0.92165  Biso   1.000  N
  H1037    1.0000 0.26049  0.40090  0.97011  Biso   1.000  H
  C969     1.0000 0.03677  0.25575  0.66694  Biso   1.000  C
  C970     1.0000 0.36116  0.06794  0.70588  Biso   1.000  C
  C971     1.0000 0.29922  0.45173  0.96071  Biso   1.000  C
  N99      1.0000 0.02674  0.27657  0.63109  Biso   1.000  N
  H1038    1.0000 0.02061  0.23899  0.68029  Biso   1.000  H
  H1039    1.0000 0.38471  0.07451  0.69301  Biso   1.000  H
  H1040    1.0000 0.36339  0.05990  0.74288  Biso   1.000  H
  C972     1.0000 0.34590  0.03800  0.67109  Biso   1.000  C
  H1041    1.0000 0.29710  0.47509  0.94408  Biso   1.000  H
  H1042    1.0000 0.28231  0.45040  0.99029  Biso   1.000  H
  C973     1.0000 0.33621  0.44673  0.98148  Biso   1.000  C
  C974     1.0000 0.99115  0.27311  0.61221  Biso   1.000  C
  N100     1.0000 0.31931  0.01862  0.70000  Biso   1.000  N
  H1043    1.0000 0.36499  0.02190  0.66051  Biso   1.000  H
  H1044    1.0000 0.33550  0.04811  0.63871  Biso   1.000  H
  H1045    1.0000 0.34430  0.46889  0.99779  Biso   1.000  H
  H1046    1.0000 0.35200  0.44139  0.95159  Biso   1.000  H
  N101     1.0000 0.33875  0.41852  0.02057  Biso   1.000  N
  C975     1.0000 0.96933  0.30465  0.62801  Biso   1.000  C
  H1047    1.0000 0.99130  0.27089  0.57331  Biso   1.000  H
  H1048    1.0000 0.98059  0.25161  0.62718  Biso   1.000  H
  C976     1.0000 0.29430  0.00230  0.66189  Biso   1.000  C
  C977     1.0000 0.33500  0.99141  0.73329  Biso   1.000  C
  C978     1.0000 0.32872  0.43041  0.07238  Biso   1.000  C
  C979     1.0000 0.37436  0.40370  0.02101  Biso   1.000  C
  N102     1.0000 0.96024  0.30420  0.68471  Biso   1.000  N
  H1049    1.0000 0.94749  0.30499  0.60688  Biso   1.000  H
  H1050    1.0000 0.98250  0.32631  0.61999  Biso   1.000  H
  C980     1.0000 0.26691  0.02758  0.64380  Biso   1.000  C
  H1051    1.0000 0.30740  0.99361  0.63089  Biso   1.000  H
  H1052    1.0000 0.28280  0.98201  0.67899  Biso   1.000  H
  H1053    1.0000 0.35760  0.00021  0.74730  Biso   1.000  H
  C981     1.0000 0.31190  0.98041  0.77941  Biso   1.000  C
  H1054    1.0000 0.34000  0.97059  0.71121  Biso   1.000  H
  C982     1.0000 0.31638  0.40040  0.10737  Biso   1.000  C
  H1055    1.0000 0.34891  0.44209  0.08929  Biso   1.000  H
  H1056    1.0000 0.30970  0.44791  0.06899  Biso   1.000  H
  C983     1.0000 0.37903  0.37615  0.97828  Biso   1.000  C
  H1057    1.0000 0.39160  0.42269  0.01560  Biso   1.000  H
  H1058    1.0000 0.37900  0.39299  0.05600  Biso   1.000  H
  C984     1.0000 0.93062  0.28042  0.69403  Biso   1.000  C
  C985     1.0000 0.95197  0.33961  0.70280  Biso   1.000  C
  N103     1.0000 0.23933  0.03253  0.68440  Biso   1.000  N
  H1059    1.0000 0.25609  0.01880  0.61091  Biso   1.000  H
  H1060    1.0000 0.27801  0.05039  0.63598  Biso   1.000  H
  N104     1.0000 0.31384  0.00668  0.82198  Biso   1.000  N
  H1061    1.0000 0.31971  0.95739  0.79299  Biso   1.000  H
  H1062    1.0000 0.28731  0.97810  0.76729  Biso   1.000  H
  N105     1.0000 0.27987  0.39134  0.09663  Biso   1.000  N
  H1063    1.0000 0.31879  0.40721  0.14501  Biso   1.000  H
  H1064    1.0000 0.33139  0.37960  0.10129  Biso   1.000  H
  N106     1.0000 0.36470  0.34239  0.99577  Biso   1.000  N
  H1065    1.0000 0.40420  0.37350  0.97011  Biso   1.000  H
  H1066    1.0000 0.36690  0.38379  0.94570  Biso   1.000  H
  H1067    1.0000 0.90849  0.29270  0.68519  Biso   1.000  H
  H1068    1.0000 0.93280  0.25999  0.67018  Biso   1.000  H
  C986     1.0000 0.92866  0.26759  0.75070  Biso   1.000  C
  H1069    1.0000 0.93921  0.35229  0.67468  Biso   1.000  H
  H1070    1.0000 0.93649  0.33830  0.73419  Biso   1.000  H
  C987     1.0000 0.98544  0.35986  0.71698  Biso   1.000  C
  C988     1.0000 0.23721  0.06249  0.70430  Biso   1.000  C
  C989     1.0000 0.28621  0.02525  0.82901  Biso   1.000  C
  C990     1.0000 0.27419  0.36145  0.07681  Biso   1.000  C
  C991     1.0000 0.34019  0.32911  0.97078  Biso   1.000  C
  N107     1.0000 0.95333  0.23912  0.76109  Biso   1.000  N
  H1071    1.0000 0.90459  0.25939  0.75820  Biso   1.000  H
  H1072    1.0000 0.93379  0.28731  0.77479  Biso   1.000  H
  H1073    1.0000 0.00419  0.35420  0.69139  Biso   1.000  H
  N108     1.0000 0.99678  0.35040  0.77045  Biso   1.000  N
  H1074    1.0000 0.98091  0.38529  0.71520  Biso   1.000  H
  C992     1.0000 0.21005  0.07200  0.74332  Biso   1.000  C
  H1075    1.0000 0.25371  0.07980  0.69380  Biso   1.000  H
  C993     1.0000 0.28414  0.05230  0.87032  Biso   1.000  C
  H1076    1.0000 0.26649  0.02140  0.80689  Biso   1.000  H
  C994     1.0000 0.23891  0.34823  0.06508  Biso   1.000  C
  H1077    1.0000 0.29370  0.34679  0.06919  Biso   1.000  H
  H1078    1.0000 0.33081  0.34189  0.94191  Biso   1.000  H
  C995     1.0000 0.32479  0.29467  0.98326  Biso   1.000  C
  C996     1.0000 0.97512  0.24315  0.79805  Biso   1.000  C
  C997     1.0000 0.02407  0.33186  0.77443  Biso   1.000  C
  C998     1.0000 0.18456  0.04814  0.76061  Biso   1.000  C
  C999     1.0000 0.20903  0.10555  0.76397  Biso   1.000  C
  C1000    1.0000 0.25237  0.07095  0.87490  Biso   1.000  C
  C1001    1.0000 0.31122  0.06011  0.90519  Biso   1.000  C
  C1002    1.0000 0.23519  0.31397  0.04759  Biso   1.000  C
  C1003    1.0000 0.20850  0.36850  0.07223  Biso   1.000  C
  C1004    1.0000 0.29697  0.28225  0.95388  Biso   1.000  C
  C1005    1.0000 0.33804  0.27382  0.02421  Biso   1.000  C
  C1006    1.0000 0.00092  0.21641  0.81404  Biso   1.000  C
  H1079    1.0000 0.97491  0.26471  0.81669  Biso   1.000  H
  H1080    1.0000 0.03559  0.32421  0.74328  Biso   1.000  H
  C1007    1.0000 0.03834  0.32188  0.82624  Biso   1.000  C
  C1008    1.0000 0.15848  0.05893  0.79588  Biso   1.000  C
  H1081    1.0000 0.18501  0.02459  0.74841  Biso   1.000  H
  H1082    1.0000 0.22610  0.12210  0.75291  Biso   1.000  H
  C1009    1.0000 0.18393  0.11592  0.80022  Biso   1.000  C
  C1010    1.0000 0.24894  0.09641  0.91281  Biso   1.000  C
  H1083    1.0000 0.23341  0.06589  0.85179  Biso   1.000  H
  H1084    1.0000 0.33291  0.04801  0.90250  Biso   1.000  H
  C1011    1.0000 0.30711  0.08480  0.94298  Biso   1.000  C
  C1012    1.0000 0.20222  0.29996  0.03834  Biso   1.000  C
  H1085    1.0000 0.25541  0.30001  0.04190  Biso   1.000  H
  H1086    1.0000 0.21039  0.39220  0.08340  Biso   1.000  H
  C1013    1.0000 0.17579  0.35407  0.06299  Biso   1.000  C
  H1087    1.0000 0.28760  0.29629  0.92631  Biso   1.000  H
  C1014    1.0000 0.28244  0.24941  0.96406  Biso   1.000  C
  C1015    1.0000 0.32374  0.24103  0.03499  Biso   1.000  C
  H1088    1.0000 0.35700  0.28220  0.04478  Biso   1.000  H
  C1016    1.0000 0.00013  0.18244  0.79623  Biso   1.000  C
  C1017    1.0000 0.02703  0.22639  0.84990  Biso   1.000  C
  C1018    1.0000 0.02205  0.32976  0.87320  Biso   1.000  C
  C1019    1.0000 0.07058  0.30355  0.82743  Biso   1.000  C
  C1020    1.0000 0.15740  0.09261  0.81629  Biso   1.000  C
  H1089    1.0000 0.14101  0.04269  0.80618  Biso   1.000  H
  H1090    1.0000 0.18459  0.13889  0.81440  Biso   1.000  H
  C1021    1.0000 0.27597  0.10432  0.94847  Biso   1.000  C
  H1091    1.0000 0.22759  0.10911  0.91498  Biso   1.000  H
  H1092    1.0000 0.32589  0.08920  0.96671  Biso   1.000  H
  C1022    1.0000 0.17173  0.31999  0.04510  Biso   1.000  C
  H1093    1.0000 0.20030  0.27631  0.02721  Biso   1.000  H
  H1094    1.0000 0.15549  0.36800  0.06911  Biso   1.000  H
  H1095    1.0000 0.26340  0.24129  0.94310  Biso   1.000  H
  C1023    1.0000 0.29543  0.22820  0.00470  Biso   1.000  C
  H1096    1.0000 0.33309  0.22720  0.06279  Biso   1.000  H
  C1024    1.0000 0.02517  0.15793  0.81369  Biso   1.000  C
  H1097    1.0000 0.98250  0.17540  0.77191  Biso   1.000  H
  C1025    1.0000 0.05235  0.20190  0.86601  Biso   1.000  C
  H1098    1.0000 0.02760  0.24959  0.86329  Biso   1.000  H
  C1026    1.0000 0.03816  0.32112  0.92118  Biso   1.000  C
  H1099    1.0000 0.99990  0.34110  0.87308  Biso   1.000  H
  C1027    1.0000 0.08556  0.29446  0.87553  Biso   1.000  C
  H1100    1.0000 0.08200  0.29750  0.79540  Biso   1.000  H
  C1028    1.0000 0.12956  0.10481  0.85298  Biso   1.000  C
  C1029    1.0000 0.27057  0.13281  0.98815  Biso   1.000  C
  C1030    1.0000 0.13679  0.30376  0.03361  Biso   1.000  C
  C1031    1.0000 0.27950  0.19297  0.01532  Biso   1.000  C
  H1101    1.0000 0.02410  0.13441  0.80148  Biso   1.000  H
  C1032    1.0000 0.05133  0.16772  0.84856  Biso   1.000  C
  H1102    1.0000 0.07050  0.20900  0.88931  Biso   1.000  H
  H1103    1.0000 0.02711  0.32769  0.95328  Biso   1.000  H
  C1033    1.0000 0.07014  0.30305  0.92303  Biso   1.000  C
  H1104    1.0000 0.10709  0.28189  0.87569  Biso   1.000  H
  C1034    1.0000 0.10374  0.12886  0.83363  Biso   1.000  C
  C1035    1.0000 0.12820  0.09334  0.90519  Biso   1.000  C
  C1036    1.0000 0.28731  0.16526  0.98045  Biso   1.000  C
  C1037    1.0000 0.24771  0.12760  0.03092  Biso   1.000  C
  C1038    1.0000 0.11943  0.31227  0.98673  Biso   1.000  C
  C1039    1.0000 0.12328  0.27843  0.06899  Biso   1.000  C
  C1040    1.0000 0.25651  0.18886  0.05730  Biso   1.000  C
  C1041    1.0000 0.07823  0.14135  0.86806  Biso   1.000  C
  C1042    1.0000 0.08763  0.29503  0.97453  Biso   1.000  C
  C1043    1.0000 0.10395  0.13931  0.77566  Biso   1.000  C
  C1044    1.0000 0.10240  0.10646  0.93923  Biso   1.000  C
  C1045    1.0000 0.15389  0.06532  0.92414  Biso   1.000  C
  C1046    1.0000 0.31329  0.17058  0.93559  Biso   1.000  C
  C1047    1.0000 0.24022  0.15552  0.06492  Biso   1.000  C
  C1048    1.0000 0.23194  0.09143  0.04032  Biso   1.000  C
  C1049    1.0000 0.13449  0.33992  0.95064  Biso   1.000  C
  C1050    1.0000 0.09154  0.26114  0.05564  Biso   1.000  C
  C1051    1.0000 0.14088  0.27144  0.12179  Biso   1.000  C
  C1052    1.0000 0.24986  0.21793  0.09651  Biso   1.000  C
  C1053    1.0000 0.07658  0.13035  0.92110  Biso   1.000  C
  C1054    1.0000 0.07352  0.26973  0.00861  Biso   1.000  C
  H1105    1.0000 0.12831  0.14491  0.76508  Biso   1.000  H
  H1106    1.0000 0.08981  0.16081  0.77128  Biso   1.000  H
  C1055    1.0000 0.08981  0.11120  0.73929  Biso   1.000  C
  C1056    1.0000 0.10303  0.09612  0.99680  Biso   1.000  C
  H1107    1.0000 0.16170  0.07121  0.96039  Biso   1.000  H
  H1108    1.0000 0.17479  0.06561  0.90100  Biso   1.000  H
  C1057    1.0000 0.13860  0.02910  0.92430  Biso   1.000  C
  H1109    1.0000 0.30931  0.15251  0.90819  Biso   1.000  H
  H1110    1.0000 0.30931  0.19381  0.91928  Biso   1.000  H
  C1058    1.0000 0.35145  0.16830  0.95510  Biso   1.000  C
  C1059    1.0000 0.21400  0.15206  0.10844  Biso   1.000  C
  H1111    1.0000 0.21099  0.09379  0.06310  Biso   1.000  H
  H1112    1.0000 0.22429  0.08150  0.00608  Biso   1.000  H
  C1060    1.0000 0.25790  0.06629  0.06650  Biso   1.000  C
  H1113    1.0000 0.15950  0.34330  0.95948  Biso   1.000  H
  H1114    1.0000 0.13320  0.33139  0.91379  Biso   1.000  H
  C1061    1.0000 0.11571  0.37520  0.95431  Biso   1.000  C
  C1062    1.0000 0.07875  0.23184  0.08976  Biso   1.000  C
  H1115    1.0000 0.16660  0.27141  0.11681  Biso   1.000  H
  H1116    1.0000 0.13391  0.24800  0.13458  Biso   1.000  H
  C1063    1.0000 0.13148  0.29828  0.16290  Biso   1.000  C
  H1117    1.0000 0.22429  0.21989  0.10267  Biso   1.000  H
  H1118    1.0000 0.25800  0.24040  0.08131  Biso   1.000  H
  C1064    1.0000 0.26793  0.21198  0.14821  Biso   1.000  C
  C1065    1.0000 0.04751  0.14295  0.95644  Biso   1.000  C
  C1066    1.0000 0.03926  0.25140  0.99597  Biso   1.000  C
  H1119    1.0000 0.06621  0.10450  0.75070  Biso   1.000  H
  H1120    1.0000 0.08881  0.12019  0.70308  Biso   1.000  H
  H1121    1.0000 0.10521  0.09059  0.74051  Biso   1.000  H
  C1067    1.0000 0.07716  0.07435  0.01880  Biso   1.000  C
  C1068    1.0000 0.13040  0.10733  0.02887  Biso   1.000  C
  H1122    1.0000 0.11841  0.02839  0.94819  Biso   1.000  H
  H1123    1.0000 0.13111  0.02289  0.88848  Biso   1.000  H
  H1124    1.0000 0.15641  0.01239  0.93630  Biso   1.000  H
  H1125    1.0000 0.35661  0.18849  0.97761  Biso   1.000  H
  H1126    1.0000 0.35459  0.14669  0.97540  Biso   1.000  H
  H1127    1.0000 0.36729  0.16819  0.92469  Biso   1.000  H
  C1069    1.0000 0.21953  0.13001  0.15231  Biso   1.000  C
  C1070    1.0000 0.18291  0.17139  0.10753  Biso   1.000  C
  H1128    1.0000 0.26900  0.07789  0.09671  Biso   1.000  H
  H1129    1.0000 0.24540  0.04539  0.07878  Biso   1.000  H
  H1130    1.0000 0.27589  0.05940  0.04091  Biso   1.000  H
  H1131    1.0000 0.11579  0.38330  0.99100  Biso   1.000  H
  H1132    1.0000 0.12789  0.39241  0.93208  Biso   1.000  H
  H1133    1.0000 0.09151  0.37261  0.94211  Biso   1.000  H
  C1071    1.0000 0.06165  0.23807  0.13790  Biso   1.000  C
  C1072    1.0000 0.08226  0.19732  0.07424  Biso   1.000  C
  H1134    1.0000 0.14289  0.29231  0.19630  Biso   1.000  H
  H1135    1.0000 0.13941  0.32141  0.15121  Biso   1.000  H
  H1136    1.0000 0.10599  0.29860  0.16779  Biso   1.000  H
  H1137    1.0000 0.26581  0.23299  0.17008  Biso   1.000  H
  H1138    1.0000 0.25701  0.19211  0.16641  Biso   1.000  H
  H1139    1.0000 0.29270  0.20690  0.14189  Biso   1.000  H
  H1140    1.0000 0.05411  0.13860  0.99368  Biso   1.000  H
  H1141    1.0000 0.04460  0.16851  0.95178  Biso   1.000  H
  C1073    1.0000 0.01260  0.12480  0.94499  Biso   1.000  C
  H1142    1.0000 0.03360  0.25491  0.95818  Biso   1.000  H
  H1143    1.0000 0.04201  0.22589  0.00221  Biso   1.000  H
  C1074    1.0000 0.00870  0.26523  0.02978  Biso   1.000  C
  H1144    1.0000 0.05859  0.06579  0.99739  Biso   1.000  H
  C1075    1.0000 0.07886  0.06521  0.07266  Biso   1.000  C
  C1076    1.0000 0.13239  0.09722  0.08166  Biso   1.000  C
  H1145    1.0000 0.14800  0.12210  0.01449  Biso   1.000  H
  H1146    1.0000 0.24001  0.11600  0.15369  Biso   1.000  H
  C1077    1.0000 0.19588  0.12841  0.19311  Biso   1.000  C
  C1078    1.0000 0.15929  0.17037  0.14927  Biso   1.000  C
  H1147    1.0000 0.17781  0.18551  0.07768  Biso   1.000  H
  H1148    1.0000 0.05770  0.26151  0.14907  Biso   1.000  H
  C1079    1.0000 0.05047  0.21068  0.16921  Biso   1.000  C
  C1080    1.0000 0.07040  0.16966  0.10429  Biso   1.000  C
  H1149    1.0000 0.09329  0.19239  0.04150  Biso   1.000  H
  H1150    1.0000 0.00749  0.12629  0.90708  Biso   1.000  H
  H1151    1.0000 0.01401  0.10020  0.95557  Biso   1.000  H
  H1152    1.0000 0.99390  0.13640  0.96489  Biso   1.000  H
  H1153    1.0000 0.98709  0.25310  0.01990  Biso   1.000  H
  H1154    1.0000 0.01370  0.26091  0.06717  Biso   1.000  H
  H1155    1.0000 0.00589  0.29040  0.02389  Biso   1.000  H
  H1156    1.0000 0.06050  0.05170  0.08779  Biso   1.000  H
  C1081    1.0000 0.10652  0.07545  0.10386  Biso   1.000  C
  H1157    1.0000 0.15141  0.10510  0.10291  Biso   1.000  H
  H1158    1.0000 0.20020  0.11309  0.22197  Biso   1.000  H
  C1082    1.0000 0.16529  0.14921  0.19263  Biso   1.000  C
  H1159    1.0000 0.13870  0.18441  0.14801  Biso   1.000  H
  H1160    1.0000 0.03989  0.21560  0.20239  Biso   1.000  H
  C1083    1.0000 0.05437  0.17595  0.15350  Biso   1.000  C
  H1161    1.0000 0.07299  0.14630  0.09189  Biso   1.000  H
  C1084    1.0000 0.11068  0.06582  0.15950  Biso   1.000  C
  C1085    1.0000 0.14051  0.14915  0.23706  Biso   1.000  C
  C1086    1.0000 0.04225  0.14622  0.18489  Biso   1.000  C
  N109     1.0000 0.08755  0.04900  0.18544  Biso   1.000  N
  H1162    1.0000 0.13171  0.07239  0.17707  Biso   1.000  H
  N110     1.0000 0.14698  0.13208  0.27892  Biso   1.000  N
  H1163    1.0000 0.11930  0.16209  0.23437  Biso   1.000  H
  N111     1.0000 0.03130  0.14910  0.23208  Biso   1.000  N
  H1164    1.0000 0.04261  0.12359  0.16929  Biso   1.000  H
  C1087    1.0000 0.09667  0.04007  0.24014  Biso   1.000  C
  C1088    1.0000 0.12103  0.13341  0.32168  Biso   1.000  C
  C1089    1.0000 0.01943  0.11770  0.25897  Biso   1.000  C
  H1165    1.0000 0.09719  0.01430  0.24409  Biso   1.000  H
  H1166    1.0000 0.12040  0.04921  0.24819  Biso   1.000  H
  C1090    1.0000 0.07066  0.05526  0.27888  Biso   1.000  C
  H1167    1.0000 0.13271  0.13970  0.35529  Biso   1.000  H
  H1168    1.0000 0.10329  0.15159  0.31379  Biso   1.000  H
  C1091    1.0000 0.10335  0.09821  0.32721  Biso   1.000  C
  H1169    1.0000 0.99521  0.12121  0.27181  Biso   1.000  H
  H1170    1.0000 0.01941  0.09779  0.23398  Biso   1.000  H
  C1092    1.0000 0.04319  0.10929  0.30549  Biso   1.000  C
  N112     1.0000 0.07569  0.09248  0.28812  Biso   1.000  N
  H1171    1.0000 0.07281  0.04269  0.31288  Biso   1.000  H
  H1172    1.0000 0.04670  0.05141  0.26529  Biso   1.000  H
  H1173    1.0000 0.09311  0.09641  0.36311  Biso   1.000  H
  H1174    1.0000 0.12121  0.07949  0.32358  Biso   1.000  H
  H1175    1.0000 0.03070  0.09360  0.33017  Biso   1.000  H
  H1176    1.0000 0.04890  0.13119  0.32461  Biso   1.000  H
  C1093    1.0000 0.26677  0.69242  0.24049  Biso   1.000  C
  C1094    1.0000 0.25850  0.71547  0.19330  Biso   1.000  C
  H1177    1.0000 0.26701  0.66780  0.22951  Biso   1.000  H
  H1178    1.0000 0.24881  0.69580  0.26778  Biso   1.000  H
  H1179    1.0000 0.28980  0.69878  0.25479  Biso   1.000  H
  C1095    1.0000 0.25766  0.75397  0.20764  Biso   1.000  C
  H1180    1.0000 0.27639  0.71159  0.16558  Biso   1.000  H
  H1181    1.0000 0.23550  0.70861  0.17849  Biso   1.000  H
  C1096    1.0000 0.28626  0.77612  0.19867  Biso   1.000  C
  C1097    1.0000 0.22765  0.76767  0.23449  Biso   1.000  C
  C1098    1.0000 0.31617  0.76337  0.16475  Biso   1.000  C
  C1099    1.0000 0.28681  0.81015  0.21771  Biso   1.000  C
  C1100    1.0000 0.22780  0.80184  0.25396  Biso   1.000  C
  C1101    1.0000 0.19614  0.74454  0.24014  Biso   1.000  C
  C1102    1.0000 0.33914  0.73679  0.18122  Biso   1.000  C
  C1103    1.0000 0.32096  0.77783  0.11484  Biso   1.000  C
  C1104    1.0000 0.25774  0.82308  0.24626  Biso   1.000  C
  C1105    1.0000 0.31926  0.83277  0.21159  Biso   1.000  C
  C1106    1.0000 0.19666  0.81635  0.28330  Biso   1.000  C
  C1107    1.0000 0.17592  0.73621  0.19646  Biso   1.000  C
  C1108    1.0000 0.18629  0.73092  0.28835  Biso   1.000  C
  C1109    1.0000 0.36591  0.72534  0.14915  Biso   1.000  C
  H1182    1.0000 0.33621  0.72649  0.21510  Biso   1.000  H
  C1110    1.0000 0.34862  0.76667  0.08293  Biso   1.000  C
  H1183    1.0000 0.30541  0.79540  0.10240  Biso   1.000  H
  C1111    1.0000 0.25829  0.85972  0.26758  Biso   1.000  C
  H1184    1.0000 0.31279  0.85750  0.21798  Biso   1.000  H
  H1185    1.0000 0.32790  0.83089  0.17478  Biso   1.000  H
  C1112    1.0000 0.34857  0.82259  0.24910  Biso   1.000  C
  H1186    1.0000 0.17610  0.80140  0.27599  Biso   1.000  H
  H1187    1.0000 0.19150  0.84011  0.26972  Biso   1.000  H
  C1113    1.0000 0.20198  0.81850  0.34301  Biso   1.000  C
  H1188    1.0000 0.18171  0.74580  0.16301  Biso   1.000  H
  C1114    1.0000 0.14745  0.71411  0.20108  Biso   1.000  C
  C1115    1.0000 0.15767  0.70897  0.29357  Biso   1.000  C
  H1189    1.0000 0.19949  0.73679  0.31888  Biso   1.000  H
  C1116    1.0000 0.37164  0.74043  0.09932  Biso   1.000  C
  H1190    1.0000 0.38070  0.70690  0.16088  Biso   1.000  H
  H1191    1.0000 0.35179  0.77720  0.04928  Biso   1.000  H
  C1117    1.0000 0.23671  0.88594  0.24618  Biso   1.000  C
  C1118    1.0000 0.27856  0.86876  0.31150  Biso   1.000  C
  H1192    1.0000 0.35381  0.79760  0.24499  Biso   1.000  H
  H1193    1.0000 0.34129  0.82720  0.28559  Biso   1.000  H
  H1194    1.0000 0.36949  0.83639  0.24109  Biso   1.000  H
  H1195    1.0000 0.22330  0.83188  0.35071  Biso   1.000  H
  H1196    1.0000 0.20421  0.79480  0.35758  Biso   1.000  H
  H1197    1.0000 0.18179  0.83021  0.35920  Biso   1.000  H
  H1198    1.0000 0.13409  0.70850  0.17060  Biso   1.000  H
  C1119    1.0000 0.13800  0.69988  0.24961  Biso   1.000  C
  H1199    1.0000 0.15141  0.70009  0.32729  Biso   1.000  H
  C1120    1.0000 0.40024  0.73000  0.06457  Biso   1.000  C
  C1121    1.0000 0.23613  0.91899  0.26778  Biso   1.000  C
  H1200    1.0000 0.22241  0.88081  0.21648  Biso   1.000  H
  H1201    1.0000 0.29299  0.85140  0.32729  Biso   1.000  H
  C1122    1.0000 0.27835  0.90142  0.33239  Biso   1.000  C
  C1123    1.0000 0.10749  0.67634  0.25329  Biso   1.000  C
  N113     1.0000 0.42441  0.70882  0.07835  Biso   1.000  N
  H1202    1.0000 0.40090  0.73948  0.02989  Biso   1.000  H
  C1124    1.0000 0.25646  0.92800  0.31153  Biso   1.000  C
  H1203    1.0000 0.22139  0.93631  0.25238  Biso   1.000  H
  H1204    1.0000 0.29320  0.90661  0.36149  Biso   1.000  H
  N114     1.0000 0.09840  0.66230  0.29661  Biso   1.000  N
  H1205    1.0000 0.09431  0.67149  0.22229  Biso   1.000  H
  C1125    1.0000 0.45173  0.70078  0.03929  Biso   1.000  C
  C1126    1.0000 0.25575  0.96323  0.33306  Biso   1.000  C
  C1127    1.0000 0.06794  0.63884  0.29408  Biso   1.000  C
  C1128    1.0000 0.44673  0.66379  0.01848  Biso   1.000  C
  H1206    1.0000 0.47509  0.70290  0.05592  Biso   1.000  H
  H1207    1.0000 0.45040  0.71769  0.00971  Biso   1.000  H
  N115     1.0000 0.27657  0.97326  0.36891  Biso   1.000  N
  H1208    1.0000 0.23899  0.97939  0.31971  Biso   1.000  H
  C1129    1.0000 0.03800  0.65410  0.32891  Biso   1.000  C
  H1209    1.0000 0.07451  0.61529  0.30699  Biso   1.000  H
  H1210    1.0000 0.05990  0.63661  0.25708  Biso   1.000  H
  N116     1.0000 0.41852  0.66123  0.97939  Biso   1.000  N
  H1211    1.0000 0.46889  0.65570  0.00221  Biso   1.000  H
  H1212    1.0000 0.44139  0.64800  0.04841  Biso   1.000  H
  C1130    1.0000 0.27311  0.00883  0.38779  Biso   1.000  C
  N117     1.0000 0.01862  0.68069  0.30000  Biso   1.000  N
  H1213    1.0000 0.02190  0.63499  0.33949  Biso   1.000  H
  H1214    1.0000 0.04811  0.66450  0.36129  Biso   1.000  H
  C1131    1.0000 0.40370  0.62564  0.97899  Biso   1.000  C
  C1132    1.0000 0.43041  0.67128  0.92762  Biso   1.000  C
  C1133    1.0000 0.30465  0.03067  0.37199  Biso   1.000  C
  H1215    1.0000 0.27089  0.00870  0.42669  Biso   1.000  H
  H1216    1.0000 0.25161  0.01941  0.37278  Biso   1.000  H
  C1134    1.0000 0.99141  0.66500  0.26671  Biso   1.000  C
  C1135    1.0000 0.00230  0.70570  0.33811  Biso   1.000  C
  C1136    1.0000 0.37615  0.62095  0.02172  Biso   1.000  C
  H1217    1.0000 0.42269  0.60840  0.98440  Biso   1.000  H
  H1218    1.0000 0.39299  0.62100  0.94400  Biso   1.000  H
  C1137    1.0000 0.40040  0.68359  0.89259  Biso   1.000  C
  H1219    1.0000 0.44209  0.65109  0.91071  Biso   1.000  H
  H1220    1.0000 0.44791  0.69030  0.93101  Biso   1.000  H
  N118     1.0000 0.30420  0.03976  0.31529  Biso   1.000  N
  H1221    1.0000 0.30499  0.05249  0.39308  Biso   1.000  H
  H1222    1.0000 0.32631  0.01750  0.38001  Biso   1.000  H
  C1138    1.0000 0.98041  0.68810  0.22059  Biso   1.000  C
  H1223    1.0000 0.00021  0.64240  0.25270  Biso   1.000  H
  H1224    1.0000 0.97059  0.66000  0.28879  Biso   1.000  H
  C1139    1.0000 0.02758  0.73309  0.35620  Biso   1.000  C
  H1225    1.0000 0.99361  0.69260  0.36911  Biso   1.000  H
  H1226    1.0000 0.98201  0.71720  0.32101  Biso   1.000  H
  N119     1.0000 0.34239  0.63530  0.00419  Biso   1.000  N
  H1227    1.0000 0.37350  0.59580  0.02989  Biso   1.000  H
  H1228    1.0000 0.38379  0.63310  0.05430  Biso   1.000  H
  N120     1.0000 0.39134  0.72013  0.90337  Biso   1.000  N
  H1229    1.0000 0.40721  0.68118  0.85499  Biso   1.000  H
  H1230    1.0000 0.37960  0.66859  0.89871  Biso   1.000  H
  C1140    1.0000 0.33961  0.04803  0.29720  Biso   1.000  C
  C1141    1.0000 0.28042  0.06938  0.30597  Biso   1.000  C
  N121     1.0000 0.00668  0.68613  0.17798  Biso   1.000  N
  H1231    1.0000 0.95739  0.68029  0.20701  Biso   1.000  H
  H1232    1.0000 0.97810  0.71269  0.23271  Biso   1.000  H
  N122     1.0000 0.03253  0.76067  0.31560  Biso   1.000  N
  H1233    1.0000 0.01880  0.74388  0.38909  Biso   1.000  H
  H1234    1.0000 0.05039  0.72199  0.36398  Biso   1.000  H
  C1142    1.0000 0.32911  0.65981  0.02918  Biso   1.000  C
  C1143    1.0000 0.36145  0.72581  0.92315  Biso   1.000  C
  C1144    1.0000 0.35986  0.01456  0.28298  Biso   1.000  C
  H1235    1.0000 0.35229  0.06079  0.32532  Biso   1.000  H
  H1236    1.0000 0.33830  0.06349  0.26581  Biso   1.000  H
  H1237    1.0000 0.29270  0.09148  0.31481  Biso   1.000  H
  H1238    1.0000 0.25999  0.06720  0.32978  Biso   1.000  H
  C1145    1.0000 0.26759  0.07134  0.24930  Biso   1.000  C
  C1146    1.0000 0.02525  0.71377  0.17099  Biso   1.000  C
  C1147    1.0000 0.06249  0.76279  0.29570  Biso   1.000  C
  H1239    1.0000 0.34189  0.66919  0.05809  Biso   1.000  H
  C1148    1.0000 0.29467  0.67521  0.01674  Biso   1.000  C
  C1149    1.0000 0.34823  0.76109  0.93492  Biso   1.000  C
  H1240    1.0000 0.34679  0.70630  0.93081  Biso   1.000  H
  N123     1.0000 0.35040  0.00320  0.22955  Biso   1.000  N
  H1241    1.0000 0.35420  0.99578  0.30861  Biso   1.000  H
  H1242    1.0000 0.38529  0.01909  0.28480  Biso   1.000  H
  N124     1.0000 0.23912  0.04667  0.23891  Biso   1.000  N
  H1243    1.0000 0.25939  0.09539  0.24180  Biso   1.000  H
  H1244    1.0000 0.28731  0.06618  0.22521  Biso   1.000  H
  C1150    1.0000 0.05230  0.71586  0.12968  Biso   1.000  C
  H1245    1.0000 0.02140  0.73349  0.19311  Biso   1.000  H
  C1151    1.0000 0.07200  0.78993  0.25668  Biso   1.000  C
  H1246    1.0000 0.07980  0.74629  0.30620  Biso   1.000  H
  C1152    1.0000 0.28225  0.70303  0.04612  Biso   1.000  C
  C1153    1.0000 0.27382  0.66196  0.97579  Biso   1.000  C
  C1154    1.0000 0.31397  0.76481  0.95238  Biso   1.000  C
  C1155    1.0000 0.36850  0.79150  0.92777  Biso   1.000  C
  C1156    1.0000 0.33186  0.97593  0.22557  Biso   1.000  C
  C1157    1.0000 0.24315  0.02485  0.20195  Biso   1.000  C
  C1158    1.0000 0.07095  0.74763  0.12510  Biso   1.000  C
  C1159    1.0000 0.06011  0.68875  0.09481  Biso   1.000  C
  C1160    1.0000 0.04814  0.81544  0.23939  Biso   1.000  C
  C1161    1.0000 0.10555  0.79097  0.23599  Biso   1.000  C
  H1247    1.0000 0.29629  0.71240  0.07369  Biso   1.000  H
  C1162    1.0000 0.24941  0.71756  0.03594  Biso   1.000  C
  C1163    1.0000 0.24103  0.67626  0.96501  Biso   1.000  C
  H1248    1.0000 0.28220  0.64300  0.95522  Biso   1.000  H
  C1164    1.0000 0.29996  0.79778  0.96166  Biso   1.000  C
  H1249    1.0000 0.30001  0.74459  0.95810  Biso   1.000  H
  H1250    1.0000 0.39220  0.78959  0.91660  Biso   1.000  H
  C1165    1.0000 0.35407  0.82418  0.93701  Biso   1.000  C
  C1166    1.0000 0.32188  0.96166  0.17376  Biso   1.000  C
  H1251    1.0000 0.32421  0.96441  0.25668  Biso   1.000  H
  C1167    1.0000 0.21641  0.99908  0.18596  Biso   1.000  C
  H1252    1.0000 0.26471  0.02509  0.18331  Biso   1.000  H
  C1168    1.0000 0.09641  0.75106  0.08719  Biso   1.000  C
  H1253    1.0000 0.06589  0.76659  0.14821  Biso   1.000  H
  C1169    1.0000 0.08480  0.69289  0.05698  Biso   1.000  C
  H1254    1.0000 0.04801  0.66709  0.09750  Biso   1.000  H
  C1170    1.0000 0.05893  0.84152  0.20408  Biso   1.000  C
  H1255    1.0000 0.02459  0.81499  0.25159  Biso   1.000  H
  H1256    1.0000 0.12210  0.77390  0.24709  Biso   1.000  H
  C1171    1.0000 0.11592  0.81607  0.19978  Biso   1.000  C
  H1257    1.0000 0.24129  0.73660  0.05690  Biso   1.000  H
  C1172    1.0000 0.22820  0.70457  0.99526  Biso   1.000  C
  H1258    1.0000 0.22720  0.66688  0.93721  Biso   1.000  H
  C1173    1.0000 0.31999  0.82827  0.95486  Biso   1.000  C
  H1259    1.0000 0.27631  0.79970  0.97279  Biso   1.000  H
  H1260    1.0000 0.36800  0.84451  0.93089  Biso   1.000  H
  C1174    1.0000 0.32976  0.97795  0.12680  Biso   1.000  C
  C1175    1.0000 0.30355  0.92942  0.17253  Biso   1.000  C
  C1176    1.0000 0.18244  0.99987  0.20377  Biso   1.000  C
  C1177    1.0000 0.22639  0.97297  0.15010  Biso   1.000  C
  C1178    1.0000 0.10432  0.72403  0.05149  Biso   1.000  C
  H1261    1.0000 0.10911  0.77241  0.08498  Biso   1.000  H
  H1262    1.0000 0.08920  0.67409  0.03329  Biso   1.000  H
  C1179    1.0000 0.09261  0.84260  0.18371  Biso   1.000  C
  H1263    1.0000 0.04269  0.85899  0.19382  Biso   1.000  H
  H1264    1.0000 0.13889  0.81538  0.18560  Biso   1.000  H
  C1180    1.0000 0.19297  0.72050  0.98468  Biso   1.000  C
  C1181    1.0000 0.30376  0.86321  0.96639  Biso   1.000  C
  C1182    1.0000 0.32112  0.96184  0.07878  Biso   1.000  C
  H1265    1.0000 0.34110  0.00010  0.12688  Biso   1.000  H
  C1183    1.0000 0.29446  0.91444  0.12447  Biso   1.000  C
  H1266    1.0000 0.29750  0.91800  0.20460  Biso   1.000  H
  C1184    1.0000 0.15793  0.97480  0.18627  Biso   1.000  C
  H1267    1.0000 0.17540  0.01750  0.22809  Biso   1.000  H
  C1185    1.0000 0.20190  0.94765  0.13399  Biso   1.000  C
  H1268    1.0000 0.24959  0.97240  0.13671  Biso   1.000  H
  C1186    1.0000 0.13281  0.72943  0.01185  Biso   1.000  C
  C1187    1.0000 0.10481  0.87044  0.14702  Biso   1.000  C
  C1188    1.0000 0.16526  0.71269  0.01955  Biso   1.000  C
  C1189    1.0000 0.18886  0.74347  0.94270  Biso   1.000  C
  C1190    1.0000 0.31227  0.88057  0.01327  Biso   1.000  C
  C1191    1.0000 0.27843  0.87670  0.93101  Biso   1.000  C
  C1192    1.0000 0.30305  0.92984  0.07697  Biso   1.000  C
  H1269    1.0000 0.32769  0.97289  0.04672  Biso   1.000  H
  H1270    1.0000 0.28189  0.89291  0.12431  Biso   1.000  H
  C1193    1.0000 0.16772  0.94867  0.15144  Biso   1.000  C
  H1271    1.0000 0.13441  0.97590  0.19852  Biso   1.000  H
  H1272    1.0000 0.20900  0.92950  0.11069  Biso   1.000  H
  C1194    1.0000 0.12760  0.75229  0.96908  Biso   1.000  C
  C1195    1.0000 0.12886  0.89623  0.16637  Biso   1.000  C
  C1196    1.0000 0.09334  0.87180  0.09481  Biso   1.000  C
  C1197    1.0000 0.17058  0.68668  0.06441  Biso   1.000  C
  C1198    1.0000 0.15552  0.75978  0.93508  Biso   1.000  C
  C1199    1.0000 0.21793  0.75014  0.90349  Biso   1.000  C
  C1200    1.0000 0.29503  0.91237  0.02547  Biso   1.000  C
  C1201    1.0000 0.33992  0.86551  0.04936  Biso   1.000  C
  C1202    1.0000 0.26114  0.90846  0.94436  Biso   1.000  C
  C1203    1.0000 0.27144  0.85912  0.87817  Biso   1.000  C
  C1204    1.0000 0.14135  0.92177  0.13194  Biso   1.000  C
  C1205    1.0000 0.09143  0.76806  0.95964  Biso   1.000  C
  C1206    1.0000 0.13931  0.89602  0.22434  Biso   1.000  C
  C1207    1.0000 0.10646  0.89760  0.06077  Biso   1.000  C
  C1208    1.0000 0.06532  0.84611  0.07582  Biso   1.000  C
  H1273    1.0000 0.15251  0.69069  0.09181  Biso   1.000  H
  H1274    1.0000 0.19381  0.69069  0.08072  Biso   1.000  H
  C1209    1.0000 0.16830  0.64855  0.04490  Biso   1.000  C
  C1210    1.0000 0.15206  0.78600  0.89152  Biso   1.000  C
  H1275    1.0000 0.21989  0.77571  0.89729  Biso   1.000  H
  H1276    1.0000 0.24040  0.74200  0.91869  Biso   1.000  H
  C1211    1.0000 0.21198  0.73207  0.85179  Biso   1.000  C
  C1212    1.0000 0.26973  0.92648  0.99139  Biso   1.000  C
  H1277    1.0000 0.34330  0.84050  0.04052  Biso   1.000  H
  H1278    1.0000 0.33139  0.86680  0.08621  Biso   1.000  H
  C1213    1.0000 0.37520  0.88429  0.04569  Biso   1.000  C
  C1214    1.0000 0.23184  0.92125  0.91024  Biso   1.000  C
  H1279    1.0000 0.27141  0.83340  0.88319  Biso   1.000  H
  H1280    1.0000 0.24800  0.86609  0.86542  Biso   1.000  H
  C1215    1.0000 0.29828  0.86852  0.83710  Biso   1.000  C
  C1216    1.0000 0.13035  0.92339  0.07890  Biso   1.000  C
  H1281    1.0000 0.09379  0.78898  0.93690  Biso   1.000  H
  H1282    1.0000 0.08150  0.77571  0.99392  Biso   1.000  H
  C1217    1.0000 0.06629  0.74210  0.93350  Biso   1.000  C
  H1283    1.0000 0.14491  0.87169  0.23489  Biso   1.000  H
  H1284    1.0000 0.16081  0.91019  0.22869  Biso   1.000  H
  C1218    1.0000 0.11120  0.91019  0.26071  Biso   1.000  C
  C1219    1.0000 0.09612  0.89697  0.00320  Biso   1.000  C
  H1285    1.0000 0.07121  0.83830  0.03961  Biso   1.000  H
  H1286    1.0000 0.06561  0.82521  0.09900  Biso   1.000  H
  C1220    1.0000 0.02910  0.86140  0.07570  Biso   1.000  C
  H1287    1.0000 0.18849  0.64339  0.02239  Biso   1.000  H
  H1288    1.0000 0.14669  0.64541  0.02460  Biso   1.000  H
  H1289    1.0000 0.16819  0.63271  0.07531  Biso   1.000  H
  C1221    1.0000 0.13001  0.78047  0.84765  Biso   1.000  C
  C1222    1.0000 0.17139  0.81709  0.89247  Biso   1.000  C
  H1290    1.0000 0.23299  0.73419  0.82992  Biso   1.000  H
  H1291    1.0000 0.19211  0.74299  0.83359  Biso   1.000  H
  H1292    1.0000 0.20690  0.70730  0.85811  Biso   1.000  H
  C1223    1.0000 0.25140  0.96074  0.00403  Biso   1.000  C
  H1293    1.0000 0.38330  0.88419  0.00900  Biso   1.000  H
  H1294    1.0000 0.39241  0.87209  0.06788  Biso   1.000  H
  H1295    1.0000 0.37261  0.90849  0.05789  Biso   1.000  H
  C1224    1.0000 0.23807  0.93835  0.86206  Biso   1.000  C
  C1225    1.0000 0.19732  0.91774  0.92576  Biso   1.000  C
  H1296    1.0000 0.29231  0.85711  0.80370  Biso   1.000  H
  H1297    1.0000 0.32141  0.86059  0.84879  Biso   1.000  H
  H1298    1.0000 0.29860  0.89401  0.83221  Biso   1.000  H
  C1226    1.0000 0.14295  0.95246  0.04356  Biso   1.000  C
  H1299    1.0000 0.07789  0.73100  0.90329  Biso   1.000  H
  H1300    1.0000 0.04539  0.75460  0.92122  Biso   1.000  H
  H1301    1.0000 0.05940  0.72408  0.95909  Biso   1.000  H
  H1302    1.0000 0.10450  0.93379  0.24930  Biso   1.000  H
  H1303    1.0000 0.12019  0.91119  0.29688  Biso   1.000  H
  H1304    1.0000 0.09059  0.89479  0.25949  Biso   1.000  H
  C1227    1.0000 0.07435  0.92284  0.98116  Biso   1.000  C
  C1228    1.0000 0.10733  0.86960  0.97113  Biso   1.000  C
  H1305    1.0000 0.02839  0.88159  0.05181  Biso   1.000  H
  H1306    1.0000 0.02289  0.86889  0.11148  Biso   1.000  H
  H1307    1.0000 0.01239  0.84359  0.06370  Biso   1.000  H
  H1308    1.0000 0.11600  0.75999  0.84631  Biso   1.000  H
  C1229    1.0000 0.12841  0.80410  0.80689  Biso   1.000  C
  C1230    1.0000 0.17037  0.84071  0.85073  Biso   1.000  C
  H1309    1.0000 0.18551  0.82219  0.92228  Biso   1.000  H
  H1310    1.0000 0.25491  0.96640  0.04178  Biso   1.000  H
  H1311    1.0000 0.22589  0.95799  0.99779  Biso   1.000  H
  C1231    1.0000 0.26523  0.99130  0.97019  Biso   1.000  C
  H1312    1.0000 0.26151  0.94230  0.85089  Biso   1.000  H
  C1232    1.0000 0.21068  0.94951  0.83075  Biso   1.000  C
  C1233    1.0000 0.16966  0.92960  0.89571  Biso   1.000  C
  H1313    1.0000 0.19239  0.90668  0.95850  Biso   1.000  H
  H1314    1.0000 0.13860  0.94589  0.00632  Biso   1.000  H
  H1315    1.0000 0.16851  0.95540  0.04822  Biso   1.000  H
  C1234    1.0000 0.12480  0.98740  0.05501  Biso   1.000  C
  C1235    1.0000 0.06521  0.92111  0.92734  Biso   1.000  C
  H1316    1.0000 0.06579  0.94139  0.00261  Biso   1.000  H
  C1236    1.0000 0.09722  0.86761  0.91834  Biso   1.000  C
  H1317    1.0000 0.12210  0.85200  0.98551  Biso   1.000  H
  H1318    1.0000 0.11309  0.79980  0.77799  Biso   1.000  H
  C1237    1.0000 0.14921  0.83471  0.80737  Biso   1.000  C
  H1319    1.0000 0.18441  0.86130  0.85199  Biso   1.000  H
  H1320    1.0000 0.26091  0.98630  0.93279  Biso   1.000  H
  H1321    1.0000 0.29040  0.99411  0.97611  Biso   1.000  H
  H1322    1.0000 0.25310  0.01289  0.98010  Biso   1.000  H
  H1323    1.0000 0.21560  0.96009  0.79761  Biso   1.000  H
  C1238    1.0000 0.17595  0.94563  0.84650  Biso   1.000  C
  H1324    1.0000 0.14630  0.92701  0.90811  Biso   1.000  H
  H1325    1.0000 0.12629  0.99248  0.09288  Biso   1.000  H
  H1326    1.0000 0.10020  0.98599  0.04439  Biso   1.000  H
  H1327    1.0000 0.13640  0.00610  0.03511  Biso   1.000  H
  C1239    1.0000 0.07545  0.89348  0.89610  Biso   1.000  C
  H1328    1.0000 0.05170  0.93950  0.91221  Biso   1.000  H
  H1329    1.0000 0.10510  0.84859  0.89709  Biso   1.000  H
  C1240    1.0000 0.14915  0.85949  0.76294  Biso   1.000  C
  C1241    1.0000 0.14622  0.95775  0.81511  Biso   1.000  C
  C1242    1.0000 0.06582  0.88929  0.84050  Biso   1.000  C
  N125     1.0000 0.13208  0.85302  0.72104  Biso   1.000  N
  H1330    1.0000 0.16209  0.88070  0.76559  Biso   1.000  H
  N126     1.0000 0.14910  0.96870  0.76788  Biso   1.000  N
  H1331    1.0000 0.12359  0.95739  0.83071  Biso   1.000  H
  N127     1.0000 0.04900  0.91245  0.81456  Biso   1.000  N
  H1332    1.0000 0.07239  0.86829  0.82289  Biso   1.000  H
  C1243    1.0000 0.13341  0.87897  0.67832  Biso   1.000  C
  C1244    1.0000 0.11770  0.98057  0.74099  Biso   1.000  C
  C1245    1.0000 0.04007  0.90331  0.75986  Biso   1.000  C
  H1333    1.0000 0.13970  0.86729  0.64471  Biso   1.000  H
  H1334    1.0000 0.15159  0.89671  0.68621  Biso   1.000  H
  C1246    1.0000 0.09821  0.89663  0.67275  Biso   1.000  C
  C1247    1.0000 0.10929  0.95681  0.69451  Biso   1.000  C
  H1335    1.0000 0.09779  0.98059  0.76598  Biso   1.000  H
  H1336    1.0000 0.12121  0.00479  0.72819  Biso   1.000  H
  C1248    1.0000 0.05526  0.92934  0.72108  Biso   1.000  C
  H1337    1.0000 0.01430  0.90281  0.75591  Biso   1.000  H
  H1338    1.0000 0.04921  0.87960  0.75181  Biso   1.000  H
  N128     1.0000 0.09248  0.92431  0.71188  Biso   1.000  N
  H1339    1.0000 0.09641  0.90689  0.63689  Biso   1.000  H
  H1340    1.0000 0.07949  0.87879  0.67642  Biso   1.000  H
  H1341    1.0000 0.09360  0.96930  0.66979  Biso   1.000  H
  H1342    1.0000 0.13119  0.95110  0.67539  Biso   1.000  H
  H1343    1.0000 0.04269  0.92719  0.68708  Biso   1.000  H
  H1344    1.0000 0.05141  0.95330  0.73471  Biso   1.000  H
  Ne1      1.0000 0.32852  0.29371  0.42464  Biso   1.000  Ne
  He1      1.0000 0.31774  0.26457  0.56406  Biso   1.000  He
  He2      1.0000 0.23583  0.27980  0.37789  Biso   1.000  He
  Ar1      1.0000 0.33111  0.29366  0.42608  Biso   1.000  Ar
  Ne2      1.0000 0.17147  0.20629  0.92463  Biso   1.000  Ne
  He3      1.0000 0.18501  0.23007  0.13149  Biso   1.000  He
  He4      1.0000 0.20226  0.08428  0.95581  Biso   1.000  He
  He5      1.0000 0.29745  0.20345  0.86073  Biso   1.000  He
  Ar2      1.0000 0.16889  0.20634  0.92607  Biso   1.000  Ar
  Ne3      1.0000 0.29371  0.67147  0.57535  Biso   1.000  Ne
  He6      1.0000 0.20412  0.65296  0.62451  Biso   1.000  He
  He7      1.0000 0.27066  0.80051  0.61544  Biso   1.000  He
  He8      1.0000 0.26989  0.68461  0.37162  Biso   1.000  He
  Ar3      1.0000 0.29365  0.66888  0.57390  Biso   1.000  Ar
  Ne4      1.0000 0.70628  0.32852  0.57535  Biso   1.000  Ne
  He9      1.0000 0.72022  0.23587  0.62212  Biso   1.000  He
  He10     1.0000 0.73045  0.31724  0.38993  Biso   1.000  He
  Ar4      1.0000 0.70514  0.33129  0.57196  Biso   1.000  Ar
  Ne5      1.0000 0.79371  0.17147  0.07536  Biso   1.000  Ne
  He11     1.0000 0.70412  0.15295  0.12452  Biso   1.000  He
  He12     1.0000 0.77064  0.30052  0.11542  Biso   1.000  He
  He13     1.0000 0.76989  0.18461  0.87160  Biso   1.000  He
  Ar5      1.0000 0.79463  0.16876  0.07194  Biso   1.000  Ar
  Ne6      1.0000 0.20629  0.82852  0.07536  Biso   1.000  Ne
  He14     1.0000 0.31850  0.86549  0.14320  Biso   1.000  He
  He15     1.0000 0.22022  0.73587  0.12213  Biso   1.000  He
  He16     1.0000 0.08658  0.81952  0.99178  Biso   1.000  He
  He17     1.0000 0.23047  0.81723  0.88992  Biso   1.000  He
  Ar6      1.0000 0.20633  0.83111  0.07393  Biso   1.000  Ar
  Ne7      1.0000 0.67147  0.70628  0.42464  Biso   1.000  Ne
  He18     1.0000 0.68499  0.73005  0.63147  Biso   1.000  He
  He19     1.0000 0.70227  0.58428  0.45582  Biso   1.000  He
  He20     1.0000 0.79745  0.70344  0.36073  Biso   1.000  He
  Ar7      1.0000 0.66881  0.70539  0.42798  Biso   1.000  Ar
  Ne8      1.0000 0.82852  0.79371  0.92463  Biso   1.000  Ne
  He21     1.0000 0.81775  0.76457  0.06404  Biso   1.000  He
  He22     1.0000 0.73583  0.77978  0.87788  Biso   1.000  He
  Ar8      1.0000 0.83122  0.79469  0.92799  Biso   1.000  Ar
