data_image0
_cell_length_a       18.776
_cell_length_b       31.091
_cell_length_c       26.235
_cell_angle_alpha    90
_cell_angle_beta     95.93
_cell_angle_gamma    90

_symmetry_space_group_name_H-M    "P 1"
_symmetry_int_tables_number       1

loop_
  _symmetry_equiv_pos_as_xyz
  'x, y, z'

loop_
  _atom_site_label
  _atom_site_occupancy
  _atom_site_fract_x
  _atom_site_fract_y
  _atom_site_fract_z
  _atom_site_thermal_displace_type
  _atom_site_B_iso_or_equiv
  _atom_site_type_symbol
  C1       1.0000 0.58266  0.50359  0.46929  Biso   1.000  C
  C2       1.0000 0.59897  0.46329  0.44101  Biso   1.000  C
  H1       1.0000 0.61435  0.50539  0.50141  Biso   1.000  H
  H2       1.0000 0.53266  0.50301  0.47711  Biso   1.000  H
  H3       1.0000 0.59034  0.52880  0.44799  Biso   1.000  H
  C3       1.0000 0.58174  0.42122  0.46588  Biso   1.000  C
  H4       1.0000 0.65058  0.46341  0.43618  Biso   1.000  H
  H5       1.0000 0.57196  0.46431  0.40660  Biso   1.000  H
  C4       1.0000 0.51794  0.40131  0.45488  Biso   1.000  C
  C5       1.0000 0.63544  0.40121  0.49991  Biso   1.000  C
  C6       1.0000 0.45658  0.42501  0.42311  Biso   1.000  C
  C7       1.0000 0.50193  0.36001  0.47638  Biso   1.000  C
  C8       1.0000 0.62336  0.36110  0.52068  Biso   1.000  C
  C9       1.0000 0.70078  0.42591  0.51681  Biso   1.000  C
  N1       1.0000 0.44105  0.41491  0.36716  Biso   1.000  N
  H6       1.0000 0.41217  0.41961  0.43940  Biso   1.000  H
  H7       1.0000 0.46655  0.45621  0.42610  Biso   1.000  H
  C10      1.0000 0.55737  0.34039  0.50961  Biso   1.000  C
  C11      1.0000 0.43107  0.33891  0.46481  Biso   1.000  C
  C12      1.0000 0.68286  0.33872  0.55579  Biso   1.000  C
  H8       1.0000 0.68696  0.45660  0.51739  Biso   1.000  H
  H9       1.0000 0.71597  0.41748  0.55268  Biso   1.000  H
  N2       1.0000 0.76334  0.42289  0.48868  Biso   1.000  N
  C13      1.0000 0.47506  0.38510  0.34670  Biso   1.000  C
  C14      1.0000 0.54157  0.29729  0.53440  Biso   1.000  C
  H10      1.0000 0.43788  0.30739  0.46400  Biso   1.000  H
  H11      1.0000 0.40995  0.34811  0.43028  Biso   1.000  H
  C15      1.0000 0.37852  0.35020  0.50478  Biso   1.000  C
  H12      1.0000 0.73017  0.34811  0.54628  Biso   1.000  H
  H13      1.0000 0.67927  0.30720  0.55080  Biso   1.000  H
  C16      1.0000 0.67726  0.34959  0.61400  Biso   1.000  C
  C17      1.0000 0.76525  0.39790  0.44990  Biso   1.000  C
  C18      1.0000 0.45845  0.37702  0.29140  Biso   1.000  C
  H14      1.0000 0.51025  0.36850  0.36651  Biso   1.000  H
  H15      1.0000 0.55752  0.29851  0.57150  Biso   1.000  H
  H16      1.0000 0.48926  0.29211  0.53030  Biso   1.000  H
  N3       1.0000 0.57774  0.26175  0.51122  Biso   1.000  N
  H17      1.0000 0.39987  0.34190  0.53900  Biso   1.000  H
  H18      1.0000 0.33355  0.33460  0.49650  Biso   1.000  H
  H19      1.0000 0.36915  0.38120  0.50401  Biso   1.000  H
  H20      1.0000 0.71602  0.33511  0.63530  Biso   1.000  H
  H21      1.0000 0.63094  0.33962  0.62369  Biso   1.000  H
  H22      1.0000 0.68124  0.38069  0.61909  Biso   1.000  H
  H23      1.0000 0.72586  0.37988  0.43860  Biso   1.000  H
  C19      1.0000 0.82965  0.39790  0.42411  Biso   1.000  C
  C20      1.0000 0.48557  0.34782  0.26051  Biso   1.000  C
  S1       1.0000 0.39186  0.40890  0.25921  Biso   1.000  S
  C21      1.0000 0.53765  0.23129  0.49581  Biso   1.000  C
  C22      1.0000 0.84708  0.37239  0.38510  Biso   1.000  C
  S2       1.0000 0.89614  0.43350  0.44641  Biso   1.000  S
  C23      1.0000 0.45699  0.35181  0.20790  Biso   1.000  C
  H24      1.0000 0.52009  0.32681  0.27239  Biso   1.000  H
  C24      1.0000 0.40357  0.38262  0.20234  Biso   1.000  C
  C25      1.0000 0.56736  0.19031  0.47661  Biso   1.000  C
  H25      1.0000 0.48735  0.23409  0.49639  Biso   1.000  H
  H26      1.0000 0.81696  0.35071  0.36900  Biso   1.000  H
  C26      1.0000 0.91736  0.38259  0.37169  Biso   1.000  C
  C27      1.0000 0.95015  0.41459  0.40250  Biso   1.000  C
  C28      1.0000 0.46780  0.33386  0.15919  Biso   1.000  C
  S3       1.0000 0.36751  0.39015  0.14072  Biso   1.000  S
  C29      1.0000 0.53058  0.15439  0.45941  Biso   1.000  C
  S4       1.0000 0.65849  0.18436  0.47995  Biso   1.000  S
  C30      1.0000 0.96497  0.36741  0.33620  Biso   1.000  C
  S5       1.0000 0.03542  0.42559  0.39039  Biso   1.000  S
  C31      1.0000 0.42570  0.35145  0.11991  Biso   1.000  C
  H27      1.0000 0.50148  0.31170  0.15490  Biso   1.000  H
  C32      1.0000 0.57715  0.12071  0.44959  Biso   1.000  C
  H28      1.0000 0.47988  0.15249  0.45461  Biso   1.000  H
  C33      1.0000 0.64765  0.13190  0.45910  Biso   1.000  C
  H29      1.0000 0.95247  0.34589  0.31121  Biso   1.000  H
  C34      1.0000 0.02875  0.38680  0.34229  Biso   1.000  C
  C35      1.0000 0.42061  0.34190  0.06580  Biso   1.000  C
  C36      1.0000 0.57014  0.07591  0.43388  Biso   1.000  C
  S6       1.0000 0.70568  0.09099  0.44929  Biso   1.000  S
  C37      1.0000 0.09178  0.37898  0.31520  Biso   1.000  C
  H30      1.0000 0.45240  0.32180  0.05288  Biso   1.000  H
  N4       1.0000 0.37240  0.36094  0.03510  Biso   1.000  N
  C38      1.0000 0.63558  0.05651  0.43450  Biso   1.000  C
  H31      1.0000 0.52577  0.06192  0.42461  Biso   1.000  H
  H32      1.0000 0.09047  0.35949  0.28730  Biso   1.000  H
  N5       1.0000 0.14947  0.39989  0.33110  Biso   1.000  N
  C39      1.0000 0.36379  0.34955  0.97988  Biso   1.000  C
  C40      1.0000 0.64977  0.01110  0.42101  Biso   1.000  C
  C41      1.0000 0.21697  0.39481  0.30619  Biso   1.000  C
  C42      1.0000 0.42510  0.32633  0.95742  Biso   1.000  C
  H33      1.0000 0.35407  0.37651  0.96018  Biso   1.000  H
  H34      1.0000 0.32049  0.33129  0.97360  Biso   1.000  H
  H35      1.0000 0.61006  0.99251  0.41269  Biso   1.000  H
  N6       1.0000 0.71094  0.99643  0.42009  Biso   1.000  N
  C43      1.0000 0.21439  0.36409  0.25990  Biso   1.000  C
  H36      1.0000 0.25486  0.38448  0.33248  Biso   1.000  H
  H37      1.0000 0.23169  0.42360  0.29489  Biso   1.000  H
  C44      1.0000 0.42556  0.28159  0.95585  Biso   1.000  C
  C45      1.0000 0.47828  0.35158  0.93738  Biso   1.000  C
  C46      1.0000 0.71664  0.95179  0.40499  Biso   1.000  C
  C47      1.0000 0.19086  0.38140  0.21200  Biso   1.000  C
  C48      1.0000 0.23865  0.32131  0.26488  Biso   1.000  C
  C49      1.0000 0.47877  0.26088  0.93079  Biso   1.000  C
  C50      1.0000 0.36910  0.25541  0.97908  Biso   1.000  C
  C51      1.0000 0.53170  0.32993  0.91297  Biso   1.000  C
  C52      1.0000 0.47777  0.39957  0.94229  Biso   1.000  C
  C53      1.0000 0.75248  0.94818  0.35659  Biso   1.000  C
  H38      1.0000 0.66827  0.93889  0.39970  Biso   1.000  H
  H39      1.0000 0.74479  0.93570  0.43281  Biso   1.000  H
  C54      1.0000 0.19040  0.35441  0.16820  Biso   1.000  C
  C55      1.0000 0.16267  0.42710  0.20709  Biso   1.000  C
  C56      1.0000 0.23968  0.29549  0.22108  Biso   1.000  C
  C57      1.0000 0.25608  0.30022  0.32141  Biso   1.000  C
  C58      1.0000 0.53181  0.28442  0.90971  Biso   1.000  C
  C59      1.0000 0.47766  0.21205  0.92608  Biso   1.000  C
  H40      1.0000 0.35378  0.27130  0.00870  Biso   1.000  H
  H41      1.0000 0.39098  0.22801  0.99226  Biso   1.000  H
  C60      1.0000 0.30340  0.24489  0.94267  Biso   1.000  C
  C61      1.0000 0.59101  0.35509  0.89216  Biso   1.000  C
  H42      1.0000 0.52780  0.41022  0.94577  Biso   1.000  H
  H43      1.0000 0.45628  0.40738  0.97386  Biso   1.000  H
  C62      1.0000 0.43576  0.42202  0.89626  Biso   1.000  C
  C63      1.0000 0.70787  0.94732  0.30991  Biso   1.000  C
  C64      1.0000 0.82646  0.94600  0.35850  Biso   1.000  C
  C65      1.0000 0.16649  0.37262  0.11589  Biso   1.000  C
  C66      1.0000 0.21437  0.31109  0.17379  Biso   1.000  C
  H44      1.0000 0.14026  0.43450  0.23852  Biso   1.000  H
  H45      1.0000 0.12490  0.42848  0.17789  Biso   1.000  H
  C67      1.0000 0.22146  0.46110  0.19889  Biso   1.000  C
  C68      1.0000 0.27080  0.25030  0.22560  Biso   1.000  C
  H46      1.0000 0.22898  0.31511  0.34658  Biso   1.000  H
  H47      1.0000 0.24337  0.26931  0.32079  Biso   1.000  H
  C69      1.0000 0.33289  0.30600  0.33402  Biso   1.000  C
  C70      1.0000 0.58987  0.26184  0.88247  Biso   1.000  C
  H48      1.0000 0.42748  0.20189  0.92447  Biso   1.000  H
  H49      1.0000 0.49657  0.20369  0.89358  Biso   1.000  H
  N7       1.0000 0.51988  0.19096  0.96877  Biso   1.000  N
  H50      1.0000 0.27238  0.22521  0.95949  Biso   1.000  H
  H51      1.0000 0.31806  0.23129  0.91178  Biso   1.000  H
  H52      1.0000 0.27717  0.27149  0.93328  Biso   1.000  H
  H53      1.0000 0.60038  0.34319  0.85859  Biso   1.000  H
  H54      1.0000 0.57619  0.38551  0.88729  Biso   1.000  H
  N8       1.0000 0.65730  0.35277  0.92822  Biso   1.000  N
  H55      1.0000 0.43681  0.45319  0.90167  Biso   1.000  H
  H56      1.0000 0.38610  0.41189  0.89277  Biso   1.000  H
  H57      1.0000 0.45788  0.41520  0.86499  Biso   1.000  H
  C71      1.0000 0.73545  0.94420  0.26630  Biso   1.000  C
  C72      1.0000 0.62746  0.95140  0.30780  Biso   1.000  C
  C73      1.0000 0.85625  0.94239  0.31141  Biso   1.000  C
  C74      1.0000 0.87288  0.94642  0.40959  Biso   1.000  C
  N9       1.0000 0.09048  0.36583  0.10106  Biso   1.000  N
  H58      1.0000 0.17667  0.40391  0.11589  Biso   1.000  H
  H59      1.0000 0.19428  0.35891  0.09029  Biso   1.000  H
  C75      1.0000 0.20560  0.28191  0.12780  Biso   1.000  C
  H60      1.0000 0.25626  0.46219  0.22928  Biso   1.000  H
  H61      1.0000 0.19911  0.48940  0.19310  Biso   1.000  H
  H62      1.0000 0.24580  0.45309  0.16900  Biso   1.000  H
  H63      1.0000 0.28859  0.24200  0.19280  Biso   1.000  H
  H64      1.0000 0.31176  0.24969  0.25258  Biso   1.000  H
  N10      1.0000 0.21480  0.21849  0.23871  Biso   1.000  N
  H65      1.0000 0.29799  0.24499  0.19590  Biso   1.000  H
  H66      1.0000 0.30509  0.24879  0.25691  Biso   1.000  H
  N11      1.0000 0.21666  0.21511  0.22802  Biso   1.000  N
  H67      1.0000 0.34595  0.29809  0.36988  Biso   1.000  H
  H68      1.0000 0.34536  0.33621  0.32888  Biso   1.000  H
  H69      1.0000 0.35876  0.28770  0.31179  Biso   1.000  H
  H70      1.0000 0.63377  0.27970  0.88549  Biso   1.000  H
  H71      1.0000 0.60169  0.23380  0.89906  Biso   1.000  H
  C76      1.0000 0.56450  0.25470  0.82586  Biso   1.000  C
  C77      1.0000 0.48417  0.16706  0.99437  Biso   1.000  C
  C78      1.0000 0.59457  0.17262  0.96559  Biso   1.000  C
  C79      1.0000 0.69469  0.38561  0.93416  Biso   1.000  C
  C80      1.0000 0.68768  0.94021  0.21430  Biso   1.000  C
  C81      1.0000 0.80629  0.94159  0.26450  Biso   1.000  C
  H72      1.0000 0.60956  0.96739  0.27638  Biso   1.000  H
  H73      1.0000 0.61536  0.96842  0.33758  Biso   1.000  H
  C82      1.0000 0.58789  0.90650  0.30780  Biso   1.000  C
  C83      1.0000 0.93446  0.93969  0.31041  Biso   1.000  C
  H74      1.0000 0.84814  0.96292  0.43488  Biso   1.000  H
  H75      1.0000 0.91866  0.96121  0.40541  Biso   1.000  H
  C84      1.0000 0.88857  0.90119  0.43009  Biso   1.000  C
  C85      1.0000 0.05648  0.39561  0.07841  Biso   1.000  C
  H76      1.0000 0.16388  0.29160  0.10439  Biso   1.000  H
  H77      1.0000 0.19537  0.25229  0.13919  Biso   1.000  H
  C86      1.0000 0.27259  0.28079  0.09780  Biso   1.000  C
  C87      1.0000 0.23006  0.18391  0.26289  Biso   1.000  C
  C88      1.0000 0.24977  0.18629  0.25519  Biso   1.000  C
  H78      1.0000 0.52279  0.23550  0.82288  Biso   1.000  H
  H79      1.0000 0.60320  0.24161  0.80877  Biso   1.000  H
  H80      1.0000 0.55119  0.28230  0.80969  Biso   1.000  H
  C89      1.0000 0.51908  0.13618  0.03326  Biso   1.000  C
  C90      1.0000 0.52491  0.13489  0.03089  Biso   1.000  C
  H81      1.0000 0.43336  0.16841  0.98919  Biso   1.000  H
  H82      1.0000 0.43335  0.16870  0.99138  Biso   1.000  H
  C91      1.0000 0.61502  0.13988  0.00759  Biso   1.000  C
  H83      1.0000 0.62481  0.18070  0.94037  Biso   1.000  H
  H84      1.0000 0.67940  0.41131  0.91676  Biso   1.000  H
  C92      1.0000 0.76276  0.38545  0.96777  Biso   1.000  C
  N12      1.0000 0.67868  0.98360  0.18920  Biso   1.000  N
  H85      1.0000 0.71025  0.92011  0.19138  Biso   1.000  H
  H86      1.0000 0.64028  0.92840  0.22020  Biso   1.000  H
  C93      1.0000 0.84230  0.93841  0.21292  Biso   1.000  C
  H87      1.0000 0.59597  0.89360  0.34199  Biso   1.000  H
  H88      1.0000 0.60676  0.88730  0.28282  Biso   1.000  H
  H89      1.0000 0.53646  0.91071  0.29868  Biso   1.000  H
  H90      1.0000 0.95905  0.93632  0.34540  Biso   1.000  H
  H91      1.0000 0.94760  0.91541  0.28891  Biso   1.000  H
  N13      1.0000 0.95167  0.97909  0.28910  Biso   1.000  N
  H92      1.0000 0.94456  0.91840  0.28408  Biso   1.000  H
  H93      1.0000 0.95565  0.92860  0.34398  Biso   1.000  H
  N14      1.0000 0.97249  0.98208  0.29941  Biso   1.000  N
  H94      1.0000 0.91945  0.90280  0.46251  Biso   1.000  H
  H95      1.0000 0.91276  0.88469  0.40510  Biso   1.000  H
  H96      1.0000 0.84348  0.88691  0.43580  Biso   1.000  H
  C94      1.0000 0.98221  0.39198  0.05829  Biso   1.000  C
  H97      1.0000 0.08042  0.42212  0.07411  Biso   1.000  H
  H98      1.0000 0.31381  0.27011  0.12029  Biso   1.000  H
  H99      1.0000 0.28271  0.30980  0.08599  Biso   1.000  H
  H100     1.0000 0.26361  0.26159  0.06810  Biso   1.000  H
  C95      1.0000 0.18320  0.14541  0.26369  Biso   1.000  C
  H101     1.0000 0.27567  0.18240  0.28220  Biso   1.000  H
  C96      1.0000 0.20289  0.15149  0.27358  Biso   1.000  C
  H102     1.0000 0.30029  0.18671  0.26350  Biso   1.000  H
  C97      1.0000 0.49799  0.09890  0.05361  Biso   1.000  C
  S7       1.0000 0.58941  0.14390  0.06929  Biso   1.000  S
  C98      1.0000 0.48310  0.10810  0.05741  Biso   1.000  C
  S8       1.0000 0.61880  0.13271  0.03859  Biso   1.000  S
  S9       1.0000 0.60422  0.14679  0.06082  Biso   1.000  S
  C99      1.0000 0.65511  0.10379  0.00268  Biso   1.000  C
  S10      1.0000 0.78369  0.33949  0.00498  Biso   1.000  S
  C100     1.0000 0.81458  0.41530  0.97179  Biso   1.000  C
  C101     1.0000 0.61219  0.99810  0.18061  Biso   1.000  C
  C102     1.0000 0.72001  0.99321  0.15528  Biso   1.000  C
  H103     1.0000 0.89147  0.95021  0.21778  Biso   1.000  H
  H104     1.0000 0.81430  0.95520  0.18571  Biso   1.000  H
  C103     1.0000 0.84469  0.88910  0.19659  Biso   1.000  C
  C104     1.0000 0.00918  0.99051  0.31482  Biso   1.000  C
  C105     1.0000 0.03489  0.99170  0.31731  Biso   1.000  C
  S11      1.0000 0.93609  0.34441  0.06829  Biso   1.000  S
  C106     1.0000 0.94401  0.41941  0.02571  Biso   1.000  C
  C107     1.0000 0.19629  0.11061  0.29539  Biso   1.000  C
  S12      1.0000 0.09616  0.14631  0.23449  Biso   1.000  S
  C108     1.0000 0.22316  0.11441  0.29700  Biso   1.000  C
  S13      1.0000 0.11898  0.15400  0.24089  Biso   1.000  S
  H105     1.0000 0.45170  0.08800  0.04250  Biso   1.000  H
  C109     1.0000 0.54300  0.07491  0.09128  Biso   1.000  C
  H106     1.0000 0.43242  0.10659  0.05610  Biso   1.000  H
  C110     1.0000 0.53677  0.08289  0.08760  Biso   1.000  C
  C111     1.0000 0.60211  0.10080  0.09600  Biso   1.000  C
  C112     1.0000 0.61039  0.09060  0.08289  Biso   1.000  C
  C113     1.0000 0.63179  0.09730  0.09021  Biso   1.000  C
  C114     1.0000 0.66411  0.07980  0.05070  Biso   1.000  C
  H107     1.0000 0.67439  0.09549  0.97206  Biso   1.000  H
  C115     1.0000 0.86439  0.36200  0.02652  Biso   1.000  C
  C116     1.0000 0.87569  0.40240  0.00659  Biso   1.000  C
  H108     1.0000 0.81161  0.44190  0.95378  Biso   1.000  H
  C117     1.0000 0.60209  0.03171  0.15011  Biso   1.000  C
  C118     1.0000 0.60220  0.03470  0.14198  Biso   1.000  C
  H109     1.0000 0.57368  0.98501  0.19571  Biso   1.000  H
  H110     1.0000 0.57380  0.98668  0.19728  Biso   1.000  H
  C119     1.0000 0.69501  0.02911  0.11750  Biso   1.000  C
  H111     1.0000 0.76427  0.97880  0.15348  Biso   1.000  H
  H112     1.0000 0.89007  0.87630  0.21100  Biso   1.000  H
  H113     1.0000 0.84077  0.88691  0.15911  Biso   1.000  H
  H114     1.0000 0.80480  0.87360  0.20951  Biso   1.000  H
  H115     1.0000 0.02525  0.97511  0.34501  Biso   1.000  H
  H116     1.0000 0.05926  0.97170  0.34042  Biso   1.000  H
  C120     1.0000 0.05308  0.02789  0.29910  Biso   1.000  C
  C121     1.0000 0.07599  0.03319  0.30539  Biso   1.000  C
  H117     1.0000 0.96091  0.44691  0.01659  Biso   1.000  H
  C122     1.0000 0.13666  0.08108  0.29178  Biso   1.000  C
  C123     1.0000 0.16106  0.08739  0.29631  Biso   1.000  C
  H118     1.0000 0.23938  0.10640  0.31712  Biso   1.000  H
  C124     1.0000 0.07939  0.09720  0.26182  Biso   1.000  C
  C125     1.0000 0.10389  0.10389  0.26661  Biso   1.000  C
  H119     1.0000 0.27019  0.10739  0.31141  Biso   1.000  H
  C126     1.0000 0.53810  0.03509  0.12041  Biso   1.000  C
  C127     1.0000 0.53469  0.04799  0.12482  Biso   1.000  C
  S14      1.0000 0.65898  0.07510  0.14018  Biso   1.000  S
  S15      1.0000 0.64388  0.06790  0.14589  Biso   1.000  S
  S16      1.0000 0.67581  0.05979  0.11880  Biso   1.000  S
  C128     1.0000 0.70072  0.04001  0.06741  Biso   1.000  C
  C129     1.0000 0.11959  0.04139  0.31631  Biso   1.000  C
  S17      1.0000 0.00655  0.06349  0.25680  Biso   1.000  S
  S18      1.0000 0.03048  0.07230  0.26611  Biso   1.000  S
  C130     1.0000 0.14595  0.04542  0.31558  Biso   1.000  C
  H120     1.0000 0.49880  0.01570  0.11899  Biso   1.000  H
  H121     1.0000 0.49197  0.03618  0.13551  Biso   1.000  H
  O1       1.0000 0.72219  0.04529  0.01541  Biso   1.000  O
  H122     1.0000 0.72629  0.02300  0.04530  Biso   1.000  H
  H123     1.0000 0.15087  0.02670  0.34118  Biso   1.000  H
  H124     1.0000 0.18128  0.02779  0.33379  Biso   1.000  H
  C131     1.0000 0.41726  0.49641  0.53068  Biso   1.000  C
  C132     1.0000 0.40094  0.53671  0.55900  Biso   1.000  C
  H125     1.0000 0.38557  0.49461  0.49861  Biso   1.000  H
  H126     1.0000 0.46726  0.49699  0.52290  Biso   1.000  H
  H127     1.0000 0.40952  0.47120  0.55199  Biso   1.000  H
  C133     1.0000 0.41817  0.57878  0.53409  Biso   1.000  C
  H128     1.0000 0.34934  0.53659  0.56379  Biso   1.000  H
  H129     1.0000 0.42796  0.53569  0.59338  Biso   1.000  H
  C134     1.0000 0.48197  0.59869  0.54509  Biso   1.000  C
  C135     1.0000 0.36443  0.59879  0.50010  Biso   1.000  C
  C136     1.0000 0.49793  0.63999  0.52359  Biso   1.000  C
  C137     1.0000 0.54333  0.57499  0.57690  Biso   1.000  C
  C138     1.0000 0.37655  0.63890  0.47929  Biso   1.000  C
  C139     1.0000 0.29914  0.57409  0.48320  Biso   1.000  C
  C140     1.0000 0.44254  0.65961  0.49041  Biso   1.000  C
  C141     1.0000 0.56885  0.66109  0.53521  Biso   1.000  C
  H130     1.0000 0.58775  0.58039  0.56061  Biso   1.000  H
  H131     1.0000 0.53337  0.54379  0.57391  Biso   1.000  H
  N15      1.0000 0.55886  0.58509  0.63281  Biso   1.000  N
  C142     1.0000 0.31705  0.66128  0.44419  Biso   1.000  C
  H132     1.0000 0.31295  0.54340  0.48259  Biso   1.000  H
  H133     1.0000 0.28395  0.58252  0.44730  Biso   1.000  H
  N16      1.0000 0.23657  0.57711  0.51129  Biso   1.000  N
  C143     1.0000 0.45835  0.70271  0.46561  Biso   1.000  C
  H134     1.0000 0.56204  0.69261  0.53601  Biso   1.000  H
  H135     1.0000 0.58996  0.65189  0.56970  Biso   1.000  H
  C144     1.0000 0.62134  0.64980  0.49520  Biso   1.000  C
  C145     1.0000 0.52485  0.61490  0.65328  Biso   1.000  C
  H136     1.0000 0.26974  0.65189  0.45370  Biso   1.000  H
  H137     1.0000 0.32065  0.69280  0.44921  Biso   1.000  H
  C146     1.0000 0.32265  0.65041  0.38598  Biso   1.000  C
  C147     1.0000 0.23466  0.60210  0.55011  Biso   1.000  C
  H138     1.0000 0.44234  0.70149  0.42848  Biso   1.000  H
  H139     1.0000 0.51066  0.70789  0.46971  Biso   1.000  H
  N17      1.0000 0.42217  0.73825  0.48876  Biso   1.000  N
  H140     1.0000 0.60005  0.65810  0.46101  Biso   1.000  H
  H141     1.0000 0.66637  0.66540  0.50351  Biso   1.000  H
  H142     1.0000 0.63077  0.61880  0.49600  Biso   1.000  H
  C148     1.0000 0.54142  0.62298  0.70861  Biso   1.000  C
  H143     1.0000 0.48962  0.63150  0.63350  Biso   1.000  H
  H144     1.0000 0.28385  0.66489  0.36471  Biso   1.000  H
  H145     1.0000 0.36898  0.66038  0.37628  Biso   1.000  H
  H146     1.0000 0.31867  0.61931  0.38088  Biso   1.000  H
  H147     1.0000 0.27405  0.62012  0.56138  Biso   1.000  H
  C149     1.0000 0.17027  0.60210  0.57590  Biso   1.000  C
  C150     1.0000 0.46227  0.76871  0.50420  Biso   1.000  C
  C151     1.0000 0.51435  0.65218  0.73950  Biso   1.000  C
  S19      1.0000 0.60805  0.59110  0.74077  Biso   1.000  S
  C152     1.0000 0.15283  0.62761  0.61488  Biso   1.000  C
  S20      1.0000 0.10378  0.56650  0.55360  Biso   1.000  S
  C153     1.0000 0.43255  0.80969  0.52340  Biso   1.000  C
  H148     1.0000 0.51257  0.76591  0.50359  Biso   1.000  H
  C154     1.0000 0.54292  0.64819  0.79208  Biso   1.000  C
  H149     1.0000 0.47982  0.67319  0.72758  Biso   1.000  H
  C155     1.0000 0.59635  0.61738  0.79767  Biso   1.000  C
  H150     1.0000 0.18296  0.64929  0.63101  Biso   1.000  H
  C156     1.0000 0.08255  0.61741  0.62829  Biso   1.000  C
  C157     1.0000 0.04971  0.58541  0.59748  Biso   1.000  C
  C158     1.0000 0.46934  0.84561  0.54061  Biso   1.000  C
  S21      1.0000 0.34137  0.81564  0.52003  Biso   1.000  S
  C159     1.0000 0.53211  0.66614  0.84079  Biso   1.000  C
  S22      1.0000 0.63240  0.60985  0.85926  Biso   1.000  S
  C160     1.0000 0.03494  0.63259  0.66378  Biso   1.000  C
  S23      1.0000 0.96449  0.57441  0.60963  Biso   1.000  S
  C161     1.0000 0.42276  0.87929  0.55038  Biso   1.000  C
  H151     1.0000 0.52004  0.84751  0.54540  Biso   1.000  H
  C162     1.0000 0.35226  0.86810  0.54088  Biso   1.000  C
  C163     1.0000 0.57421  0.64855  0.88011  Biso   1.000  C
  H152     1.0000 0.49843  0.68830  0.84508  Biso   1.000  H
  H153     1.0000 0.04745  0.65411  0.68880  Biso   1.000  H
  C164     1.0000 0.97111  0.61320  0.65768  Biso   1.000  C
  C165     1.0000 0.42977  0.92409  0.56609  Biso   1.000  C
  S24      1.0000 0.29418  0.90901  0.55069  Biso   1.000  S
  C166     1.0000 0.57930  0.65810  0.93418  Biso   1.000  C
  C167     1.0000 0.90813  0.62102  0.68478  Biso   1.000  C
  C168     1.0000 0.36433  0.94349  0.56548  Biso   1.000  C
  H154     1.0000 0.47415  0.93808  0.57541  Biso   1.000  H
  H155     1.0000 0.54751  0.67820  0.94709  Biso   1.000  H
  N18      1.0000 0.62751  0.63906  0.96487  Biso   1.000  N
  H156     1.0000 0.90944  0.64051  0.71268  Biso   1.000  H
  N19      1.0000 0.85045  0.60011  0.66891  Biso   1.000  N
  C169     1.0000 0.35015  0.98890  0.57901  Biso   1.000  C
  C170     1.0000 0.63613  0.65045  0.02010  Biso   1.000  C
  C171     1.0000 0.78294  0.60519  0.69378  Biso   1.000  C
  H157     1.0000 0.38985  0.00749  0.58729  Biso   1.000  H
  N20      1.0000 0.28892  0.00357  0.57989  Biso   1.000  N
  C172     1.0000 0.57482  0.67367  0.04259  Biso   1.000  C
  H158     1.0000 0.64585  0.62349  0.03983  Biso   1.000  H
  H159     1.0000 0.67943  0.66871  0.02642  Biso   1.000  H
  C173     1.0000 0.78552  0.63591  0.74008  Biso   1.000  C
  H160     1.0000 0.74506  0.61552  0.66749  Biso   1.000  H
  H161     1.0000 0.76822  0.57640  0.70509  Biso   1.000  H
  C174     1.0000 0.28322  0.04821  0.59499  Biso   1.000  C
  C175     1.0000 0.57430  0.71841  0.04416  Biso   1.000  C
  C176     1.0000 0.52163  0.64842  0.06263  Biso   1.000  C
  C177     1.0000 0.76121  0.67869  0.73509  Biso   1.000  C
  C178     1.0000 0.80900  0.61860  0.78798  Biso   1.000  C
  C179     1.0000 0.24744  0.05182  0.64339  Biso   1.000  C
  H162     1.0000 0.33165  0.06111  0.60028  Biso   1.000  H
  H163     1.0000 0.25513  0.06430  0.56721  Biso   1.000  H
  C180     1.0000 0.52114  0.73912  0.06919  Biso   1.000  C
  C181     1.0000 0.63081  0.74459  0.02090  Biso   1.000  C
  C182     1.0000 0.46822  0.67007  0.08701  Biso   1.000  C
  C183     1.0000 0.52210  0.60043  0.05773  Biso   1.000  C
  C184     1.0000 0.76023  0.70451  0.77890  Biso   1.000  C
  C185     1.0000 0.74384  0.69978  0.67861  Biso   1.000  C
  C186     1.0000 0.80952  0.64559  0.83178  Biso   1.000  C
  C187     1.0000 0.83724  0.57290  0.79288  Biso   1.000  C
  C188     1.0000 0.29205  0.05268  0.69010  Biso   1.000  C
  C189     1.0000 0.17345  0.05400  0.64151  Biso   1.000  C
  C190     1.0000 0.46811  0.71558  0.09030  Biso   1.000  C
  C191     1.0000 0.52219  0.78795  0.07390  Biso   1.000  C
  H164     1.0000 0.64608  0.72870  0.99128  Biso   1.000  H
  H165     1.0000 0.60893  0.77199  0.00772  Biso   1.000  H
  C192     1.0000 0.69651  0.75511  0.05731  Biso   1.000  C
  C193     1.0000 0.40891  0.64491  0.10781  Biso   1.000  C
  H166     1.0000 0.47211  0.58978  0.05420  Biso   1.000  H
  H167     1.0000 0.54363  0.59262  0.02611  Biso   1.000  H
  C194     1.0000 0.56410  0.57798  0.10371  Biso   1.000  C
  C195     1.0000 0.78554  0.68891  0.82619  Biso   1.000  C
  C196     1.0000 0.72912  0.74970  0.77441  Biso   1.000  C
  H168     1.0000 0.77093  0.68489  0.65339  Biso   1.000  H
  H169     1.0000 0.75654  0.73069  0.67918  Biso   1.000  H
  C197     1.0000 0.66703  0.69400  0.66600  Biso   1.000  C
  C198     1.0000 0.83342  0.62738  0.88409  Biso   1.000  C
  H170     1.0000 0.85961  0.56550  0.76150  Biso   1.000  H
  H171     1.0000 0.87501  0.57152  0.82209  Biso   1.000  H
  C199     1.0000 0.77840  0.53890  0.80108  Biso   1.000  C
  C200     1.0000 0.26441  0.05580  0.73368  Biso   1.000  C
  C201     1.0000 0.37245  0.04860  0.69221  Biso   1.000  C
  C202     1.0000 0.14361  0.05761  0.68861  Biso   1.000  C
  C203     1.0000 0.12703  0.05358  0.59039  Biso   1.000  C
  C204     1.0000 0.40999  0.73816  0.11751  Biso   1.000  C
  H172     1.0000 0.57244  0.79811  0.07551  Biso   1.000  H
  H173     1.0000 0.50329  0.79631  0.10640  Biso   1.000  H
  N21      1.0000 0.48003  0.80904  0.03125  Biso   1.000  N
  H174     1.0000 0.72754  0.77479  0.04052  Biso   1.000  H
  H175     1.0000 0.68181  0.76871  0.08823  Biso   1.000  H
  H176     1.0000 0.72274  0.72851  0.06670  Biso   1.000  H
  H177     1.0000 0.39954  0.65681  0.14142  Biso   1.000  H
  H178     1.0000 0.42373  0.61449  0.11272  Biso   1.000  H
  N22      1.0000 0.34261  0.64723  0.07175  Biso   1.000  N
  H179     1.0000 0.56311  0.54681  0.09831  Biso   1.000  H
  H180     1.0000 0.61381  0.58811  0.10720  Biso   1.000  H
  H181     1.0000 0.54199  0.58480  0.13502  Biso   1.000  H
  C205     1.0000 0.79432  0.71809  0.87221  Biso   1.000  C
  H182     1.0000 0.71132  0.75800  0.80718  Biso   1.000  H
  H183     1.0000 0.68815  0.75031  0.74740  Biso   1.000  H
  N23      1.0000 0.78512  0.78151  0.76131  Biso   1.000  N
  H184     1.0000 0.70193  0.75501  0.80411  Biso   1.000  H
  H185     1.0000 0.69483  0.75121  0.74310  Biso   1.000  H
  N24      1.0000 0.78320  0.78489  0.77200  Biso   1.000  N
  H186     1.0000 0.65396  0.70191  0.63009  Biso   1.000  H
  H187     1.0000 0.65456  0.66379  0.67110  Biso   1.000  H
  H188     1.0000 0.64115  0.71230  0.68819  Biso   1.000  H
  H189     1.0000 0.82319  0.59609  0.88409  Biso   1.000  H
  H190     1.0000 0.80558  0.64109  0.90969  Biso   1.000  H
  N25      1.0000 0.90944  0.63417  0.89896  Biso   1.000  N
  H191     1.0000 0.74360  0.53781  0.77070  Biso   1.000  H
  H192     1.0000 0.80081  0.51060  0.80691  Biso   1.000  H
  H193     1.0000 0.75412  0.54691  0.83098  Biso   1.000  H
  C206     1.0000 0.19362  0.05841  0.73548  Biso   1.000  C
  C207     1.0000 0.31224  0.05979  0.78568  Biso   1.000  C
  H194     1.0000 0.39035  0.03261  0.72360  Biso   1.000  H
  H195     1.0000 0.38455  0.03158  0.66240  Biso   1.000  H
  C208     1.0000 0.41203  0.09350  0.69221  Biso   1.000  C
  C209     1.0000 0.06541  0.06031  0.68961  Biso   1.000  C
  H196     1.0000 0.15177  0.03708  0.56510  Biso   1.000  H
  H197     1.0000 0.08125  0.03879  0.59461  Biso   1.000  H
  C210     1.0000 0.11135  0.09881  0.56989  Biso   1.000  C
  H198     1.0000 0.36610  0.72030  0.11452  Biso   1.000  H
  H199     1.0000 0.39822  0.76620  0.10092  Biso   1.000  H
  C211     1.0000 0.43541  0.74530  0.17411  Biso   1.000  C
  C212     1.0000 0.51575  0.83294  0.00565  Biso   1.000  C
  C213     1.0000 0.40534  0.82738  0.03443  Biso   1.000  C
  C214     1.0000 0.30522  0.61439  0.06581  Biso   1.000  C
  H200     1.0000 0.83604  0.70840  0.89559  Biso   1.000  H
  H201     1.0000 0.80449  0.74771  0.86079  Biso   1.000  H
  C215     1.0000 0.72733  0.71921  0.90218  Biso   1.000  C
  C216     1.0000 0.76980  0.81609  0.73709  Biso   1.000  C
  C217     1.0000 0.75014  0.81371  0.74479  Biso   1.000  C
  C218     1.0000 0.94344  0.60439  0.92161  Biso   1.000  C
  C219     1.0000 0.15761  0.06159  0.78710  Biso   1.000  C
  H202     1.0000 0.28961  0.07989  0.80860  Biso   1.000  H
  H203     1.0000 0.35964  0.07160  0.77978  Biso   1.000  H
  N26      1.0000 0.32124  0.01640  0.81078  Biso   1.000  N
  H204     1.0000 0.40394  0.10640  0.65799  Biso   1.000  H
  H205     1.0000 0.39310  0.11270  0.71720  Biso   1.000  H
  H206     1.0000 0.46345  0.08929  0.70129  Biso   1.000  H
  H207     1.0000 0.04086  0.06368  0.65458  Biso   1.000  H
  H208     1.0000 0.05232  0.08459  0.71110  Biso   1.000  H
  N27      1.0000 0.04825  0.02091  0.71091  Biso   1.000  N
  H209     1.0000 0.05530  0.08160  0.71589  Biso   1.000  H
  H210     1.0000 0.04426  0.07140  0.65600  Biso   1.000  H
  N28      1.0000 0.02743  0.01792  0.70060  Biso   1.000  N
  H211     1.0000 0.08047  0.09720  0.53751  Biso   1.000  H
  H212     1.0000 0.08716  0.11531  0.59491  Biso   1.000  H
  H213     1.0000 0.15643  0.11309  0.56418  Biso   1.000  H
  H214     1.0000 0.47712  0.76450  0.17710  Biso   1.000  H
  H215     1.0000 0.39671  0.75839  0.19120  Biso   1.000  H
  H216     1.0000 0.44873  0.71770  0.19032  Biso   1.000  H
  C220     1.0000 0.48084  0.86382  0.96675  Biso   1.000  C
  C221     1.0000 0.47500  0.86511  0.96909  Biso   1.000  C
  H217     1.0000 0.56651  0.83159  0.01082  Biso   1.000  H
  H218     1.0000 0.56651  0.83130  0.00860  Biso   1.000  H
  C222     1.0000 0.38490  0.86012  0.99239  Biso   1.000  C
  H219     1.0000 0.37511  0.81930  0.05961  Biso   1.000  H
  H220     1.0000 0.32051  0.58869  0.08321  Biso   1.000  H
  C223     1.0000 0.23710  0.61455  0.03221  Biso   1.000  C
  H221     1.0000 0.68611  0.72989  0.87968  Biso   1.000  H
  H222     1.0000 0.71721  0.69020  0.91398  Biso   1.000  H
  H223     1.0000 0.73630  0.73841  0.93188  Biso   1.000  H
  C224     1.0000 0.81671  0.85459  0.73628  Biso   1.000  C
  H224     1.0000 0.72425  0.81760  0.71781  Biso   1.000  H
  C225     1.0000 0.79702  0.84851  0.72640  Biso   1.000  C
  H225     1.0000 0.69963  0.81329  0.73651  Biso   1.000  H
  C226     1.0000 0.01770  0.60802  0.94169  Biso   1.000  C
  H226     1.0000 0.91950  0.57788  0.92590  Biso   1.000  H
  H227     1.0000 0.10844  0.04979  0.78219  Biso   1.000  H
  H228     1.0000 0.18562  0.04480  0.81431  Biso   1.000  H
  C227     1.0000 0.15523  0.11090  0.80338  Biso   1.000  C
  C228     1.0000 0.38773  0.00190  0.81940  Biso   1.000  C
  C229     1.0000 0.27990  0.00679  0.84470  Biso   1.000  C
  C230     1.0000 0.99074  0.00949  0.68520  Biso   1.000  C
  C231     1.0000 0.96503  0.00830  0.68271  Biso   1.000  C
  C232     1.0000 0.50193  0.90110  0.94640  Biso   1.000  C
  S25      1.0000 0.41050  0.85610  0.93069  Biso   1.000  S
  C233     1.0000 0.51682  0.89190  0.94261  Biso   1.000  C
  S26      1.0000 0.38111  0.86729  0.96139  Biso   1.000  S
  S27      1.0000 0.39570  0.85321  0.93920  Biso   1.000  S
  C234     1.0000 0.34481  0.89621  0.99729  Biso   1.000  C
  S28      1.0000 0.21617  0.66051  0.99499  Biso   1.000  S
  C235     1.0000 0.18534  0.58470  0.02822  Biso   1.000  C
  C236     1.0000 0.80362  0.88939  0.70459  Biso   1.000  C
  S29      1.0000 0.90375  0.85369  0.76548  Biso   1.000  S
  C237     1.0000 0.77670  0.88559  0.70298  Biso   1.000  C
  S30      1.0000 0.88094  0.84600  0.75908  Biso   1.000  S
  C238     1.0000 0.05591  0.58059  0.97430  Biso   1.000  C
  S31      1.0000 0.06377  0.65559  0.93169  Biso   1.000  S
  H229     1.0000 0.10985  0.12370  0.78901  Biso   1.000  H
  H230     1.0000 0.15910  0.11309  0.84090  Biso   1.000  H
  H231     1.0000 0.19512  0.12640  0.79051  Biso   1.000  H
  C239     1.0000 0.39783  0.96829  0.84991  Biso   1.000  C
  C240     1.0000 0.39772  0.96530  0.85799  Biso   1.000  C
  H232     1.0000 0.42624  0.01499  0.80430  Biso   1.000  H
  H233     1.0000 0.42611  0.01332  0.80269  Biso   1.000  H
  C241     1.0000 0.30491  0.97089  0.88248  Biso   1.000  C
  H234     1.0000 0.23564  0.02120  0.84650  Biso   1.000  H
  C242     1.0000 0.94683  0.97211  0.70091  Biso   1.000  C
  H235     1.0000 0.97461  0.02489  0.65500  Biso   1.000  H
  H236     1.0000 0.94066  0.02830  0.65960  Biso   1.000  H
  C243     1.0000 0.92393  0.96681  0.69459  Biso   1.000  C
  H237     1.0000 0.54821  0.91200  0.95748  Biso   1.000  H
  C244     1.0000 0.45691  0.92509  0.90869  Biso   1.000  C
  H238     1.0000 0.56750  0.89341  0.94391  Biso   1.000  H
  C245     1.0000 0.46309  0.91711  0.91241  Biso   1.000  C
  C246     1.0000 0.39780  0.89920  0.90398  Biso   1.000  C
  C247     1.0000 0.38952  0.90940  0.91709  Biso   1.000  C
  C248     1.0000 0.36813  0.90270  0.90980  Biso   1.000  C
  C249     1.0000 0.33580  0.92020  0.94928  Biso   1.000  C
  H239     1.0000 0.32553  0.90451  0.02791  Biso   1.000  H
  C250     1.0000 0.13552  0.63800  0.97350  Biso   1.000  C
  C251     1.0000 0.12423  0.59760  0.99339  Biso   1.000  C
  H240     1.0000 0.18831  0.55810  0.04623  Biso   1.000  H
  C252     1.0000 0.86326  0.91892  0.70819  Biso   1.000  C
  H241     1.0000 0.76054  0.89360  0.68290  Biso   1.000  H
  C253     1.0000 0.83886  0.91261  0.70371  Biso   1.000  C
  C254     1.0000 0.92053  0.90280  0.73820  Biso   1.000  C
  C255     1.0000 0.89603  0.89611  0.73341  Biso   1.000  C
  H242     1.0000 0.72973  0.89261  0.68861  Biso   1.000  H
  H243     1.0000 0.03901  0.55309  0.98338  Biso   1.000  H
  C256     1.0000 0.46182  0.96491  0.87961  Biso   1.000  C
  S32      1.0000 0.34094  0.92490  0.85979  Biso   1.000  S
  C257     1.0000 0.46523  0.95201  0.87520  Biso   1.000  C
  S33      1.0000 0.35604  0.93210  0.85408  Biso   1.000  S
  S34      1.0000 0.32410  0.94021  0.88118  Biso   1.000  S
  C258     1.0000 0.29920  0.95999  0.93261  Biso   1.000  C
  C259     1.0000 0.88033  0.95861  0.68370  Biso   1.000  C
  S35      1.0000 0.99331  0.93651  0.74318  Biso   1.000  S
  S36      1.0000 0.96944  0.92770  0.73391  Biso   1.000  S
  C260     1.0000 0.85391  0.95458  0.68439  Biso   1.000  C
  H244     1.0000 0.50111  0.98430  0.88099  Biso   1.000  H
  H245     1.0000 0.50789  0.96382  0.86451  Biso   1.000  H
  O2       1.0000 0.27768  0.95471  0.98461  Biso   1.000  O
  H246     1.0000 0.27363  0.97700  0.95468  Biso   1.000  H
  H247     1.0000 0.84904  0.97330  0.65879  Biso   1.000  H
  H248     1.0000 0.81863  0.97221  0.66619  Biso   1.000  H
  O3       1.0000 0.77777  0.54530  0.48458  Biso   1.000  O
  C261     1.0000 0.79924  0.54000  0.43258  Biso   1.000  C
  H249     1.0000 0.77367  0.52301  0.45469  Biso   1.000  H
  C262     1.0000 0.80495  0.52909  0.38249  Biso   1.000  C
  S37      1.0000 0.82415  0.55981  0.38119  Biso   1.000  S
  C263     1.0000 0.83584  0.57981  0.44929  Biso   1.000  C
  C264     1.0000 0.77995  0.49320  0.34471  Biso   1.000  C
  S38      1.0000 0.84098  0.57509  0.35981  Biso   1.000  S
  S39      1.0000 0.85608  0.56791  0.35410  Biso   1.000  S
  C265     1.0000 0.89787  0.53170  0.34988  Biso   1.000  C
  C266     1.0000 0.89776  0.53469  0.35800  Biso   1.000  C
  C267     1.0000 0.89785  0.60078  0.40399  Biso   1.000  C
  C268     1.0000 0.88957  0.59059  0.41710  Biso   1.000  C
  C269     1.0000 0.86817  0.59731  0.40978  Biso   1.000  C
  S40      1.0000 0.88116  0.63272  0.46140  Biso   1.000  S
  C270     1.0000 0.84485  0.60381  0.49731  Biso   1.000  C
  N29      1.0000 0.82128  0.48361  0.31079  Biso   1.000  N
  H250     1.0000 0.73568  0.47879  0.34651  Biso   1.000  H
  C271     1.0000 0.88777  0.49809  0.31941  Biso   1.000  C
  C272     1.0000 0.96186  0.53511  0.37958  Biso   1.000  C
  C273     1.0000 0.96527  0.54800  0.37521  Biso   1.000  C
  C274     1.0000 0.95695  0.57489  0.40871  Biso   1.000  C
  C275     1.0000 0.96318  0.58290  0.41238  Biso   1.000  C
  S41      1.0000 0.91054  0.64388  0.43070  Biso   1.000  S
  S42      1.0000 0.89574  0.64681  0.43921  Biso   1.000  S
  C276     1.0000 0.98089  0.63616  0.46676  Biso   1.000  C
  C277     1.0000 0.97505  0.63491  0.46910  Biso   1.000  C
  C278     1.0000 0.88494  0.63990  0.49240  Biso   1.000  C
  H251     1.0000 0.82546  0.59551  0.52789  Biso   1.000  H
  C279     1.0000 0.81228  0.44019  0.28569  Biso   1.000  C
  H252     1.0000 0.92628  0.48500  0.30432  Biso   1.000  H
  H253     1.0000 0.92615  0.48670  0.30271  Biso   1.000  H
  H254     1.0000 0.00115  0.51571  0.38100  Biso   1.000  H
  H255     1.0000 0.00798  0.53620  0.36448  Biso   1.000  H
  C280     1.0000 0.00197  0.59889  0.44641  Biso   1.000  C
  C281     1.0000 0.01686  0.60809  0.44258  Biso   1.000  C
  C282     1.0000 0.01563  0.66707  0.50562  Biso   1.000  C
  C283     1.0000 0.90522  0.67264  0.53440  Biso   1.000  C
  C284     1.0000 0.76445  0.44421  0.23369  Biso   1.000  C
  H256     1.0000 0.78965  0.42009  0.30861  Biso   1.000  H
  H257     1.0000 0.85968  0.42839  0.27979  Biso   1.000  H
  H258     1.0000 0.04825  0.58802  0.45749  Biso   1.000  H
  H259     1.0000 0.06754  0.60661  0.44388  Biso   1.000  H
  N30      1.0000 0.97997  0.69097  0.53122  Biso   1.000  N
  H260     1.0000 0.06644  0.66839  0.51080  Biso   1.000  H
  H261     1.0000 0.06644  0.66871  0.50861  Biso   1.000  H
  H262     1.0000 0.87504  0.68071  0.55958  Biso   1.000  H
  C285     1.0000 0.69367  0.44161  0.23549  Biso   1.000  C
  C286     1.0000 0.79209  0.44730  0.19012  Biso   1.000  C
  C287     1.0000 0.02213  0.71207  0.57391  Biso   1.000  C
  C288     1.0000 0.64370  0.44241  0.18858  Biso   1.000  C
  C289     1.0000 0.65766  0.43839  0.28711  Biso   1.000  C
  C290     1.0000 0.74748  0.44817  0.14340  Biso   1.000  C
  C291     1.0000 0.87249  0.45138  0.19219  Biso   1.000  C
  C292     1.0000 0.02102  0.76090  0.56916  Biso   1.000  C
  H263     1.0000 0.07232  0.70191  0.57548  Biso   1.000  H
  H264     1.0000 0.00323  0.70371  0.60641  Biso   1.000  H
  C293     1.0000 0.56551  0.43971  0.18962  Biso   1.000  C
  C294     1.0000 0.67349  0.44601  0.14149  Biso   1.000  C
  H265     1.0000 0.60848  0.45019  0.28220  Biso   1.000  H
  H266     1.0000 0.68565  0.45521  0.31428  Biso   1.000  H
  C295     1.0000 0.65527  0.38912  0.30340  Biso   1.000  C
  C296     1.0000 0.78331  0.45180  0.09500  Biso   1.000  C
  H267     1.0000 0.89040  0.46740  0.22361  Biso   1.000  H
  H268     1.0000 0.88460  0.46840  0.16241  Biso   1.000  H
  C297     1.0000 0.91206  0.40648  0.19219  Biso   1.000  C
  C298     1.0000 0.96804  0.78441  0.59028  Biso   1.000  C
  C299     1.0000 0.07424  0.78161  0.54414  Biso   1.000  C
  H269     1.0000 0.54090  0.43630  0.15459  Biso   1.000  H
  H270     1.0000 0.55237  0.41539  0.21112  Biso   1.000  H
  N31      1.0000 0.54828  0.47911  0.21089  Biso   1.000  N
  H271     1.0000 0.55540  0.41838  0.21591  Biso   1.000  H
  H272     1.0000 0.54430  0.42861  0.15601  Biso   1.000  H
  N32      1.0000 0.52747  0.48210  0.20062  Biso   1.000  N
  C300     1.0000 0.62708  0.44640  0.09040  Biso   1.000  C
  H273     1.0000 0.60989  0.37631  0.28899  Biso   1.000  H
  H274     1.0000 0.65919  0.38690  0.34091  Biso   1.000  H
  H275     1.0000 0.69516  0.37361  0.29048  Biso   1.000  H
  H276     1.0000 0.83169  0.43891  0.10029  Biso   1.000  H
  H277     1.0000 0.75518  0.43569  0.06722  Biso   1.000  H
  N33      1.0000 0.78902  0.49641  0.07990  Biso   1.000  N
  H278     1.0000 0.90399  0.39359  0.15800  Biso   1.000  H
  H279     1.0000 0.89320  0.38731  0.21721  Biso   1.000  H
  H280     1.0000 0.96350  0.41070  0.20131  Biso   1.000  H
  C301     1.0000 0.96815  0.82992  0.58698  Biso   1.000  C
  C302     1.0000 0.90992  0.76186  0.61748  Biso   1.000  C
  C303     1.0000 0.07475  0.82635  0.54256  Biso   1.000  C
  C304     1.0000 0.13075  0.75540  0.52091  Biso   1.000  C
  C305     1.0000 0.49079  0.49050  0.18521  Biso   1.000  C
  C306     1.0000 0.46507  0.49169  0.18268  Biso   1.000  C
  H281     1.0000 0.65181  0.46290  0.06511  Biso   1.000  H
  H282     1.0000 0.58130  0.46119  0.09462  Biso   1.000  H
  C307     1.0000 0.61139  0.40121  0.06990  Biso   1.000  C
  C308     1.0000 0.85019  0.51111  0.07898  Biso   1.000  C
  C309     1.0000 0.90884  0.85510  0.60779  Biso   1.000  C
  C310     1.0000 0.02156  0.85160  0.56261  Biso   1.000  C
  H283     1.0000 0.86603  0.77971  0.61449  Biso   1.000  H
  H284     1.0000 0.89815  0.73381  0.60089  Biso   1.000  H
  C311     1.0000 0.93535  0.75469  0.67409  Biso   1.000  C
  C312     1.0000 0.13606  0.84957  0.52011  Biso   1.000  C
  H285     1.0000 0.10887  0.72799  0.50769  Biso   1.000  H
  H286     1.0000 0.14618  0.77128  0.49129  Biso   1.000  H
  C313     1.0000 0.19645  0.74491  0.55728  Biso   1.000  C
  H287     1.0000 0.47471  0.47509  0.15501  Biso   1.000  H
  C314     1.0000 0.44687  0.52790  0.20088  Biso   1.000  C
  H288     1.0000 0.44070  0.47171  0.15961  Biso   1.000  H
  C315     1.0000 0.42397  0.53321  0.19460  Biso   1.000  C
  H289     1.0000 0.58051  0.40279  0.03752  Biso   1.000  H
  H290     1.0000 0.58720  0.38471  0.09489  Biso   1.000  H
  H291     1.0000 0.65648  0.38690  0.06419  Biso   1.000  H
  H292     1.0000 0.88989  0.49249  0.08730  Biso   1.000  H
  C316     1.0000 0.86438  0.55650  0.06549  Biso   1.000  C
  H293     1.0000 0.89942  0.84320  0.64140  Biso   1.000  H
  H294     1.0000 0.92366  0.88550  0.61269  Biso   1.000  H
  N34      1.0000 0.84254  0.85279  0.57173  Biso   1.000  N
  C317     1.0000 0.02203  0.89959  0.55770  Biso   1.000  C
  H295     1.0000 0.97706  0.73549  0.67711  Biso   1.000  H
  H296     1.0000 0.89664  0.74160  0.69118  Biso   1.000  H
  H297     1.0000 0.94866  0.78228  0.69030  Biso   1.000  H
  H298     1.0000 0.14572  0.87649  0.53980  Biso   1.000  H
  H299     1.0000 0.17936  0.83130  0.52639  Biso   1.000  H
  N35      1.0000 0.12756  0.86092  0.46489  Biso   1.000  N
  H300     1.0000 0.22747  0.72519  0.54049  Biso   1.000  H
  H301     1.0000 0.18174  0.73130  0.58821  Biso   1.000  H
  H302     1.0000 0.22263  0.77151  0.56671  Biso   1.000  H
  C318     1.0000 0.38038  0.54141  0.18372  Biso   1.000  C
  S43      1.0000 0.49335  0.56351  0.24319  Biso   1.000  S
  S44      1.0000 0.46948  0.57229  0.23388  Biso   1.000  S
  C319     1.0000 0.35401  0.54540  0.18441  Biso   1.000  C
  C320     1.0000 0.92981  0.57589  0.06611  Biso   1.000  C
  S45      1.0000 0.79423  0.59097  0.05070  Biso   1.000  S
  C321     1.0000 0.80515  0.88559  0.56579  Biso   1.000  C
  H303     1.0000 0.97205  0.91020  0.55421  Biso   1.000  H
  H304     1.0000 0.04356  0.90740  0.52609  Biso   1.000  H
  C322     1.0000 0.06403  0.92204  0.60369  Biso   1.000  C
  C323     1.0000 0.07935  0.84192  0.43419  Biso   1.000  C
  H305     1.0000 0.34909  0.52671  0.15881  Biso   1.000  H
  C324     1.0000 0.36330  0.58110  0.20820  Biso   1.000  C
  H306     1.0000 0.31868  0.52781  0.16620  Biso   1.000  H
  C325     1.0000 0.33889  0.58740  0.20368  Biso   1.000  C
  C326     1.0000 0.42057  0.59721  0.23821  Biso   1.000  C
  C327     1.0000 0.39607  0.60390  0.23338  Biso   1.000  C
  H307     1.0000 0.97419  0.56190  0.07542  Biso   1.000  H
  C328     1.0000 0.92281  0.62069  0.05039  Biso   1.000  C
  C329     1.0000 0.85230  0.63189  0.04089  Biso   1.000  C
  H308     1.0000 0.82045  0.91129  0.58319  Biso   1.000  H
  C330     1.0000 0.73703  0.88547  0.53218  Biso   1.000  C
  H309     1.0000 0.06304  0.95320  0.59828  Biso   1.000  H
  H310     1.0000 0.11375  0.91190  0.60721  Biso   1.000  H
  H311     1.0000 0.04192  0.91518  0.63500  Biso   1.000  H
  H312     1.0000 0.04755  0.82181  0.44710  Biso   1.000  H
  C331     1.0000 0.07425  0.85147  0.38008  Biso   1.000  C
  C332     1.0000 0.30366  0.61059  0.20460  Biso   1.000  C
  C333     1.0000 0.27680  0.61439  0.20299  Biso   1.000  C
  S46      1.0000 0.40379  0.64630  0.26550  Biso   1.000  S
  S47      1.0000 0.38098  0.65402  0.25910  Biso   1.000  S
  C334     1.0000 0.96938  0.65440  0.04058  Biso   1.000  C
  S48      1.0000 0.84146  0.68435  0.02004  Biso   1.000  S
  C335     1.0000 0.68527  0.91531  0.52819  Biso   1.000  C
  S49      1.0000 0.71622  0.83950  0.49501  Biso   1.000  S
  C336     1.0000 0.03215  0.83387  0.34080  Biso   1.000  C
  S50      1.0000 0.13244  0.89013  0.35927  Biso   1.000  S
  H313     1.0000 0.26059  0.60641  0.18291  Biso   1.000  H
  C337     1.0000 0.31676  0.64540  0.23629  Biso   1.000  C
  C338     1.0000 0.29706  0.65151  0.22641  Biso   1.000  C
  H314     1.0000 0.22977  0.60741  0.18858  Biso   1.000  H
  C339     1.0000 0.93260  0.69030  0.02341  Biso   1.000  C
  H315     1.0000 0.02008  0.65250  0.04541  Biso   1.000  H
  C340     1.0000 0.62427  0.90242  0.49340  Biso   1.000  C
  H316     1.0000 0.68824  0.94191  0.54620  Biso   1.000  H
  C341     1.0000 0.63557  0.86199  0.47351  Biso   1.000  C
  H317     1.0000 0.99847  0.81171  0.34509  Biso   1.000  H
  C342     1.0000 0.04296  0.85179  0.29209  Biso   1.000  C
  C343     1.0000 0.09639  0.88263  0.29769  Biso   1.000  C
  C344     1.0000 0.26990  0.68390  0.23710  Biso   1.000  C
  C345     1.0000 0.25019  0.68631  0.24480  Biso   1.000  C
  C346     1.0000 0.96231  0.73130  0.00422  Biso   1.000  C
  C347     1.0000 0.55595  0.91940  0.47431  Biso   1.000  C
  S51      1.0000 0.56386  0.84439  0.43170  Biso   1.000  S
  C348     1.0000 0.01439  0.84780  0.23951  Biso   1.000  C
  S52      1.0000 0.10810  0.90891  0.24078  Biso   1.000  S
  H318     1.0000 0.22429  0.68238  0.21778  Biso   1.000  H
  N36      1.0000 0.28516  0.71850  0.26128  Biso   1.000  N
  N37      1.0000 0.28330  0.71509  0.27201  Biso   1.000  N
  H319     1.0000 0.19967  0.68669  0.23649  Biso   1.000  H
  N38      1.0000 0.92206  0.76176  0.98877  Biso   1.000  N
  H320     1.0000 0.01261  0.73410  0.00360  Biso   1.000  H
  C349     1.0000 0.51775  0.89199  0.44170  Biso   1.000  C
  H321     1.0000 0.53905  0.94690  0.48339  Biso   1.000  H
  C350     1.0000 0.04146  0.87701  0.20859  Biso   1.000  C
  H322     1.0000 0.97986  0.82680  0.22759  Biso   1.000  H
  C351     1.0000 0.22916  0.75031  0.27439  Biso   1.000  C
  C352     1.0000 0.95828  0.79730  0.96559  Biso   1.000  C
  C353     1.0000 0.44347  0.89560  0.42158  Biso   1.000  C
  C354     1.0000 0.02490  0.88511  0.15329  Biso   1.000  C
  C355     1.0000 0.26028  0.79550  0.27891  Biso   1.000  C
  H323     1.0000 0.21137  0.74202  0.30719  Biso   1.000  H
  H324     1.0000 0.18820  0.74970  0.24741  Biso   1.000  H
  H325     1.0000 0.20197  0.74501  0.30409  Biso   1.000  H
  H326     1.0000 0.19487  0.74880  0.24312  Biso   1.000  H
  C356     1.0000 0.94248  0.84040  0.99038  Biso   1.000  C
  H327     1.0000 0.94228  0.79849  0.92849  Biso   1.000  H
  H328     1.0000 0.01059  0.79209  0.96969  Biso   1.000  H
  N39      1.0000 0.40947  0.86581  0.39893  Biso   1.000  N
  H329     1.0000 0.41955  0.92210  0.42591  Biso   1.000  H
  N40      1.0000 0.05891  0.91489  0.13282  Biso   1.000  N
  H330     1.0000 0.98971  0.86852  0.13351  Biso   1.000  H
  C357     1.0000 0.28558  0.81110  0.32620  Biso   1.000  C
  C358     1.0000 0.26130  0.82130  0.23511  Biso   1.000  C
  C359     1.0000 0.99798  0.85999  0.02361  Biso   1.000  C
  C360     1.0000 0.87648  0.86109  0.97927  Biso   1.000  C
  C361     1.0000 0.33346  0.87260  0.38410  Biso   1.000  C
  C362     1.0000 0.04338  0.92499  0.07691  Biso   1.000  C
  C363     1.0000 0.30956  0.85440  0.33179  Biso   1.000  C
  C364     1.0000 0.29435  0.78190  0.37218  Biso   1.000  C
  C365     1.0000 0.28556  0.86411  0.24009  Biso   1.000  C
  C366     1.0000 0.24388  0.80020  0.17858  Biso   1.000  C
  C367     1.0000 0.98201  0.90129  0.04511  Biso   1.000  C
  C368     1.0000 0.06889  0.83889  0.03522  Biso   1.000  C
  C369     1.0000 0.86452  0.90119  0.00011  Biso   1.000  C
  C370     1.0000 0.81698  0.83870  0.94416  Biso   1.000  C
  H331     1.0000 0.32329  0.90390  0.38410  Biso   1.000  H
  H332     1.0000 0.30568  0.85890  0.40970  Biso   1.000  H
  H333     1.0000 0.08778  0.91959  0.06059  Biso   1.000  H
  H334     1.0000 0.03341  0.95619  0.07388  Biso   1.000  H
  C371     1.0000 0.30910  0.88141  0.28799  Biso   1.000  C
  H335     1.0000 0.33608  0.79161  0.39560  Biso   1.000  H
  H336     1.0000 0.30459  0.75231  0.36080  Biso   1.000  H
  C372     1.0000 0.22737  0.78080  0.40219  Biso   1.000  C
  C373     1.0000 0.28298  0.89479  0.19379  Biso   1.000  C
  H337     1.0000 0.27097  0.81509  0.15340  Biso   1.000  H
  H338     1.0000 0.25659  0.76929  0.17919  Biso   1.000  H
  C374     1.0000 0.16707  0.80599  0.16601  Biso   1.000  C
  C375     1.0000 0.91822  0.92120  0.03411  Biso   1.000  C
  C376     1.0000 0.12127  0.85021  0.99517  Biso   1.000  C
  H339     1.0000 0.06208  0.80740  0.03598  Biso   1.000  H
  H340     1.0000 0.09001  0.84809  0.06971  Biso   1.000  H
  C377     1.0000 0.79907  0.92589  0.98318  Biso   1.000  C
  H341     1.0000 0.76968  0.84809  0.95367  Biso   1.000  H
  H342     1.0000 0.82058  0.80721  0.94918  Biso   1.000  H
  C378     1.0000 0.82259  0.84960  0.88599  Biso   1.000  C
  C379     1.0000 0.33729  0.92709  0.29290  Biso   1.000  C
  H343     1.0000 0.18615  0.77009  0.37970  Biso   1.000  H
  H344     1.0000 0.21725  0.80978  0.41399  Biso   1.000  H
  H345     1.0000 0.23634  0.76160  0.43189  Biso   1.000  H
  H346     1.0000 0.24510  0.88450  0.16751  Biso   1.000  H
  H347     1.0000 0.26826  0.92361  0.20510  Biso   1.000  H
  N41      1.0000 0.35049  0.89991  0.16889  Biso   1.000  N
  H348     1.0000 0.15401  0.79811  0.13010  Biso   1.000  H
  H349     1.0000 0.15460  0.83619  0.17111  Biso   1.000  H
  H350     1.0000 0.14120  0.78769  0.18820  Biso   1.000  H
  C380     1.0000 0.90099  0.96330  0.05902  Biso   1.000  C
  H351     1.0000 0.09998  0.84192  0.96099  Biso   1.000  H
  H352     1.0000 0.13070  0.88119  0.99598  Biso   1.000  H
  H353     1.0000 0.16641  0.83461  0.00349  Biso   1.000  H
  N42      1.0000 0.73661  0.92290  0.01131  Biso   1.000  N
  H354     1.0000 0.81289  0.95661  0.98256  Biso   1.000  H
  H355     1.0000 0.78388  0.91750  0.94727  Biso   1.000  H
  H356     1.0000 0.78378  0.83510  0.86468  Biso   1.000  H
  H357     1.0000 0.86891  0.83960  0.87630  Biso   1.000  H
  H358     1.0000 0.81861  0.88071  0.88089  Biso   1.000  H
  H359     1.0000 0.35965  0.93451  0.26151  Biso   1.000  H
  H360     1.0000 0.37505  0.92850  0.32210  Biso   1.000  H
  C381     1.0000 0.27845  0.96111  0.30110  Biso   1.000  C
  C382     1.0000 0.40817  0.87900  0.18479  Biso   1.000  C
  H361     1.0000 0.84938  0.96340  0.06381  Biso   1.000  H
  H362     1.0000 0.92800  0.96430  0.09339  Biso   1.000  H
  C383     1.0000 0.91730  0.00360  0.03070  Biso   1.000  C
  C384     1.0000 0.73470  0.89791  0.05009  Biso   1.000  C
  H363     1.0000 0.24370  0.96221  0.27071  Biso   1.000  H
  H364     1.0000 0.30085  0.98939  0.30688  Biso   1.000  H
  H365     1.0000 0.25416  0.95311  0.33099  Biso   1.000  H
  C385     1.0000 0.47121  0.88678  0.15770  Biso   1.000  C
  H366     1.0000 0.40948  0.85951  0.21269  Biso   1.000  H
  H367     1.0000 0.88550  0.00540  0.99858  Biso   1.000  H
  H368     1.0000 0.96730  0.00299  0.02292  Biso   1.000  H
  H369     1.0000 0.90962  0.02879  0.05200  Biso   1.000  H
  H370     1.0000 0.77409  0.87990  0.06139  Biso   1.000  H
  C386     1.0000 0.67031  0.89791  0.07592  Biso   1.000  C
  C387     1.0000 0.53499  0.86739  0.16379  Biso   1.000  C
  S53      1.0000 0.46453  0.92557  0.10960  Biso   1.000  S
  C388     1.0000 0.65288  0.87241  0.11489  Biso   1.000  C
  S54      1.0000 0.60381  0.93352  0.05357  Biso   1.000  S
  C389     1.0000 0.58259  0.88260  0.12830  Biso   1.000  C
  H371     1.0000 0.54749  0.84590  0.18881  Biso   1.000  H
  C390     1.0000 0.54981  0.91461  0.09749  Biso   1.000  C
  H372     1.0000 0.68300  0.85070  0.13098  Biso   1.000  H
  O4       1.0000 0.22214  0.45470  0.51539  Biso   1.000  O
  C391     1.0000 0.20062  0.46000  0.56740  Biso   1.000  C
  H373     1.0000 0.22624  0.47699  0.54528  Biso   1.000  H
  C392     1.0000 0.16407  0.42019  0.55069  Biso   1.000  C
  S55      1.0000 0.17571  0.44019  0.61879  Biso   1.000  S
  C393     1.0000 0.19496  0.47091  0.61748  Biso   1.000  C
  C394     1.0000 0.15507  0.39619  0.50271  Biso   1.000  C
  S56      1.0000 0.11876  0.36728  0.53858  Biso   1.000  S
  C395     1.0000 0.11035  0.40941  0.58288  Biso   1.000  C
  C396     1.0000 0.13175  0.40269  0.59020  Biso   1.000  C
  C397     1.0000 0.10207  0.39922  0.59599  Biso   1.000  C
  C398     1.0000 0.10205  0.46830  0.65010  Biso   1.000  C
  C399     1.0000 0.10216  0.46531  0.64201  Biso   1.000  C
  S57      1.0000 0.15894  0.42491  0.64021  Biso   1.000  S
  S58      1.0000 0.14383  0.43209  0.64588  Biso   1.000  S
  C400     1.0000 0.21992  0.50680  0.65531  Biso   1.000  C
  C401     1.0000 0.11498  0.36010  0.50761  Biso   1.000  C
  H374     1.0000 0.17445  0.40449  0.47209  Biso   1.000  H
  C402     1.0000 0.01898  0.36384  0.53325  Biso   1.000  C
  C403     1.0000 0.02487  0.36509  0.53091  Biso   1.000  C
  S59      1.0000 0.08932  0.35612  0.56931  Biso   1.000  S
  S60      1.0000 0.10412  0.35319  0.56081  Biso   1.000  S
  C404     1.0000 0.04296  0.42511  0.59131  Biso   1.000  C
  C405     1.0000 0.03673  0.41710  0.58759  Biso   1.000  C
  C406     1.0000 0.03806  0.46489  0.62040  Biso   1.000  C
  C407     1.0000 0.03464  0.45200  0.62480  Biso   1.000  C
  C408     1.0000 0.11215  0.50191  0.68060  Biso   1.000  C
  N43      1.0000 0.17863  0.51639  0.68918  Biso   1.000  N
  H375     1.0000 0.26424  0.52121  0.65351  Biso   1.000  H
  C409     1.0000 0.09464  0.32736  0.46561  Biso   1.000  C
  C410     1.0000 0.98424  0.33293  0.49439  Biso   1.000  C
  C411     1.0000 0.99795  0.40111  0.55360  Biso   1.000  C
  C412     1.0000 0.98305  0.39191  0.55739  Biso   1.000  C
  H376     1.0000 0.99876  0.48429  0.61898  Biso   1.000  H
  H377     1.0000 0.99193  0.46380  0.63550  Biso   1.000  H
  H378     1.0000 0.07364  0.51500  0.69570  Biso   1.000  H
  H379     1.0000 0.07371  0.51330  0.69731  Biso   1.000  H
  C413     1.0000 0.18763  0.55981  0.71429  Biso   1.000  C
  N44      1.0000 0.01995  0.30903  0.46879  Biso   1.000  N
  H380     1.0000 0.12488  0.31929  0.44040  Biso   1.000  H
  H381     1.0000 0.93347  0.33161  0.48918  Biso   1.000  H
  H382     1.0000 0.93347  0.33129  0.49140  Biso   1.000  H
  H383     1.0000 0.95166  0.41198  0.54249  Biso   1.000  H
  H384     1.0000 0.93232  0.39339  0.55609  Biso   1.000  H
  C414     1.0000 0.23541  0.55579  0.76629  Biso   1.000  C
  H385     1.0000 0.21022  0.57991  0.69141  Biso   1.000  H
  H386     1.0000 0.14023  0.57161  0.72019  Biso   1.000  H
  C415     1.0000 0.97773  0.28793  0.42610  Biso   1.000  C
  C416     1.0000 0.30625  0.55839  0.76449  Biso   1.000  C
  C417     1.0000 0.20783  0.55270  0.80990  Biso   1.000  C
  C418     1.0000 0.97884  0.23910  0.43082  Biso   1.000  C
  H387     1.0000 0.92754  0.29809  0.42449  Biso   1.000  H
  H388     1.0000 0.99664  0.29629  0.39361  Biso   1.000  H
  C419     1.0000 0.35621  0.55759  0.81139  Biso   1.000  C
  C420     1.0000 0.34221  0.56161  0.71291  Biso   1.000  C
  C421     1.0000 0.25243  0.55183  0.85658  Biso   1.000  C
  C422     1.0000 0.12742  0.54862  0.80779  Biso   1.000  C
  C423     1.0000 0.03188  0.21559  0.40974  Biso   1.000  C
  C424     1.0000 0.92568  0.21839  0.45588  Biso   1.000  C
  C425     1.0000 0.32642  0.55399  0.85849  Biso   1.000  C
  C426     1.0000 0.43441  0.56029  0.81040  Biso   1.000  C
  H389     1.0000 0.39143  0.54981  0.71781  Biso   1.000  H
  H390     1.0000 0.31426  0.54479  0.68570  Biso   1.000  H
  C427     1.0000 0.34464  0.61088  0.69658  Biso   1.000  C
  C428     1.0000 0.21660  0.54820  0.90498  Biso   1.000  C
  H391     1.0000 0.10952  0.53260  0.77641  Biso   1.000  H
  H392     1.0000 0.11532  0.53160  0.83761  Biso   1.000  H
  C429     1.0000 0.08780  0.59352  0.80779  Biso   1.000  C
  C430     1.0000 0.08994  0.23814  0.38249  Biso   1.000  C
  C431     1.0000 0.03176  0.17008  0.41300  Biso   1.000  C
  C432     1.0000 0.92516  0.17365  0.45745  Biso   1.000  C
  C433     1.0000 0.86917  0.24460  0.47910  Biso   1.000  C
  C434     1.0000 0.37283  0.55360  0.90957  Biso   1.000  C
  H393     1.0000 0.45901  0.56370  0.84539  Biso   1.000  H
  H394     1.0000 0.44750  0.58461  0.78890  Biso   1.000  H
  N45      1.0000 0.45163  0.52089  0.78909  Biso   1.000  N
  H395     1.0000 0.44452  0.58162  0.78411  Biso   1.000  H
  H396     1.0000 0.45561  0.57139  0.84401  Biso   1.000  H
  N46      1.0000 0.47240  0.51790  0.79940  Biso   1.000  N
  H397     1.0000 0.39002  0.62369  0.71099  Biso   1.000  H
  H398     1.0000 0.34072  0.61310  0.65910  Biso   1.000  H
  H399     1.0000 0.30475  0.62639  0.70950  Biso   1.000  H
  H400     1.0000 0.16822  0.56109  0.89969  Biso   1.000  H
  H401     1.0000 0.24469  0.56431  0.93280  Biso   1.000  H
  N47      1.0000 0.21090  0.50359  0.92007  Biso   1.000  N
  H402     1.0000 0.09593  0.60641  0.84201  Biso   1.000  H
  H403     1.0000 0.10672  0.61269  0.78281  Biso   1.000  H
  H404     1.0000 0.03642  0.58930  0.79871  Biso   1.000  H
  C435     1.0000 0.06457  0.24531  0.32589  Biso   1.000  C
  H405     1.0000 0.13388  0.22029  0.38548  Biso   1.000  H
  H406     1.0000 0.10176  0.26619  0.39909  Biso   1.000  H
  C436     1.0000 0.09107  0.14490  0.39219  Biso   1.000  C
  C437     1.0000 0.97835  0.14840  0.43741  Biso   1.000  C
  C438     1.0000 0.86386  0.15043  0.47991  Biso   1.000  C
  H407     1.0000 0.89105  0.27201  0.49229  Biso   1.000  H
  H408     1.0000 0.85374  0.22872  0.50869  Biso   1.000  H
  C439     1.0000 0.80347  0.25509  0.44270  Biso   1.000  C
  H409     1.0000 0.34810  0.53710  0.93491  Biso   1.000  H
  H410     1.0000 0.41862  0.53881  0.90540  Biso   1.000  H
  C440     1.0000 0.38852  0.59879  0.93008  Biso   1.000  C
  C441     1.0000 0.50913  0.50950  0.81480  Biso   1.000  C
  C442     1.0000 0.53484  0.50831  0.81730  Biso   1.000  C
  C443     1.0000 0.14973  0.48889  0.92099  Biso   1.000  C
  H411     1.0000 0.02286  0.26451  0.32290  Biso   1.000  H
  H412     1.0000 0.10327  0.25840  0.30880  Biso   1.000  H
  H413     1.0000 0.05126  0.21772  0.30968  Biso   1.000  H
  H414     1.0000 0.10044  0.15680  0.35858  Biso   1.000  H
  H415     1.0000 0.07625  0.11450  0.38728  Biso   1.000  H
  N48      1.0000 0.15737  0.14721  0.42825  Biso   1.000  N
  C444     1.0000 0.97784  0.10041  0.44231  Biso   1.000  C
  H416     1.0000 0.85414  0.12351  0.46021  Biso   1.000  H
  H417     1.0000 0.82055  0.16870  0.47358  Biso   1.000  H
  N49      1.0000 0.87235  0.13908  0.53509  Biso   1.000  N
  H418     1.0000 0.77244  0.27481  0.45948  Biso   1.000  H
  H419     1.0000 0.81818  0.26870  0.41181  Biso   1.000  H
  H420     1.0000 0.77724  0.22849  0.43331  Biso   1.000  H
  H421     1.0000 0.41941  0.59721  0.96250  Biso   1.000  H
  H422     1.0000 0.41272  0.61529  0.90509  Biso   1.000  H
  H423     1.0000 0.34338  0.61310  0.93579  Biso   1.000  H
  H424     1.0000 0.52521  0.52491  0.84500  Biso   1.000  H
  C445     1.0000 0.55304  0.47210  0.79909  Biso   1.000  C
  H425     1.0000 0.55922  0.52829  0.84040  Biso   1.000  H
  C446     1.0000 0.57594  0.46679  0.80538  Biso   1.000  C
  H426     1.0000 0.11002  0.50751  0.91268  Biso   1.000  H
  C447     1.0000 0.13548  0.44350  0.93448  Biso   1.000  C
  C448     1.0000 0.19476  0.11441  0.43419  Biso   1.000  C
  H427     1.0000 0.02787  0.08980  0.44580  Biso   1.000  H
  H428     1.0000 0.95635  0.09260  0.47389  Biso   1.000  H
  C449     1.0000 0.93588  0.07796  0.39629  Biso   1.000  C
  C450     1.0000 0.92056  0.15808  0.56579  Biso   1.000  C
  C451     1.0000 0.61954  0.45859  0.81630  Biso   1.000  C
  S61      1.0000 0.50651  0.43649  0.75678  Biso   1.000  S
  S62      1.0000 0.53044  0.42771  0.76610  Biso   1.000  S
  C452     1.0000 0.64591  0.45460  0.81561  Biso   1.000  C
  C453     1.0000 0.07011  0.42411  0.93391  Biso   1.000  C
  S63      1.0000 0.20563  0.40903  0.94928  Biso   1.000  S
  H429     1.0000 0.17947  0.08871  0.41679  Biso   1.000  H
  C454     1.0000 0.26283  0.11453  0.46780  Biso   1.000  C
  H430     1.0000 0.93687  0.04680  0.40169  Biso   1.000  H
  H431     1.0000 0.88617  0.08810  0.39280  Biso   1.000  H
  H432     1.0000 0.95794  0.08482  0.36498  Biso   1.000  H
  H433     1.0000 0.95237  0.17819  0.55291  Biso   1.000  H
  C455     1.0000 0.92566  0.14853  0.61990  Biso   1.000  C
  C456     1.0000 0.63662  0.41890  0.79181  Biso   1.000  C
  C457     1.0000 0.66102  0.41260  0.79629  Biso   1.000  C
  H434     1.0000 0.65083  0.47329  0.84121  Biso   1.000  H
  H435     1.0000 0.68124  0.47219  0.83381  Biso   1.000  H
  C458     1.0000 0.57935  0.40279  0.76180  Biso   1.000  C
  C459     1.0000 0.60385  0.39610  0.76660  Biso   1.000  C
  H436     1.0000 0.02573  0.43810  0.92460  Biso   1.000  H
  C460     1.0000 0.07711  0.37931  0.94958  Biso   1.000  C
  C461     1.0000 0.14761  0.36811  0.95909  Biso   1.000  C
  C462     1.0000 0.31464  0.08469  0.47178  Biso   1.000  C
  S64      1.0000 0.28364  0.16050  0.50497  Biso   1.000  S
  C463     1.0000 0.96771  0.16613  0.65918  Biso   1.000  C
  S65      1.0000 0.86747  0.10987  0.64071  Biso   1.000  S
  C464     1.0000 0.69620  0.38941  0.79541  Biso   1.000  C
  C465     1.0000 0.72311  0.38561  0.79698  Biso   1.000  C
  S66      1.0000 0.59612  0.35370  0.73448  Biso   1.000  S
  S67      1.0000 0.61893  0.34598  0.74088  Biso   1.000  S
  C466     1.0000 0.03048  0.34560  0.95939  Biso   1.000  C
  S68      1.0000 0.15845  0.31565  0.97993  Biso   1.000  S
  H437     1.0000 0.31168  0.05809  0.45381  Biso   1.000  H
  C467     1.0000 0.37564  0.09758  0.50658  Biso   1.000  C
  C468     1.0000 0.36435  0.13801  0.52651  Biso   1.000  C
  H438     1.0000 0.00144  0.18829  0.65489  Biso   1.000  H
  C469     1.0000 0.95695  0.14821  0.70789  Biso   1.000  C
  C470     1.0000 0.90353  0.11737  0.70233  Biso   1.000  C
  C471     1.0000 0.68310  0.35460  0.76368  Biso   1.000  C
  C472     1.0000 0.70280  0.34849  0.77361  Biso   1.000  C
  H439     1.0000 0.73933  0.39359  0.81710  Biso   1.000  H
  H440     1.0000 0.77014  0.39259  0.81139  Biso   1.000  H
  C473     1.0000 0.06732  0.30970  0.97660  Biso   1.000  C
  H441     1.0000 0.97978  0.34750  0.95460  Biso   1.000  H
  C474     1.0000 0.44396  0.08060  0.52570  Biso   1.000  C
  S69      1.0000 0.43605  0.15561  0.56828  Biso   1.000  S
  C475     1.0000 0.98553  0.15220  0.76050  Biso   1.000  C
  S70      1.0000 0.89182  0.09109  0.75924  Biso   1.000  S
  C476     1.0000 0.73001  0.31610  0.76288  Biso   1.000  C
  C477     1.0000 0.74973  0.31369  0.75521  Biso   1.000  C
  C478     1.0000 0.03760  0.26870  0.99580  Biso   1.000  C
  H442     1.0000 0.46086  0.05310  0.51658  Biso   1.000  H
  C479     1.0000 0.48217  0.10801  0.55831  Biso   1.000  C
  H443     1.0000 0.02000  0.17320  0.77238  Biso   1.000  H
  C480     1.0000 0.95840  0.12299  0.79139  Biso   1.000  C
  N50      1.0000 0.71475  0.28150  0.73870  Biso   1.000  N
  N51      1.0000 0.71662  0.28491  0.72800  Biso   1.000  N
  H444     1.0000 0.77562  0.31762  0.78219  Biso   1.000  H
  H445     1.0000 0.80024  0.31331  0.76349  Biso   1.000  H
  N52      1.0000 0.07781  0.23824  0.01124  Biso   1.000  N
  H446     1.0000 0.98730  0.26590  0.99637  Biso   1.000  H
  C481     1.0000 0.55644  0.10440  0.57840  Biso   1.000  C
  C482     1.0000 0.97502  0.11489  0.84669  Biso   1.000  C
  C483     1.0000 0.77075  0.24969  0.72559  Biso   1.000  C
  C484     1.0000 0.04164  0.20270  0.03443  Biso   1.000  C
  H447     1.0000 0.58032  0.07790  0.57410  Biso   1.000  H
  N53      1.0000 0.59044  0.13419  0.60104  Biso   1.000  N
  H448     1.0000 0.01020  0.13148  0.86650  Biso   1.000  H
  N54      1.0000 0.94101  0.08511  0.86719  Biso   1.000  N
  C485     1.0000 0.73964  0.20450  0.72111  Biso   1.000  C
  H449     1.0000 0.78855  0.25798  0.69279  Biso   1.000  H
  H450     1.0000 0.81172  0.25030  0.75261  Biso   1.000  H
  H451     1.0000 0.79794  0.25499  0.69589  Biso   1.000  H
  H452     1.0000 0.80504  0.25120  0.75690  Biso   1.000  H
  C486     1.0000 0.05744  0.15960  0.00963  Biso   1.000  C
  H453     1.0000 0.98933  0.20791  0.03033  Biso   1.000  H
  H454     1.0000 0.05764  0.20151  0.07152  Biso   1.000  H
  C487     1.0000 0.66646  0.12740  0.61591  Biso   1.000  C
  C488     1.0000 0.95649  0.07501  0.92310  Biso   1.000  C
  C489     1.0000 0.71433  0.18890  0.67378  Biso   1.000  C
  C490     1.0000 0.73861  0.17870  0.76491  Biso   1.000  C
  C491     1.0000 0.00189  0.14001  0.97641  Biso   1.000  C
  C492     1.0000 0.12343  0.13891  0.02071  Biso   1.000  C
  C493     1.0000 0.69035  0.14560  0.66818  Biso   1.000  C
  H455     1.0000 0.67663  0.09610  0.61591  Biso   1.000  H
  H456     1.0000 0.69424  0.14110  0.59031  Biso   1.000  H
  C494     1.0000 0.01791  0.09871  0.95491  Biso   1.000  C
  H457     1.0000 0.91213  0.08041  0.93939  Biso   1.000  H
  H458     1.0000 0.96651  0.04381  0.92609  Biso   1.000  H
  C495     1.0000 0.70556  0.21810  0.62779  Biso   1.000  C
  C496     1.0000 0.71435  0.13589  0.75989  Biso   1.000  C
  C497     1.0000 0.75604  0.19980  0.82140  Biso   1.000  C
  C498     1.0000 0.93103  0.16111  0.96480  Biso   1.000  C
  C499     1.0000 0.13539  0.09881  0.99990  Biso   1.000  C
  C500     1.0000 0.18293  0.16130  0.05581  Biso   1.000  C
  C501     1.0000 0.69082  0.11859  0.71199  Biso   1.000  C
  C502     1.0000 0.08170  0.07880  0.96591  Biso   1.000  C
  H459     1.0000 0.66383  0.20839  0.60438  Biso   1.000  H
  H460     1.0000 0.69533  0.24769  0.63921  Biso   1.000  H
  C503     1.0000 0.77254  0.21920  0.59779  Biso   1.000  C
  C504     1.0000 0.71693  0.10521  0.80618  Biso   1.000  C
  H461     1.0000 0.72895  0.18491  0.84661  Biso   1.000  H
  H462     1.0000 0.74332  0.23071  0.82078  Biso   1.000  H
  C505     1.0000 0.83285  0.19401  0.83400  Biso   1.000  C
  H463     1.0000 0.93778  0.19260  0.96399  Biso   1.000  H
  H464     1.0000 0.90991  0.15191  0.93031  Biso   1.000  H
  C506     1.0000 0.87865  0.14979  0.00481  Biso   1.000  C
  C507     1.0000 0.20084  0.07411  0.01680  Biso   1.000  C
  H465     1.0000 0.23024  0.15191  0.04631  Biso   1.000  H
  H466     1.0000 0.17934  0.19279  0.05083  Biso   1.000  H
  C508     1.0000 0.17733  0.15040  0.11402  Biso   1.000  C
  C509     1.0000 0.66263  0.07291  0.70708  Biso   1.000  C
  C510     1.0000 0.09893  0.03670  0.94100  Biso   1.000  C
  H467     1.0000 0.81376  0.22991  0.62028  Biso   1.000  H
  H468     1.0000 0.78266  0.19022  0.58598  Biso   1.000  H
  H469     1.0000 0.76357  0.23840  0.56809  Biso   1.000  H
  H470     1.0000 0.75482  0.11550  0.83251  Biso   1.000  H
  H471     1.0000 0.73160  0.07639  0.79488  Biso   1.000  H
  N55      1.0000 0.64943  0.10009  0.83109  Biso   1.000  N
  H472     1.0000 0.84591  0.20189  0.86991  Biso   1.000  H
  H473     1.0000 0.84532  0.16381  0.82891  Biso   1.000  H
  H474     1.0000 0.85872  0.21231  0.81178  Biso   1.000  H
  H475     1.0000 0.83351  0.16539  0.99649  Biso   1.000  H
  H476     1.0000 0.89994  0.15808  0.03903  Biso   1.000  H
  H477     1.0000 0.86921  0.11881  0.00400  Biso   1.000  H
  N56      1.0000 0.26331  0.07710  0.98871  Biso   1.000  N
  H478     1.0000 0.18703  0.04339  0.01741  Biso   1.000  H
  H479     1.0000 0.21604  0.08250  0.05271  Biso   1.000  H
  H480     1.0000 0.21614  0.16490  0.13533  Biso   1.000  H
  H481     1.0000 0.13101  0.16040  0.12372  Biso   1.000  H
  H482     1.0000 0.18131  0.11929  0.11912  Biso   1.000  H
  H483     1.0000 0.64021  0.06549  0.73850  Biso   1.000  H
  H484     1.0000 0.62481  0.07150  0.67788  Biso   1.000  H
  C511     1.0000 0.72141  0.03889  0.69888  Biso   1.000  C
  H485     1.0000 0.15049  0.03660  0.93621  Biso   1.000  H
  H486     1.0000 0.07191  0.03570  0.90659  Biso   1.000  H
  C512     1.0000 0.08261  0.99640  0.96928  Biso   1.000  C
  C513     1.0000 0.59174  0.12100  0.81519  Biso   1.000  C
  C514     1.0000 0.26521  0.10209  0.94989  Biso   1.000  C
  H487     1.0000 0.75622  0.03779  0.72931  Biso   1.000  H
  H488     1.0000 0.69901  0.01061  0.69309  Biso   1.000  H
  H489     1.0000 0.74575  0.04689  0.66899  Biso   1.000  H
  H490     1.0000 0.03261  0.99701  0.97710  Biso   1.000  H
  H491     1.0000 0.09030  0.97121  0.94801  Biso   1.000  H
  H492     1.0000 0.11442  0.99460  0.00143  Biso   1.000  H
  C515     1.0000 0.52870  0.11322  0.84228  Biso   1.000  C
  H493     1.0000 0.59043  0.14049  0.78729  Biso   1.000  H
  H494     1.0000 0.22582  0.12010  0.93858  Biso   1.000  H
  C516     1.0000 0.32961  0.10209  0.92410  Biso   1.000  C
  C517     1.0000 0.46492  0.13261  0.83619  Biso   1.000  C
  S71      1.0000 0.53538  0.07443  0.89038  Biso   1.000  S
  C518     1.0000 0.34704  0.12759  0.88509  Biso   1.000  C
  S72      1.0000 0.39610  0.06648  0.94640  Biso   1.000  S
  C519     1.0000 0.41733  0.11740  0.87171  Biso   1.000  C
  H495     1.0000 0.45242  0.15410  0.81120  Biso   1.000  H
  C520     1.0000 0.45010  0.08539  0.90249  Biso   1.000  C
  H496     1.0000 0.31691  0.14930  0.86899  Biso   1.000  H
  Ne1      1.0000 0.26913  0.28845  0.72057  Biso   1.000  Ne
  He1      1.0000 0.33775  0.29993  0.81660  Biso   1.000  He
  He2      1.0000 0.14529  0.30045  0.77733  Biso   1.000  He
  He3      1.0000 0.23516  0.12041  0.69509  Biso   1.000  He
  He4      1.0000 0.37049  0.31277  0.61238  Biso   1.000  He
  Ar1      1.0000 0.28446  0.26946  0.73175  Biso   1.000  Ar
  Ne2      1.0000 0.76916  0.21155  0.22057  Biso   1.000  Ne
  He5      1.0000 0.82574  0.20004  0.30714  Biso   1.000  He
  He6      1.0000 0.58283  0.18756  0.27267  Biso   1.000  He
  He7      1.0000 0.74537  0.31419  0.20102  Biso   1.000  He
  He8      1.0000 0.85584  0.19781  0.13807  Biso   1.000  He
  Ar2      1.0000 0.78450  0.23054  0.23176  Biso   1.000  Ar
  Ne3      1.0000 0.73077  0.71155  0.27942  Biso   1.000  Ne
  He9      1.0000 0.64245  0.69660  0.36483  Biso   1.000  He
  He10     1.0000 0.75323  0.80896  0.29850  Biso   1.000  He
  He11     1.0000 0.92317  0.68667  0.22820  Biso   1.000  He
  He12     1.0000 0.59816  0.70000  0.12803  Biso   1.000  He
  Ar3      1.0000 0.71526  0.73042  0.26814  Biso   1.000  Ar
  Ne4      1.0000 0.23074  0.78845  0.77942  Biso   1.000  Ne
  He13     1.0000 0.12726  0.81395  0.89071  Biso   1.000  He
  He14     1.0000 0.25623  0.68007  0.79935  Biso   1.000  He
  He15     1.0000 0.36120  0.80193  0.72289  Biso   1.000  He
  He16     1.0000 0.05782  0.80254  0.59273  Biso   1.000  He
  Ar4      1.0000 0.22512  0.76585  0.76794  Biso   1.000  Ar
