data_image0
_cell_length_a       18.5
_cell_length_b       18.5
_cell_length_c       37.516
_cell_angle_alpha    90
_cell_angle_beta     90
_cell_angle_gamma    90

_symmetry_space_group_name_H-M    "P 1"
_symmetry_int_tables_number       1

loop_
  _symmetry_equiv_pos_as_xyz
  'x, y, z'

loop_
  _atom_site_label
  _atom_site_occupancy
  _atom_site_fract_x
  _atom_site_fract_y
  _atom_site_fract_z
  _atom_site_thermal_displace_type
  _atom_site_B_iso_or_equiv
  _atom_site_type_symbol
  C1       1.0000 0.49838  0.48541  0.56946  Biso   1.000  C
  C2       1.0000 0.46000  0.42703  0.55422  Biso   1.000  C
  C3       1.0000 0.56681  0.50411  0.55574  Biso   1.000  C
  C4       1.0000 0.46800  0.52908  0.60028  Biso   1.000  C
  C5       1.0000 0.49119  0.38551  0.52714  Biso   1.000  C
  C6       1.0000 0.38459  0.41292  0.56560  Biso   1.000  C
  C7       1.0000 0.59741  0.46232  0.52855  Biso   1.000  C
  C8       1.0000 0.60389  0.57059  0.56928  Biso   1.000  C
  H1       1.0000 0.43270  0.49978  0.61328  Biso   1.000  H
  H2       1.0000 0.44438  0.57259  0.59100  Biso   1.000  H
  H3       1.0000 0.50741  0.54297  0.61640  Biso   1.000  H
  C9       1.0000 0.45378  0.31908  0.51263  Biso   1.000  C
  C10      1.0000 0.55919  0.40486  0.51351  Biso   1.000  C
  N1       1.0000 0.38162  0.35924  0.59697  Biso   1.000  N
  H4       1.0000 0.35692  0.39297  0.54529  Biso   1.000  H
  H5       1.0000 0.36162  0.45897  0.57280  Biso   1.000  H
  C11      1.0000 0.67270  0.48038  0.51546  Biso   1.000  C
  N2       1.0000 0.65465  0.56297  0.59868  Biso   1.000  N
  H6       1.0000 0.63022  0.59270  0.54910  Biso   1.000  H
  H7       1.0000 0.56611  0.60541  0.57669  Biso   1.000  H
  H8       1.0000 0.43081  0.33081  0.48990  Biso   1.000  H
  H9       1.0000 0.41708  0.30281  0.52969  Biso   1.000  H
  H10      1.0000 0.48951  0.28059  0.50901  Biso   1.000  H
  C12      1.0000 0.58930  0.36519  0.48083  Biso   1.000  C
  C13      1.0000 0.34162  0.37589  0.62040  Biso   1.000  C
  H11      1.0000 0.66968  0.51789  0.49709  Biso   1.000  H
  H12      1.0000 0.69508  0.43697  0.50538  Biso   1.000  H
  H13      1.0000 0.70189  0.49800  0.53540  Biso   1.000  H
  C14      1.0000 0.66978  0.50211  0.61102  Biso   1.000  C
  N3       1.0000 0.62611  0.29676  0.49112  Biso   1.000  N
  H14      1.0000 0.54919  0.35422  0.46420  Biso   1.000  H
  H15      1.0000 0.62400  0.39697  0.46831  Biso   1.000  H
  C15      1.0000 0.32930  0.32589  0.65234  Biso   1.000  C
  H16      1.0000 0.31692  0.42081  0.61931  Biso   1.000  H
  C16      1.0000 0.72395  0.49178  0.64015  Biso   1.000  C
  H17      1.0000 0.64600  0.46092  0.60150  Biso   1.000  H
  C17      1.0000 0.68849  0.28762  0.47865  Biso   1.000  C
  C18      1.0000 0.27319  0.34530  0.67529  Biso   1.000  C
  C19      1.0000 0.36741  0.26600  0.65617  Biso   1.000  C
  C20      1.0000 0.74335  0.42227  0.65036  Biso   1.000  C
  C21      1.0000 0.75514  0.55119  0.65684  Biso   1.000  C
  C22      1.0000 0.72978  0.21892  0.48417  Biso   1.000  C
  H18      1.0000 0.71011  0.32551  0.46529  Biso   1.000  H
  C23      1.0000 0.25930  0.30049  0.70407  Biso   1.000  C
  H19      1.0000 0.24551  0.38778  0.67129  Biso   1.000  H
  H20      1.0000 0.40459  0.25422  0.63970  Biso   1.000  H
  C24      1.0000 0.35168  0.21989  0.68525  Biso   1.000  C
  H21      1.0000 0.72200  0.38168  0.63901  Biso   1.000  H
  C25      1.0000 0.79405  0.41205  0.67726  Biso   1.000  C
  C26      1.0000 0.80584  0.54097  0.68371  Biso   1.000  C
  H22      1.0000 0.74189  0.59870  0.64991  Biso   1.000  H
  C27      1.0000 0.79627  0.21141  0.46895  Biso   1.000  C
  C28      1.0000 0.70027  0.16362  0.50259  Biso   1.000  C
  C29      1.0000 0.29778  0.23697  0.70778  Biso   1.000  C
  H23      1.0000 0.22351  0.31330  0.72111  Biso   1.000  H
  H24      1.0000 0.37897  0.17697  0.68880  Biso   1.000  H
  H25      1.0000 0.80730  0.36449  0.68419  Biso   1.000  H
  C30      1.0000 0.82530  0.47151  0.69394  Biso   1.000  C
  H26      1.0000 0.82719  0.58157  0.69509  Biso   1.000  H
  C31      1.0000 0.83378  0.14762  0.47191  Biso   1.000  C
  H27      1.0000 0.81686  0.25070  0.45621  Biso   1.000  H
  H28      1.0000 0.65427  0.16930  0.51349  Biso   1.000  H
  C32      1.0000 0.73789  0.09649  0.50565  Biso   1.000  C
  C33      1.0000 0.27622  0.18438  0.73654  Biso   1.000  C
  C34      1.0000 0.87686  0.44659  0.72348  Biso   1.000  C
  C35      1.0000 0.80470  0.08892  0.49030  Biso   1.000  C
  H29      1.0000 0.88022  0.14341  0.46130  Biso   1.000  H
  H30      1.0000 0.71681  0.05730  0.51829  Biso   1.000  H
  N4       1.0000 0.29351  0.12308  0.73870  Biso   1.000  N
  H31      1.0000 0.24541  0.20238  0.75480  Biso   1.000  H
  N5       1.0000 0.90827  0.48730  0.74070  Biso   1.000  N
  H32      1.0000 0.88297  0.39638  0.72769  Biso   1.000  H
  C36      1.0000 0.84308  0.02092  0.49171  Biso   1.000  C
  C37      1.0000 0.26519  0.08670  0.77039  Biso   1.000  C
  C38      1.0000 0.95627  0.46270  0.76850  Biso   1.000  C
  H33      1.0000 0.88968  0.01778  0.48110  Biso   1.000  H
  N6       1.0000 0.81692  0.96562  0.50648  Biso   1.000  N
  C39      1.0000 0.31665  0.02941  0.78457  Biso   1.000  C
  H34      1.0000 0.21838  0.06378  0.76450  Biso   1.000  H
  H35      1.0000 0.25627  0.12308  0.78918  Biso   1.000  H
  C40      1.0000 0.96551  0.38930  0.78473  Biso   1.000  C
  H36      1.0000 0.94622  0.49497  0.78900  Biso   1.000  H
  H37      1.0000 0.00519  0.47611  0.76010  Biso   1.000  H
  C41      1.0000 0.86049  0.89892  0.50448  Biso   1.000  C
  C42      1.0000 0.35773  0.04130  0.81485  Biso   1.000  C
  C43      1.0000 0.31924  0.96459  0.76634  Biso   1.000  C
  C44      1.0000 0.92222  0.36811  0.81283  Biso   1.000  C
  C45      1.0000 0.02232  0.34530  0.77354  Biso   1.000  C
  C46      1.0000 0.87222  0.86303  0.53982  Biso   1.000  C
  H38      1.0000 0.90822  0.91081  0.49400  Biso   1.000  H
  H39      1.0000 0.83622  0.86438  0.48830  Biso   1.000  H
  C47      1.0000 0.35919  0.11541  0.83271  Biso   1.000  C
  C48      1.0000 0.40081  0.98486  0.82842  Biso   1.000  C
  C49      1.0000 0.36189  0.90768  0.77972  Biso   1.000  C
  C50      1.0000 0.27811  0.95357  0.73166  Biso   1.000  C
  C51      1.0000 0.93697  0.30578  0.83050  Biso   1.000  C
  C52      1.0000 0.85681  0.41308  0.82320  Biso   1.000  C
  C53      1.0000 0.03838  0.28059  0.79177  Biso   1.000  C
  C54      1.0000 0.06941  0.36778  0.74182  Biso   1.000  C
  C55      1.0000 0.94081  0.87195  0.55739  Biso   1.000  C
  C56      1.0000 0.81838  0.81946  0.55499  Biso   1.000  C
  H40      1.0000 0.40411  0.12070  0.84631  Biso   1.000  H
  H41      1.0000 0.31778  0.11978  0.84889  Biso   1.000  H
  H42      1.0000 0.35649  0.15319  0.81451  Biso   1.000  H
  C57      1.0000 0.40573  0.91838  0.81051  Biso   1.000  C
  C58      1.0000 0.44027  0.99211  0.86323  Biso   1.000  C
  C59      1.0000 0.35211  0.83449  0.76301  Biso   1.000  C
  H43      1.0000 0.22638  0.94881  0.73681  Biso   1.000  H
  H44      1.0000 0.29551  0.90968  0.71991  Biso   1.000  H
  H45      1.0000 0.28589  0.99530  0.71599  Biso   1.000  H
  C60      1.0000 0.99535  0.25849  0.82048  Biso   1.000  C
  C61      1.0000 0.89427  0.28670  0.86432  Biso   1.000  C
  H46      1.0000 0.87059  0.44789  0.84169  Biso   1.000  H
  H47      1.0000 0.81870  0.38130  0.83239  Biso   1.000  H
  H48      1.0000 0.83886  0.43908  0.80219  Biso   1.000  H
  C62      1.0000 0.10578  0.23622  0.78185  Biso   1.000  C
  H49      1.0000 0.06578  0.33119  0.72300  Biso   1.000  H
  H50      1.0000 0.11978  0.37211  0.74949  Biso   1.000  H
  H51      1.0000 0.05270  0.41438  0.73259  Biso   1.000  H
  C63      1.0000 0.95368  0.83146  0.58842  Biso   1.000  C
  C64      1.0000 0.99541  0.92389  0.54254  Biso   1.000  C
  C65      1.0000 0.83519  0.78178  0.58687  Biso   1.000  C
  C66      1.0000 0.74541  0.81627  0.53796  Biso   1.000  C
  C67      1.0000 0.45211  0.85670  0.82237  Biso   1.000  C
  N7       1.0000 0.50676  0.03659  0.85870  Biso   1.000  N
  H52      1.0000 0.40827  0.01492  0.88109  Biso   1.000  H
  H53      1.0000 0.45368  0.94351  0.87211  Biso   1.000  H
  N8       1.0000 0.40000  0.80681  0.73355  Biso   1.000  N
  H54      1.0000 0.30200  0.83270  0.75379  Biso   1.000  H
  H55      1.0000 0.35492  0.79870  0.78260  Biso   1.000  H
  C68      1.0000 0.00989  0.18811  0.83826  Biso   1.000  C
  N9       1.0000 0.83200  0.24384  0.85627  Biso   1.000  N
  H56      1.0000 0.92600  0.25978  0.88090  Biso   1.000  H
  H57      1.0000 0.87886  0.33178  0.87640  Biso   1.000  H
  N10      1.0000 0.09784  0.17957  0.75456  Biso   1.000  N
  H58      1.0000 0.14351  0.27027  0.77359  Biso   1.000  H
  H59      1.0000 0.12400  0.21297  0.80390  Biso   1.000  H
  C69      1.0000 0.89989  0.78859  0.60305  Biso   1.000  C
  C70      1.0000 0.03032  0.83649  0.60422  Biso   1.000  C
  H60      1.0000 0.97081  0.95930  0.52740  Biso   1.000  H
  H61      1.0000 0.03108  0.89730  0.52839  Biso   1.000  H
  H62      1.0000 0.01978  0.94886  0.56219  Biso   1.000  H
  C71      1.0000 0.77930  0.72892  0.60148  Biso   1.000  C
  H63      1.0000 0.74341  0.77530  0.52148  Biso   1.000  H
  H64      1.0000 0.73649  0.86119  0.52479  Biso   1.000  H
  H65      1.0000 0.70838  0.81027  0.55640  Biso   1.000  H
  H66      1.0000 0.42497  0.82649  0.83919  Biso   1.000  H
  H67      1.0000 0.49551  0.87551  0.83410  Biso   1.000  H
  H68      1.0000 0.46611  0.82768  0.80160  Biso   1.000  H
  C72      1.0000 0.56330  0.01719  0.87464  Biso   1.000  C
  C73      1.0000 0.45368  0.84681  0.72638  Biso   1.000  C
  H69      1.0000 0.96400  0.16341  0.84311  Biso   1.000  H
  H70      1.0000 0.03541  0.19649  0.86081  Biso   1.000  H
  H71      1.0000 0.03968  0.15778  0.82269  Biso   1.000  H
  C74      1.0000 0.82135  0.18822  0.87576  Biso   1.000  C
  C75      1.0000 0.03849  0.16557  0.74136  Biso   1.000  C
  C76      1.0000 0.91411  0.74957  0.63815  Biso   1.000  C
  N11      1.0000 0.04492  0.89292  0.63066  Biso   1.000  N
  H72      1.0000 0.04168  0.78930  0.61528  Biso   1.000  H
  H73      1.0000 0.06449  0.84341  0.58420  Biso   1.000  H
  N12      1.0000 0.72822  0.76400  0.62600  Biso   1.000  N
  H74      1.0000 0.75211  0.70741  0.58141  Biso   1.000  H
  H75      1.0000 0.80438  0.68919  0.61408  Biso   1.000  H
  C77      1.0000 0.62903  0.05930  0.87309  Biso   1.000  C
  H76      1.0000 0.56281  0.97357  0.88810  Biso   1.000  H
  H77      1.0000 0.46108  0.89108  0.73870  Biso   1.000  H
  C78      1.0000 0.50492  0.82286  0.69821  Biso   1.000  C
  C79      1.0000 0.75665  0.14378  0.87371  Biso   1.000  C
  H78      1.0000 0.85757  0.17508  0.89250  Biso   1.000  H
  H79      1.0000 0.99778  0.19341  0.74840  Biso   1.000  H
  C80      1.0000 0.02832  0.10708  0.71500  Biso   1.000  C
  H80      1.0000 0.92589  0.69892  0.63341  Biso   1.000  H
  H81      1.0000 0.87081  0.75222  0.65319  Biso   1.000  H
  H82      1.0000 0.95470  0.77270  0.65050  Biso   1.000  H
  C81      1.0000 0.99470  0.93486  0.64095  Biso   1.000  C
  C82      1.0000 0.66189  0.74357  0.62405  Biso   1.000  C
  C83      1.0000 0.68849  0.03930  0.89468  Biso   1.000  C
  C84      1.0000 0.63600  0.12097  0.85257  Biso   1.000  C
  C85      1.0000 0.49281  0.76059  0.67878  Biso   1.000  C
  C86      1.0000 0.56708  0.85968  0.69181  Biso   1.000  C
  C87      1.0000 0.75022  0.08141  0.89506  Biso   1.000  C
  C88      1.0000 0.69627  0.16130  0.85276  Biso   1.000  C
  C89      1.0000 0.96130  0.09238  0.70199  Biso   1.000  C
  C90      1.0000 0.08838  0.06768  0.70269  Biso   1.000  C
  H83      1.0000 0.94719  0.92838  0.63189  Biso   1.000  H
  C91      1.0000 0.00854  0.99297  0.66662  Biso   1.000  C
  C92      1.0000 0.60719  0.77259  0.64831  Biso   1.000  C
  H84      1.0000 0.64822  0.70908  0.60659  Biso   1.000  H
  H85      1.0000 0.68600  0.99697  0.90889  Biso   1.000  H
  H86      1.0000 0.59681  0.13541  0.83788  Biso   1.000  H
  C93      1.0000 0.54519  0.73519  0.65380  Biso   1.000  C
  H87      1.0000 0.44908  0.73438  0.68211  Biso   1.000  H
  C94      1.0000 0.61827  0.83649  0.66758  Biso   1.000  C
  H88      1.0000 0.57578  0.90319  0.70450  Biso   1.000  H
  H89      1.0000 0.78919  0.06800  0.91009  Biso   1.000  H
  H90      1.0000 0.69827  0.20319  0.83820  Biso   1.000  H
  C95      1.0000 0.94989  0.03497  0.67816  Biso   1.000  C
  H91      1.0000 0.92151  0.12141  0.70919  Biso   1.000  H
  C96      1.0000 0.07686  0.01038  0.67870  Biso   1.000  C
  H92      1.0000 0.13578  0.07968  0.71039  Biso   1.000  H
  H93      1.0000 0.53659  0.69178  0.64101  Biso   1.000  H
  H94      1.0000 0.66108  0.86400  0.66398  Biso   1.000  H
  H95      1.0000 0.90249  0.02470  0.66979  Biso   1.000  H
  H96      1.0000 0.11708  0.98297  0.67059  Biso   1.000  H
  C97      1.0000 0.41308  0.14319  0.57320  Biso   1.000  C
  C98      1.0000 0.36811  0.07778  0.56283  Biso   1.000  C
  H97      1.0000 0.44789  0.12941  0.59169  Biso   1.000  H
  H98      1.0000 0.38130  0.18130  0.58239  Biso   1.000  H
  H99      1.0000 0.43908  0.16108  0.55219  Biso   1.000  H
  C99      1.0000 0.38930  0.03449  0.53473  Biso   1.000  C
  C100     1.0000 0.30578  0.06303  0.58050  Biso   1.000  C
  C101     1.0000 0.46270  0.04368  0.51850  Biso   1.000  C
  C102     1.0000 0.34530  0.97768  0.52354  Biso   1.000  C
  C103     1.0000 0.25849  0.00465  0.57048  Biso   1.000  C
  C104     1.0000 0.28670  0.10573  0.61432  Biso   1.000  C
  N13      1.0000 0.48730  0.09168  0.49070  Biso   1.000  N
  H100     1.0000 0.49497  0.05378  0.53900  Biso   1.000  H
  H101     1.0000 0.47611  0.99481  0.51010  Biso   1.000  H
  C105     1.0000 0.28059  0.96162  0.54177  Biso   1.000  C
  C106     1.0000 0.36778  0.93059  0.49182  Biso   1.000  C
  C107     1.0000 0.18811  0.99011  0.58826  Biso   1.000  C
  N14      1.0000 0.24384  0.16800  0.60627  Biso   1.000  N
  H102     1.0000 0.25978  0.07400  0.63090  Biso   1.000  H
  H103     1.0000 0.33178  0.12108  0.62640  Biso   1.000  H
  C108     1.0000 0.44659  0.12308  0.47348  Biso   1.000  C
  C109     1.0000 0.23622  0.89422  0.53188  Biso   1.000  C
  H104     1.0000 0.33119  0.93422  0.47300  Biso   1.000  H
  H105     1.0000 0.37211  0.88022  0.49949  Biso   1.000  H
  H106     1.0000 0.41438  0.94730  0.48259  Biso   1.000  H
  H107     1.0000 0.16341  0.03600  0.59311  Biso   1.000  H
  H108     1.0000 0.19649  0.96459  0.61081  Biso   1.000  H
  H109     1.0000 0.15778  0.96027  0.57269  Biso   1.000  H
  C110     1.0000 0.18822  0.17865  0.62576  Biso   1.000  C
  C111     1.0000 0.47151  0.17470  0.44394  Biso   1.000  C
  H110     1.0000 0.39638  0.11697  0.47769  Biso   1.000  H
  N15      1.0000 0.17957  0.90211  0.50456  Biso   1.000  N
  H111     1.0000 0.27027  0.85649  0.52359  Biso   1.000  H
  H112     1.0000 0.21297  0.87600  0.55390  Biso   1.000  H
  C112     1.0000 0.14378  0.24335  0.62371  Biso   1.000  C
  H113     1.0000 0.17508  0.14238  0.64250  Biso   1.000  H
  C113     1.0000 0.41205  0.20595  0.42726  Biso   1.000  C
  C114     1.0000 0.54097  0.19416  0.43371  Biso   1.000  C
  C115     1.0000 0.16557  0.96151  0.49136  Biso   1.000  C
  C116     1.0000 0.08141  0.24978  0.64506  Biso   1.000  C
  C117     1.0000 0.16130  0.30368  0.60276  Biso   1.000  C
  C118     1.0000 0.42227  0.25659  0.40036  Biso   1.000  C
  H114     1.0000 0.36449  0.19270  0.43419  Biso   1.000  H
  C119     1.0000 0.55119  0.24486  0.40684  Biso   1.000  C
  H115     1.0000 0.58157  0.17281  0.44509  Biso   1.000  H
  C120     1.0000 0.10708  0.97168  0.46500  Biso   1.000  C
  H116     1.0000 0.19341  0.00222  0.49840  Biso   1.000  H
  C121     1.0000 0.03930  0.31151  0.64468  Biso   1.000  C
  H117     1.0000 0.06800  0.21081  0.66009  Biso   1.000  H
  C122     1.0000 0.12097  0.36400  0.60257  Biso   1.000  C
  H118     1.0000 0.20319  0.30168  0.58820  Biso   1.000  H
  C123     1.0000 0.49178  0.27605  0.39015  Biso   1.000  C
  H119     1.0000 0.38168  0.27800  0.38901  Biso   1.000  H
  H120     1.0000 0.59870  0.25811  0.39991  Biso   1.000  H
  C124     1.0000 0.09238  0.03870  0.45202  Biso   1.000  C
  C125     1.0000 0.06768  0.91162  0.45269  Biso   1.000  C
  C126     1.0000 0.05930  0.37097  0.62309  Biso   1.000  C
  H121     1.0000 0.99697  0.31400  0.65889  Biso   1.000  H
  H122     1.0000 0.13541  0.40319  0.58791  Biso   1.000  H
  C127     1.0000 0.50211  0.33022  0.36102  Biso   1.000  C
  C128     1.0000 0.03497  0.05011  0.42816  Biso   1.000  C
  H123     1.0000 0.12141  0.07849  0.45919  Biso   1.000  H
  C129     1.0000 0.01038  0.92314  0.42870  Biso   1.000  C
  H124     1.0000 0.07968  0.86422  0.46039  Biso   1.000  H
  C130     1.0000 0.01719  0.43670  0.62464  Biso   1.000  C
  N16      1.0000 0.56297  0.34535  0.34868  Biso   1.000  N
  H125     1.0000 0.46092  0.35400  0.35150  Biso   1.000  H
  C131     1.0000 0.99297  0.99146  0.41662  Biso   1.000  C
  H126     1.0000 0.02470  0.09751  0.41979  Biso   1.000  H
  H127     1.0000 0.98297  0.88286  0.42059  Biso   1.000  H
  N17      1.0000 0.03659  0.49324  0.60870  Biso   1.000  N
  H128     1.0000 0.97357  0.43719  0.63810  Biso   1.000  H
  C132     1.0000 0.57059  0.39611  0.31928  Biso   1.000  C
  C133     1.0000 0.93486  0.00530  0.39095  Biso   1.000  C
  C134     1.0000 0.99211  0.55968  0.61323  Biso   1.000  C
  C135     1.0000 0.50411  0.43319  0.30574  Biso   1.000  C
  H129     1.0000 0.59270  0.36978  0.29910  Biso   1.000  H
  H130     1.0000 0.60541  0.43389  0.32669  Biso   1.000  H
  N18      1.0000 0.89292  0.95503  0.38066  Biso   1.000  N
  H131     1.0000 0.92838  0.05281  0.38189  Biso   1.000  H
  C136     1.0000 0.98486  0.59919  0.57842  Biso   1.000  C
  H132     1.0000 0.01492  0.59168  0.63109  Biso   1.000  H
  H133     1.0000 0.94351  0.54627  0.62211  Biso   1.000  H
  C137     1.0000 0.46232  0.40259  0.27855  Biso   1.000  C
  C138     1.0000 0.48541  0.50157  0.31946  Biso   1.000  C
  C139     1.0000 0.83649  0.96968  0.35422  Biso   1.000  C
  C140     1.0000 0.04130  0.64227  0.56488  Biso   1.000  C
  C141     1.0000 0.91838  0.59427  0.56051  Biso   1.000  C
  C142     1.0000 0.40486  0.44081  0.26351  Biso   1.000  C
  C143     1.0000 0.48038  0.32730  0.26546  Biso   1.000  C
  C144     1.0000 0.42703  0.54000  0.30422  Biso   1.000  C
  C145     1.0000 0.52908  0.53200  0.35028  Biso   1.000  C
  C146     1.0000 0.83146  0.04632  0.33842  Biso   1.000  C
  H134     1.0000 0.78930  0.95827  0.36531  Biso   1.000  H
  H135     1.0000 0.84341  0.93551  0.33420  Biso   1.000  H
  C147     1.0000 0.02941  0.68335  0.53457  Biso   1.000  C
  C148     1.0000 0.11541  0.64081  0.58271  Biso   1.000  C
  C149     1.0000 0.90768  0.63811  0.52972  Biso   1.000  C
  C150     1.0000 0.85670  0.54789  0.57237  Biso   1.000  C
  C151     1.0000 0.36519  0.41070  0.23083  Biso   1.000  C
  C152     1.0000 0.38551  0.50881  0.27714  Biso   1.000  C
  H136     1.0000 0.51789  0.33027  0.24709  Biso   1.000  H
  H137     1.0000 0.43697  0.30492  0.25541  Biso   1.000  H
  H138     1.0000 0.49800  0.29811  0.28540  Biso   1.000  H
  C153     1.0000 0.41292  0.61541  0.31560  Biso   1.000  C
  H139     1.0000 0.49978  0.56730  0.36328  Biso   1.000  H
  H140     1.0000 0.57259  0.55557  0.34100  Biso   1.000  H
  H141     1.0000 0.54297  0.49259  0.36640  Biso   1.000  H
  C154     1.0000 0.87195  0.05919  0.30739  Biso   1.000  C
  C155     1.0000 0.78859  0.10011  0.35305  Biso   1.000  C
  C156     1.0000 0.08670  0.73481  0.52039  Biso   1.000  C
  C157     1.0000 0.96459  0.68076  0.51634  Biso   1.000  C
  H142     1.0000 0.12070  0.59589  0.59631  Biso   1.000  H
  H143     1.0000 0.11978  0.68222  0.59889  Biso   1.000  H
  H144     1.0000 0.15319  0.64351  0.56451  Biso   1.000  H
  C158     1.0000 0.83449  0.64789  0.51301  Biso   1.000  C
  H145     1.0000 0.82649  0.57497  0.58919  Biso   1.000  H
  H146     1.0000 0.87551  0.50449  0.58410  Biso   1.000  H
  H147     1.0000 0.82768  0.53389  0.55160  Biso   1.000  H
  N19      1.0000 0.29676  0.37389  0.24112  Biso   1.000  N
  H148     1.0000 0.35422  0.45081  0.21420  Biso   1.000  H
  H149     1.0000 0.39697  0.37600  0.21831  Biso   1.000  H
  C159     1.0000 0.31908  0.54622  0.26266  Biso   1.000  C
  N20      1.0000 0.35924  0.61838  0.34697  Biso   1.000  N
  H150     1.0000 0.39297  0.64308  0.29529  Biso   1.000  H
  H151     1.0000 0.45897  0.63838  0.32280  Biso   1.000  H
  C160     1.0000 0.86303  0.12778  0.28982  Biso   1.000  C
  C161     1.0000 0.92389  0.00459  0.29254  Biso   1.000  C
  C162     1.0000 0.78178  0.16481  0.33687  Biso   1.000  C
  C163     1.0000 0.74957  0.08589  0.38815  Biso   1.000  C
  N21      1.0000 0.12308  0.70649  0.48870  Biso   1.000  N
  H152     1.0000 0.06378  0.78157  0.51450  Biso   1.000  H
  H153     1.0000 0.12308  0.74368  0.53921  Biso   1.000  H
  C164     1.0000 0.95357  0.72189  0.48166  Biso   1.000  C
  N22      1.0000 0.80681  0.60000  0.48358  Biso   1.000  N
  H154     1.0000 0.83270  0.69800  0.50379  Biso   1.000  H
  H155     1.0000 0.79870  0.64508  0.53260  Biso   1.000  H
  C165     1.0000 0.28762  0.31151  0.22865  Biso   1.000  C
  H156     1.0000 0.33081  0.56919  0.23990  Biso   1.000  H
  H157     1.0000 0.30281  0.58292  0.27969  Biso   1.000  H
  H158     1.0000 0.28059  0.51049  0.25901  Biso   1.000  H
  C166     1.0000 0.37589  0.65838  0.37040  Biso   1.000  C
  C167     1.0000 0.89892  0.13951  0.25448  Biso   1.000  C
  C168     1.0000 0.81946  0.18162  0.30499  Biso   1.000  C
  H159     1.0000 0.89730  0.96886  0.27839  Biso   1.000  H
  H160     1.0000 0.94886  0.98022  0.31219  Biso   1.000  H
  H161     1.0000 0.95930  0.02919  0.27740  Biso   1.000  H
  C169     1.0000 0.72892  0.22070  0.35148  Biso   1.000  C
  H162     1.0000 0.69892  0.07411  0.38341  Biso   1.000  H
  H163     1.0000 0.75222  0.12919  0.40319  Biso   1.000  H
  H164     1.0000 0.77270  0.04530  0.40050  Biso   1.000  H
  C170     1.0000 0.18438  0.72378  0.48654  Biso   1.000  C
  H165     1.0000 0.94881  0.77357  0.48681  Biso   1.000  H
  H166     1.0000 0.90968  0.70449  0.46991  Biso   1.000  H
  H167     1.0000 0.99530  0.71411  0.46599  Biso   1.000  H
  C171     1.0000 0.84681  0.54627  0.47638  Biso   1.000  C
  C172     1.0000 0.21892  0.27022  0.23417  Biso   1.000  C
  H168     1.0000 0.32551  0.28989  0.21529  Biso   1.000  H
  C173     1.0000 0.32589  0.67070  0.40234  Biso   1.000  C
  H169     1.0000 0.42081  0.68308  0.36931  Biso   1.000  H
  N23      1.0000 0.96562  0.18308  0.25648  Biso   1.000  N
  H170     1.0000 0.91081  0.09178  0.24400  Biso   1.000  H
  H171     1.0000 0.86438  0.16378  0.23830  Biso   1.000  H
  C174     1.0000 0.81627  0.25459  0.28796  Biso   1.000  C
  N24      1.0000 0.76400  0.27178  0.37600  Biso   1.000  N
  H172     1.0000 0.70741  0.24789  0.33141  Biso   1.000  H
  H173     1.0000 0.68919  0.19562  0.36411  Biso   1.000  H
  C175     1.0000 0.23697  0.70222  0.45778  Biso   1.000  C
  H174     1.0000 0.20238  0.75459  0.50480  Biso   1.000  H
  C176     1.0000 0.82286  0.49508  0.44821  Biso   1.000  C
  H175     1.0000 0.89108  0.53892  0.48870  Biso   1.000  H
  C177     1.0000 0.21141  0.20368  0.21895  Biso   1.000  C
  C178     1.0000 0.16362  0.29968  0.25259  Biso   1.000  C
  C179     1.0000 0.34530  0.72681  0.42529  Biso   1.000  C
  C180     1.0000 0.26600  0.63259  0.40617  Biso   1.000  C
  C181     1.0000 0.02092  0.15692  0.24171  Biso   1.000  C
  H176     1.0000 0.77530  0.25659  0.27151  Biso   1.000  H
  H177     1.0000 0.86119  0.26351  0.27479  Biso   1.000  H
  H178     1.0000 0.81027  0.29162  0.30640  Biso   1.000  H
  C182     1.0000 0.74357  0.33811  0.37405  Biso   1.000  C
  C183     1.0000 0.30049  0.74070  0.45407  Biso   1.000  C
  C184     1.0000 0.21989  0.64827  0.43525  Biso   1.000  C
  C185     1.0000 0.76059  0.50719  0.42878  Biso   1.000  C
  C186     1.0000 0.85968  0.43292  0.44181  Biso   1.000  C
  C187     1.0000 0.14762  0.16622  0.22191  Biso   1.000  C
  H179     1.0000 0.25070  0.18308  0.20621  Biso   1.000  H
  H180     1.0000 0.16930  0.34568  0.26349  Biso   1.000  H
  C188     1.0000 0.09649  0.26211  0.25565  Biso   1.000  C
  H181     1.0000 0.38778  0.75449  0.42129  Biso   1.000  H
  H182     1.0000 0.25422  0.59541  0.38970  Biso   1.000  H
  C189     1.0000 0.08892  0.19530  0.24030  Biso   1.000  C
  H183     1.0000 0.01778  0.11032  0.23110  Biso   1.000  H
  C190     1.0000 0.77259  0.39281  0.39831  Biso   1.000  C
  H184     1.0000 0.70908  0.35178  0.35659  Biso   1.000  H
  H185     1.0000 0.31330  0.77649  0.47111  Biso   1.000  H
  H186     1.0000 0.17697  0.62097  0.43880  Biso   1.000  H
  C191     1.0000 0.73519  0.45481  0.40380  Biso   1.000  C
  H187     1.0000 0.73438  0.55092  0.43211  Biso   1.000  H
  C192     1.0000 0.83649  0.38168  0.41758  Biso   1.000  C
  H188     1.0000 0.90319  0.42422  0.45450  Biso   1.000  H
  H189     1.0000 0.14341  0.11978  0.21130  Biso   1.000  H
  H190     1.0000 0.05730  0.28319  0.26829  Biso   1.000  H
  H191     1.0000 0.69178  0.46341  0.39101  Biso   1.000  H
  H192     1.0000 0.86400  0.33892  0.41401  Biso   1.000  H
  C193     1.0000 0.63481  0.58930  0.73083  Biso   1.000  C
  N25      1.0000 0.70319  0.62611  0.74112  Biso   1.000  N
  C194     1.0000 0.59514  0.55919  0.76351  Biso   1.000  C
  H193     1.0000 0.64578  0.54919  0.71420  Biso   1.000  H
  H194     1.0000 0.60297  0.62400  0.71831  Biso   1.000  H
  C195     1.0000 0.71238  0.68849  0.72865  Biso   1.000  C
  C196     1.0000 0.61449  0.49119  0.77714  Biso   1.000  C
  C197     1.0000 0.53762  0.59741  0.77855  Biso   1.000  C
  C198     1.0000 0.78103  0.72978  0.73417  Biso   1.000  C
  H195     1.0000 0.67449  0.71011  0.71529  Biso   1.000  H
  C199     1.0000 0.57297  0.46000  0.80422  Biso   1.000  C
  C200     1.0000 0.68092  0.45378  0.76263  Biso   1.000  C
  C201     1.0000 0.49589  0.56681  0.80574  Biso   1.000  C
  C202     1.0000 0.51957  0.67270  0.76546  Biso   1.000  C
  C203     1.0000 0.78859  0.79627  0.71895  Biso   1.000  C
  C204     1.0000 0.83638  0.70027  0.75259  Biso   1.000  C
  C205     1.0000 0.51459  0.49838  0.81946  Biso   1.000  C
  C206     1.0000 0.58708  0.38459  0.81560  Biso   1.000  C
  H196     1.0000 0.66919  0.43081  0.73990  Biso   1.000  H
  H197     1.0000 0.69719  0.41708  0.77969  Biso   1.000  H
  H198     1.0000 0.71941  0.48951  0.75898  Biso   1.000  H
  C207     1.0000 0.42941  0.60389  0.81928  Biso   1.000  C
  H199     1.0000 0.48211  0.66968  0.74709  Biso   1.000  H
  H200     1.0000 0.56297  0.69508  0.75538  Biso   1.000  H
  H201     1.0000 0.50200  0.70189  0.78540  Biso   1.000  H
  C208     1.0000 0.85238  0.83378  0.72191  Biso   1.000  C
  H202     1.0000 0.74930  0.81686  0.70621  Biso   1.000  H
  H203     1.0000 0.83070  0.65427  0.76349  Biso   1.000  H
  C209     1.0000 0.90351  0.73789  0.75565  Biso   1.000  C
  C210     1.0000 0.47092  0.46800  0.85028  Biso   1.000  C
  N26      1.0000 0.64076  0.38162  0.84697  Biso   1.000  N
  H204     1.0000 0.60697  0.35692  0.79529  Biso   1.000  H
  H205     1.0000 0.54097  0.36162  0.82280  Biso   1.000  H
  N27      1.0000 0.43703  0.65465  0.84868  Biso   1.000  N
  H206     1.0000 0.40730  0.63022  0.79910  Biso   1.000  H
  H207     1.0000 0.39459  0.56611  0.82669  Biso   1.000  H
  C211     1.0000 0.91108  0.80470  0.74030  Biso   1.000  C
  H208     1.0000 0.85659  0.88022  0.71130  Biso   1.000  H
  H209     1.0000 0.94270  0.71681  0.76829  Biso   1.000  H
  H210     1.0000 0.50022  0.43270  0.86328  Biso   1.000  H
  H211     1.0000 0.42741  0.44438  0.84100  Biso   1.000  H
  H212     1.0000 0.45697  0.50741  0.86640  Biso   1.000  H
  C212     1.0000 0.62411  0.34162  0.87040  Biso   1.000  C
  C213     1.0000 0.49789  0.66978  0.86102  Biso   1.000  C
  C214     1.0000 0.97908  0.84308  0.74168  Biso   1.000  C
  C215     1.0000 0.67411  0.32930  0.90234  Biso   1.000  C
  H213     1.0000 0.57919  0.31692  0.86928  Biso   1.000  H
  C216     1.0000 0.50816  0.72395  0.89015  Biso   1.000  C
  H214     1.0000 0.53908  0.64600  0.85150  Biso   1.000  H
  H215     1.0000 0.98222  0.88968  0.73110  Biso   1.000  H
  N28      1.0000 0.03438  0.81692  0.75648  Biso   1.000  N
  C217     1.0000 0.65470  0.27319  0.92529  Biso   1.000  C
  C218     1.0000 0.73400  0.36741  0.90617  Biso   1.000  C
  C219     1.0000 0.57773  0.74335  0.90036  Biso   1.000  C
  C220     1.0000 0.44881  0.75514  0.90681  Biso   1.000  C
  C221     1.0000 0.10108  0.86049  0.75448  Biso   1.000  C
  C222     1.0000 0.69951  0.25930  0.95407  Biso   1.000  C
  H216     1.0000 0.61222  0.24551  0.92129  Biso   1.000  H
  H217     1.0000 0.74578  0.40459  0.88970  Biso   1.000  H
  C223     1.0000 0.78011  0.35168  0.93525  Biso   1.000  C
  H218     1.0000 0.61827  0.72200  0.88901  Biso   1.000  H
  C224     1.0000 0.58789  0.79405  0.92726  Biso   1.000  C
  C225     1.0000 0.45897  0.80584  0.93371  Biso   1.000  C
  H219     1.0000 0.40130  0.74189  0.89988  Biso   1.000  H
  C226     1.0000 0.13697  0.87222  0.78982  Biso   1.000  C
  H220     1.0000 0.08919  0.90822  0.74400  Biso   1.000  H
  H221     1.0000 0.13562  0.83622  0.73830  Biso   1.000  H
  C227     1.0000 0.76297  0.29778  0.95778  Biso   1.000  C
  H222     1.0000 0.68670  0.22351  0.97111  Biso   1.000  H
  H223     1.0000 0.82297  0.37897  0.93880  Biso   1.000  H
  H224     1.0000 0.63551  0.80730  0.93419  Biso   1.000  H
  C228     1.0000 0.52849  0.82530  0.94394  Biso   1.000  C
  H225     1.0000 0.41838  0.82719  0.94509  Biso   1.000  H
  C229     1.0000 0.12800  0.94081  0.80739  Biso   1.000  C
  C230     1.0000 0.18049  0.81838  0.80496  Biso   1.000  C
  C231     1.0000 0.81557  0.27622  0.98654  Biso   1.000  C
  C232     1.0000 0.55341  0.87686  0.97348  Biso   1.000  C
  C233     1.0000 0.16854  0.95368  0.83842  Biso   1.000  C
  C234     1.0000 0.07611  0.99541  0.79254  Biso   1.000  C
  C235     1.0000 0.21822  0.83519  0.83687  Biso   1.000  C
  C236     1.0000 0.18368  0.74541  0.78796  Biso   1.000  C
  N29      1.0000 0.87686  0.29351  0.98870  Biso   1.000  N
  H226     1.0000 0.79757  0.24541  0.00480  Biso   1.000  H
  N30      1.0000 0.51270  0.90827  0.99070  Biso   1.000  N
  H227     1.0000 0.60357  0.88297  0.97769  Biso   1.000  H
  C237     1.0000 0.21141  0.89989  0.85302  Biso   1.000  C
  C238     1.0000 0.16351  0.03032  0.85422  Biso   1.000  C
  H228     1.0000 0.04070  0.97081  0.77740  Biso   1.000  H
  H229     1.0000 0.10270  0.03108  0.77839  Biso   1.000  H
  H230     1.0000 0.05108  0.01978  0.81219  Biso   1.000  H
  C239     1.0000 0.27108  0.77930  0.85148  Biso   1.000  C
  H231     1.0000 0.22470  0.74341  0.77148  Biso   1.000  H
  H232     1.0000 0.13881  0.73649  0.77479  Biso   1.000  H
  H233     1.0000 0.18968  0.70838  0.80640  Biso   1.000  H
  C240     1.0000 0.91330  0.26519  0.02039  Biso   1.000  C
  C241     1.0000 0.53730  0.95627  0.01850  Biso   1.000  C
  C242     1.0000 0.25038  0.91411  0.88815  Biso   1.000  C
  N31      1.0000 0.10708  0.04492  0.88066  Biso   1.000  N
  H234     1.0000 0.21070  0.04168  0.86528  Biso   1.000  H
  H235     1.0000 0.15659  0.06449  0.83420  Biso   1.000  H
  N32      1.0000 0.23600  0.72822  0.87600  Biso   1.000  N
  H236     1.0000 0.29259  0.75211  0.83141  Biso   1.000  H
  H237     1.0000 0.31081  0.80438  0.86408  Biso   1.000  H
  C243     1.0000 0.97059  0.31665  0.03457  Biso   1.000  C
  H238     1.0000 0.93622  0.21838  0.01450  Biso   1.000  H
  H239     1.0000 0.87686  0.25627  0.03921  Biso   1.000  H
  C244     1.0000 0.61070  0.96551  0.03473  Biso   1.000  C
  H240     1.0000 0.50497  0.94622  0.03900  Biso   1.000  H
  H241     1.0000 0.52389  0.00519  0.01010  Biso   1.000  H
  H242     1.0000 0.30108  0.92589  0.88338  Biso   1.000  H
  H243     1.0000 0.24778  0.87081  0.90319  Biso   1.000  H
  H244     1.0000 0.22730  0.95470  0.90050  Biso   1.000  H
  C245     1.0000 0.06514  0.99470  0.89095  Biso   1.000  C
  C246     1.0000 0.25638  0.66189  0.87405  Biso   1.000  C
  C247     1.0000 0.95870  0.35773  0.06488  Biso   1.000  C
  C248     1.0000 0.03541  0.31924  0.01634  Biso   1.000  C
  C249     1.0000 0.63189  0.92222  0.06283  Biso   1.000  C
  C250     1.0000 0.65470  0.02232  0.02354  Biso   1.000  C
  H245     1.0000 0.07162  0.94719  0.88189  Biso   1.000  H
  C251     1.0000 0.00703  0.00854  0.91662  Biso   1.000  C
  C252     1.0000 0.22741  0.60719  0.89831  Biso   1.000  C
  H246     1.0000 0.29092  0.64822  0.85659  Biso   1.000  H
  C253     1.0000 0.88459  0.35919  0.08271  Biso   1.000  C
  C254     1.0000 0.01508  0.40081  0.07842  Biso   1.000  C
  C255     1.0000 0.04638  0.27811  0.98166  Biso   1.000  C
  C256     1.0000 0.09232  0.36189  0.02972  Biso   1.000  C
  C257     1.0000 0.69422  0.93697  0.08050  Biso   1.000  C
  C258     1.0000 0.58692  0.85681  0.07320  Biso   1.000  C
  C259     1.0000 0.63222  0.06941  0.99182  Biso   1.000  C
  C260     1.0000 0.71941  0.03838  0.04177  Biso   1.000  C
  C261     1.0000 0.96497  0.94989  0.92816  Biso   1.000  C
  C262     1.0000 0.98957  0.07686  0.92870  Biso   1.000  C
  C263     1.0000 0.26481  0.54519  0.90380  Biso   1.000  C
  C264     1.0000 0.16351  0.61827  0.91758  Biso   1.000  C
  H247     1.0000 0.87930  0.40411  0.09631  Biso   1.000  H
  H248     1.0000 0.88022  0.31778  0.09889  Biso   1.000  H
  H249     1.0000 0.84681  0.35649  0.06451  Biso   1.000  H
  C265     1.0000 0.08162  0.40573  0.06051  Biso   1.000  C
  C266     1.0000 0.00789  0.44027  0.11323  Biso   1.000  C
  H250     1.0000 0.05119  0.22638  0.98681  Biso   1.000  H
  H251     1.0000 0.09032  0.29551  0.96991  Biso   1.000  H
  H252     1.0000 0.00470  0.28589  0.96599  Biso   1.000  H
  C267     1.0000 0.16551  0.35211  0.01301  Biso   1.000  C
  C268     1.0000 0.74151  0.99535  0.07048  Biso   1.000  C
  C269     1.0000 0.71330  0.89427  0.11435  Biso   1.000  C
  H253     1.0000 0.55211  0.87059  0.09169  Biso   1.000  H
  H254     1.0000 0.61870  0.81870  0.08239  Biso   1.000  H
  H255     1.0000 0.56092  0.83886  0.05219  Biso   1.000  H
  H256     1.0000 0.66881  0.06578  0.97300  Biso   1.000  H
  H257     1.0000 0.62789  0.11978  0.99949  Biso   1.000  H
  H258     1.0000 0.58557  0.05270  0.98259  Biso   1.000  H
  C270     1.0000 0.76378  0.10578  0.03188  Biso   1.000  C
  H259     1.0000 0.97530  0.90249  0.91979  Biso   1.000  H
  C271     1.0000 0.90757  0.96130  0.95199  Biso   1.000  C
  C272     1.0000 0.93227  0.08838  0.95269  Biso   1.000  C
  H260     1.0000 0.01697  0.11708  0.92059  Biso   1.000  H
  C273     1.0000 0.23941  0.49281  0.92878  Biso   1.000  C
  H261     1.0000 0.30822  0.53659  0.89101  Biso   1.000  H
  H262     1.0000 0.13600  0.66108  0.91398  Biso   1.000  H
  C274     1.0000 0.14032  0.56708  0.94181  Biso   1.000  C
  C275     1.0000 0.14330  0.45211  0.07237  Biso   1.000  C
  N33      1.0000 0.96341  0.50676  0.10870  Biso   1.000  N
  H263     1.0000 0.98508  0.40827  0.13109  Biso   1.000  H
  H264     1.0000 0.05649  0.45368  0.12211  Biso   1.000  H
  N34      1.0000 0.19319  0.40000  0.98355  Biso   1.000  N
  H265     1.0000 0.16730  0.30200  0.00381  Biso   1.000  H
  H266     1.0000 0.20130  0.35492  0.03260  Biso   1.000  H
  C276     1.0000 0.81189  0.00989  0.08828  Biso   1.000  C
  N35      1.0000 0.75616  0.83200  0.10630  Biso   1.000  N
  H267     1.0000 0.74022  0.92600  0.13090  Biso   1.000  H
  H268     1.0000 0.66822  0.87886  0.12640  Biso   1.000  H
  N36      1.0000 0.82043  0.09784  0.00456  Biso   1.000  N
  H269     1.0000 0.72968  0.14351  0.02359  Biso   1.000  H
  H270     1.0000 0.78697  0.12400  0.05390  Biso   1.000  H
  H271     1.0000 0.87859  0.92151  0.95919  Biso   1.000  H
  C277     1.0000 0.89292  0.02832  0.96500  Biso   1.000  C
  H272     1.0000 0.92027  0.13578  0.96039  Biso   1.000  H
  C278     1.0000 0.17708  0.50492  0.94818  Biso   1.000  C
  H273     1.0000 0.26562  0.44908  0.93208  Biso   1.000  H
  H274     1.0000 0.09681  0.57578  0.95450  Biso   1.000  H
  H275     1.0000 0.17351  0.42497  0.08919  Biso   1.000  H
  H276     1.0000 0.12449  0.49551  0.08410  Biso   1.000  H
  H277     1.0000 0.17232  0.46611  0.05160  Biso   1.000  H
  C279     1.0000 0.98281  0.56330  0.12464  Biso   1.000  C
  C280     1.0000 0.15319  0.45368  0.97638  Biso   1.000  C
  H278     1.0000 0.83659  0.96400  0.09311  Biso   1.000  H
  H279     1.0000 0.80351  0.03541  0.11081  Biso   1.000  H
  H280     1.0000 0.84222  0.03968  0.07269  Biso   1.000  H
  C281     1.0000 0.81178  0.82135  0.12576  Biso   1.000  C
  C282     1.0000 0.83443  0.03849  0.99136  Biso   1.000  C
  C283     1.0000 0.94070  0.62903  0.12309  Biso   1.000  C
  H281     1.0000 0.02638  0.56281  0.13810  Biso   1.000  H
  H282     1.0000 0.10892  0.46108  0.98870  Biso   1.000  H
  C284     1.0000 0.85622  0.75665  0.12371  Biso   1.000  C
  H283     1.0000 0.82486  0.85757  0.14250  Biso   1.000  H
  H284     1.0000 0.80659  0.99778  0.99840  Biso   1.000  H
  C285     1.0000 0.96070  0.68849  0.14468  Biso   1.000  C
  C286     1.0000 0.87897  0.63600  0.10257  Biso   1.000  C
  C287     1.0000 0.91859  0.75022  0.14506  Biso   1.000  C
  C288     1.0000 0.83870  0.69627  0.10276  Biso   1.000  C
  H285     1.0000 0.00297  0.68600  0.15889  Biso   1.000  H
  H286     1.0000 0.86459  0.59681  0.08791  Biso   1.000  H
  H287     1.0000 0.93200  0.78919  0.16009  Biso   1.000  H
  H288     1.0000 0.79681  0.69827  0.08820  Biso   1.000  H
  C289     1.0000 0.30368  0.83870  0.35276  Biso   1.000  C
  C290     1.0000 0.24335  0.85622  0.37371  Biso   1.000  C
  H289     1.0000 0.30168  0.79681  0.33820  Biso   1.000  H
  C291     1.0000 0.36400  0.87897  0.35257  Biso   1.000  C
  C292     1.0000 0.17865  0.81178  0.37576  Biso   1.000  C
  C293     1.0000 0.24978  0.91859  0.39506  Biso   1.000  C
  C294     1.0000 0.37097  0.94070  0.37309  Biso   1.000  C
  H290     1.0000 0.40319  0.86459  0.33791  Biso   1.000  H
  N37      1.0000 0.16800  0.75616  0.35630  Biso   1.000  N
  H291     1.0000 0.14238  0.82486  0.39250  Biso   1.000  H
  C295     1.0000 0.31151  0.96070  0.39468  Biso   1.000  C
  H292     1.0000 0.21081  0.93200  0.41009  Biso   1.000  H
  C296     1.0000 0.43670  0.98281  0.37464  Biso   1.000  C
  C297     1.0000 0.10573  0.71330  0.36435  Biso   1.000  C
  H293     1.0000 0.31400  0.00297  0.40889  Biso   1.000  H
  N38      1.0000 0.49324  0.96341  0.35870  Biso   1.000  N
  H294     1.0000 0.43719  0.02638  0.38810  Biso   1.000  H
  C298     1.0000 0.06303  0.69422  0.33050  Biso   1.000  C
  H295     1.0000 0.07400  0.74022  0.38090  Biso   1.000  H
  H296     1.0000 0.12108  0.66822  0.37640  Biso   1.000  H
  C299     1.0000 0.55968  0.00789  0.36323  Biso   1.000  C
  C300     1.0000 0.07778  0.63189  0.31283  Biso   1.000  C
  C301     1.0000 0.00465  0.74151  0.32048  Biso   1.000  C
  H297     1.0000 0.59168  0.98508  0.38109  Biso   1.000  H
  C302     1.0000 0.59919  0.01508  0.32842  Biso   1.000  C
  H298     1.0000 0.54627  0.05649  0.37211  Biso   1.000  H
  C303     1.0000 0.03449  0.61070  0.28473  Biso   1.000  C
  C304     1.0000 0.14319  0.58692  0.32320  Biso   1.000  C
  C305     1.0000 0.96162  0.71941  0.29177  Biso   1.000  C
  C306     1.0000 0.99011  0.81189  0.33826  Biso   1.000  C
  C307     1.0000 0.64227  0.95870  0.31488  Biso   1.000  C
  C308     1.0000 0.59427  0.08162  0.31051  Biso   1.000  C
  C309     1.0000 0.04368  0.53730  0.26850  Biso   1.000  C
  C310     1.0000 0.97768  0.65470  0.27354  Biso   1.000  C
  H299     1.0000 0.12941  0.55211  0.34169  Biso   1.000  H
  H300     1.0000 0.18130  0.61870  0.33239  Biso   1.000  H
  H301     1.0000 0.16108  0.56092  0.30219  Biso   1.000  H
  C311     1.0000 0.89422  0.76378  0.28188  Biso   1.000  C
  H302     1.0000 0.03600  0.83659  0.34311  Biso   1.000  H
  H303     1.0000 0.96459  0.80351  0.36081  Biso   1.000  H
  H304     1.0000 0.96027  0.84222  0.32269  Biso   1.000  H
  C312     1.0000 0.68335  0.97059  0.28457  Biso   1.000  C
  C313     1.0000 0.64081  0.88459  0.33271  Biso   1.000  C
  C314     1.0000 0.63811  0.09232  0.27972  Biso   1.000  C
  C315     1.0000 0.54789  0.14330  0.32237  Biso   1.000  C
  N39      1.0000 0.09168  0.51270  0.24070  Biso   1.000  N
  H305     1.0000 0.05378  0.50497  0.28900  Biso   1.000  H
  H306     1.0000 0.99481  0.52389  0.26010  Biso   1.000  H
  C316     1.0000 0.93059  0.63222  0.24182  Biso   1.000  C
  N40      1.0000 0.90211  0.82043  0.25456  Biso   1.000  N
  H307     1.0000 0.85649  0.72968  0.27359  Biso   1.000  H
  H308     1.0000 0.87600  0.78697  0.30390  Biso   1.000  H
  C317     1.0000 0.73481  0.91330  0.27039  Biso   1.000  C
  C318     1.0000 0.68076  0.03541  0.26634  Biso   1.000  C
  H309     1.0000 0.59589  0.87930  0.34631  Biso   1.000  H
  H310     1.0000 0.68222  0.88022  0.34889  Biso   1.000  H
  H311     1.0000 0.64351  0.84681  0.31451  Biso   1.000  H
  C319     1.0000 0.64789  0.16551  0.26301  Biso   1.000  C
  H312     1.0000 0.57497  0.17351  0.33919  Biso   1.000  H
  H313     1.0000 0.50449  0.12449  0.33410  Biso   1.000  H
  H314     1.0000 0.53389  0.17232  0.30160  Biso   1.000  H
  C320     1.0000 0.12308  0.55341  0.22348  Biso   1.000  C
  H315     1.0000 0.93422  0.66881  0.22300  Biso   1.000  H
  H316     1.0000 0.88022  0.62789  0.24949  Biso   1.000  H
  H317     1.0000 0.94730  0.58557  0.23259  Biso   1.000  H
  C321     1.0000 0.96151  0.83443  0.24136  Biso   1.000  C
  N41      1.0000 0.70649  0.87686  0.23870  Biso   1.000  N
  H318     1.0000 0.78157  0.93622  0.26450  Biso   1.000  H
  H319     1.0000 0.74368  0.87686  0.28921  Biso   1.000  H
  C322     1.0000 0.72189  0.04638  0.23166  Biso   1.000  C
  N42      1.0000 0.60000  0.19319  0.23358  Biso   1.000  N
  H320     1.0000 0.69800  0.16730  0.25381  Biso   1.000  H
  H321     1.0000 0.64508  0.20130  0.28260  Biso   1.000  H
  C323     1.0000 0.17470  0.52849  0.19394  Biso   1.000  C
  H322     1.0000 0.11697  0.60357  0.22769  Biso   1.000  H
  H323     1.0000 0.00222  0.80659  0.24840  Biso   1.000  H
  C324     1.0000 0.97168  0.89292  0.21500  Biso   1.000  C
  C325     1.0000 0.72378  0.81557  0.23654  Biso   1.000  C
  H324     1.0000 0.77357  0.05119  0.23681  Biso   1.000  H
  H325     1.0000 0.70449  0.09032  0.21991  Biso   1.000  H
  H326     1.0000 0.71411  0.00470  0.21599  Biso   1.000  H
  C326     1.0000 0.54627  0.15319  0.22638  Biso   1.000  C
  C327     1.0000 0.19416  0.45897  0.18371  Biso   1.000  C
  C328     1.0000 0.20595  0.58789  0.17726  Biso   1.000  C
  C329     1.0000 0.03870  0.90757  0.20202  Biso   1.000  C
  C330     1.0000 0.91162  0.93227  0.20269  Biso   1.000  C
  C331     1.0000 0.70222  0.76297  0.20778  Biso   1.000  C
  H327     1.0000 0.75459  0.79757  0.25480  Biso   1.000  H
  H328     1.0000 0.53892  0.10892  0.23870  Biso   1.000  H
  C332     1.0000 0.49508  0.17708  0.19821  Biso   1.000  C
  H329     1.0000 0.17281  0.41838  0.19509  Biso   1.000  H
  C333     1.0000 0.24486  0.44881  0.15684  Biso   1.000  C
  C334     1.0000 0.25659  0.57773  0.15036  Biso   1.000  C
  H330     1.0000 0.19270  0.63551  0.18419  Biso   1.000  H
  C335     1.0000 0.05011  0.96497  0.17816  Biso   1.000  C
  H331     1.0000 0.07849  0.87859  0.20919  Biso   1.000  H
  H332     1.0000 0.86422  0.92027  0.21039  Biso   1.000  H
  C336     1.0000 0.92314  0.98957  0.17870  Biso   1.000  C
  C337     1.0000 0.74070  0.69951  0.20407  Biso   1.000  C
  C338     1.0000 0.64827  0.78011  0.18525  Biso   1.000  C
  C339     1.0000 0.50719  0.23941  0.17878  Biso   1.000  C
  C340     1.0000 0.43292  0.14032  0.19181  Biso   1.000  C
  C341     1.0000 0.27605  0.50816  0.14015  Biso   1.000  C
  H333     1.0000 0.25811  0.40130  0.14991  Biso   1.000  H
  H334     1.0000 0.27800  0.61827  0.13901  Biso   1.000  H
  H335     1.0000 0.09751  0.97530  0.16979  Biso   1.000  H
  C342     1.0000 0.99146  0.00703  0.16662  Biso   1.000  C
  H336     1.0000 0.88286  0.01697  0.17059  Biso   1.000  H
  C343     1.0000 0.72681  0.65470  0.17531  Biso   1.000  C
  H337     1.0000 0.77649  0.68670  0.22111  Biso   1.000  H
  C344     1.0000 0.63259  0.73400  0.15617  Biso   1.000  C
  H338     1.0000 0.62097  0.82297  0.18880  Biso   1.000  H
  C345     1.0000 0.45481  0.26481  0.15380  Biso   1.000  C
  H339     1.0000 0.55092  0.26562  0.18211  Biso   1.000  H
  C346     1.0000 0.38168  0.16351  0.16758  Biso   1.000  C
  H340     1.0000 0.42422  0.09681  0.20450  Biso   1.000  H
  C347     1.0000 0.33022  0.49789  0.11102  Biso   1.000  C
  C348     1.0000 0.00530  0.06514  0.14095  Biso   1.000  C
  C349     1.0000 0.67070  0.67411  0.15234  Biso   1.000  C
  H341     1.0000 0.75449  0.61222  0.17129  Biso   1.000  H
  H342     1.0000 0.59541  0.74578  0.13970  Biso   1.000  H
  C350     1.0000 0.39281  0.22741  0.14831  Biso   1.000  C
  H343     1.0000 0.46341  0.30822  0.14101  Biso   1.000  H
  H344     1.0000 0.33892  0.13600  0.16401  Biso   1.000  H
  N43      1.0000 0.34535  0.43703  0.09868  Biso   1.000  N
  H345     1.0000 0.35400  0.53908  0.10150  Biso   1.000  H
  N44      1.0000 0.95503  0.10708  0.13066  Biso   1.000  N
  H346     1.0000 0.05281  0.07162  0.13189  Biso   1.000  H
  C351     1.0000 0.65838  0.62411  0.12040  Biso   1.000  C
  C352     1.0000 0.33811  0.25638  0.12405  Biso   1.000  C
  C353     1.0000 0.39611  0.42941  0.06928  Biso   1.000  C
  C354     1.0000 0.96968  0.16351  0.10422  Biso   1.000  C
  N45      1.0000 0.61838  0.64076  0.09697  Biso   1.000  N
  H347     1.0000 0.68308  0.57919  0.11931  Biso   1.000  H
  N46      1.0000 0.27178  0.23600  0.12600  Biso   1.000  N
  H348     1.0000 0.35178  0.29092  0.10659  Biso   1.000  H
  C355     1.0000 0.43319  0.49589  0.05574  Biso   1.000  C
  H349     1.0000 0.36978  0.40730  0.04910  Biso   1.000  H
  H350     1.0000 0.43389  0.39459  0.07669  Biso   1.000  H
  H351     1.0000 0.95827  0.21070  0.11531  Biso   1.000  H
  H352     1.0000 0.93551  0.15659  0.08420  Biso   1.000  H
  C356     1.0000 0.04632  0.16854  0.08842  Biso   1.000  C
  C357     1.0000 0.61541  0.58708  0.06560  Biso   1.000  C
  C358     1.0000 0.22070  0.27108  0.10148  Biso   1.000  C
  C359     1.0000 0.40259  0.53762  0.02855  Biso   1.000  C
  C360     1.0000 0.50157  0.51459  0.06946  Biso   1.000  C
  C361     1.0000 0.05919  0.12800  0.05739  Biso   1.000  C
  C362     1.0000 0.10011  0.21141  0.10305  Biso   1.000  C
  C363     1.0000 0.54000  0.57297  0.05422  Biso   1.000  C
  H353     1.0000 0.64308  0.60697  0.04529  Biso   1.000  H
  H354     1.0000 0.63838  0.54097  0.07280  Biso   1.000  H
  C364     1.0000 0.16481  0.21822  0.08687  Biso   1.000  C
  H355     1.0000 0.24789  0.29259  0.08141  Biso   1.000  H
  H356     1.0000 0.19562  0.31081  0.11411  Biso   1.000  H
  C365     1.0000 0.44081  0.59514  0.01351  Biso   1.000  C
  C366     1.0000 0.32730  0.51957  0.01546  Biso   1.000  C
  C367     1.0000 0.53200  0.47092  0.10028  Biso   1.000  C
  C368     1.0000 0.12778  0.13697  0.03982  Biso   1.000  C
  C369     1.0000 0.00459  0.07611  0.04254  Biso   1.000  C
  C370     1.0000 0.08589  0.25038  0.13815  Biso   1.000  C
  C371     1.0000 0.50881  0.61449  0.02714  Biso   1.000  C
  C372     1.0000 0.18162  0.18049  0.05499  Biso   1.000  C
  C373     1.0000 0.41070  0.63481  0.98083  Biso   1.000  C
  H357     1.0000 0.30492  0.56297  0.00541  Biso   1.000  H
  H358     1.0000 0.29811  0.50200  0.03540  Biso   1.000  H
  H359     1.0000 0.33027  0.48211  0.99709  Biso   1.000  H
  H360     1.0000 0.56730  0.50022  0.11331  Biso   1.000  H
  H361     1.0000 0.55557  0.42741  0.09100  Biso   1.000  H
  H362     1.0000 0.49259  0.45697  0.11640  Biso   1.000  H
  C374     1.0000 0.13951  0.10108  0.00448  Biso   1.000  C
  H363     1.0000 0.96886  0.10270  0.02839  Biso   1.000  H
  H364     1.0000 0.98022  0.05108  0.06219  Biso   1.000  H
  H365     1.0000 0.02919  0.04070  0.02740  Biso   1.000  H
  H366     1.0000 0.07411  0.30108  0.13341  Biso   1.000  H
  H367     1.0000 0.12919  0.24778  0.15319  Biso   1.000  H
  H368     1.0000 0.04530  0.22730  0.15050  Biso   1.000  H
  C375     1.0000 0.54622  0.68092  0.01266  Biso   1.000  C
  C376     1.0000 0.25459  0.18368  0.03796  Biso   1.000  C
  N47      1.0000 0.37389  0.70319  0.99112  Biso   1.000  N
  H369     1.0000 0.45081  0.64578  0.96420  Biso   1.000  H
  H370     1.0000 0.37600  0.60297  0.96831  Biso   1.000  H
  N48      1.0000 0.18308  0.03438  0.00648  Biso   1.000  N
  H371     1.0000 0.09178  0.08919  0.99400  Biso   1.000  H
  H372     1.0000 0.16378  0.13562  0.98830  Biso   1.000  H
  H373     1.0000 0.58292  0.69719  0.02969  Biso   1.000  H
  H374     1.0000 0.51049  0.71941  0.00901  Biso   1.000  H
  H375     1.0000 0.56919  0.66919  0.98990  Biso   1.000  H
  H376     1.0000 0.25659  0.22470  0.02151  Biso   1.000  H
  H377     1.0000 0.26351  0.13881  0.02479  Biso   1.000  H
  H378     1.0000 0.29162  0.18968  0.05640  Biso   1.000  H
  C377     1.0000 0.31151  0.71238  0.97862  Biso   1.000  C
  C378     1.0000 0.15692  0.97908  0.99168  Biso   1.000  C
  C379     1.0000 0.27022  0.78103  0.98417  Biso   1.000  C
  H379     1.0000 0.28989  0.67449  0.96529  Biso   1.000  H
  C380     1.0000 0.19530  0.91108  0.99030  Biso   1.000  C
  H380     1.0000 0.11032  0.98222  0.98110  Biso   1.000  H
  C381     1.0000 0.29968  0.83638  0.00259  Biso   1.000  C
  C382     1.0000 0.20368  0.78859  0.96895  Biso   1.000  C
  C383     1.0000 0.26211  0.90351  0.00565  Biso   1.000  C
  C384     1.0000 0.16622  0.85238  0.97191  Biso   1.000  C
  H381     1.0000 0.34568  0.83070  0.01349  Biso   1.000  H
  H382     1.0000 0.18308  0.74930  0.95621  Biso   1.000  H
  H383     1.0000 0.28319  0.94270  0.01831  Biso   1.000  H
  H384     1.0000 0.11978  0.85659  0.96130  Biso   1.000  H
  Ne1      1.0000 0.14338  0.31178  0.42833  Biso   1.000  Ne
  He1      1.0000 0.32950  0.42768  0.50270  Biso   1.000  He
  He2      1.0000 0.07094  0.28989  0.48420  Biso   1.000  He
  He3      1.0000 0.19385  0.18690  0.36222  Biso   1.000  He
  He4      1.0000 0.09403  0.41783  0.37121  Biso   1.000  He
  Ar1      1.0000 0.14313  0.34911  0.42407  Biso   1.000  Ar
  Ne2      1.0000 0.31178  0.85661  0.17833  Biso   1.000  Ne
  He5      1.0000 0.39374  0.75222  0.23135  Biso   1.000  He
  He6      1.0000 0.26108  0.98061  0.24994  Biso   1.000  He
  He7      1.0000 0.21994  0.82383  0.12055  Biso   1.000  He
  He8      1.0000 0.42402  0.90988  0.11888  Biso   1.000  He
  Ar2      1.0000 0.34909  0.85685  0.17407  Biso   1.000  Ar
  Ne3      1.0000 0.68821  0.14338  0.67832  Biso   1.000  Ne
  He9      1.0000 0.60836  0.24262  0.73006  Biso   1.000  He
  He10     1.0000 0.73851  0.02023  0.74968  Biso   1.000  He
  He11     1.0000 0.77222  0.17201  0.62254  Biso   1.000  He
  He12     1.0000 0.57089  0.08693  0.61696  Biso   1.000  He
  Ar3      1.0000 0.65089  0.14313  0.67407  Biso   1.000  Ar
  Ne4      1.0000 0.85661  0.68821  0.92832  Biso   1.000  Ne
  He13     1.0000 0.77648  0.61632  0.97536  Biso   1.000  He
  He14     1.0000 0.93779  0.71547  0.98688  Biso   1.000  He
  He15     1.0000 0.91282  0.57128  0.86711  Biso   1.000  He
  He16     1.0000 0.73251  0.96990  0.83580  Biso   1.000  He
  Ar4      1.0000 0.85685  0.65091  0.92407  Biso   1.000  Ar
