data_image0
_cell_length_a       18.823
_cell_length_b       20.842
_cell_length_c       22.405
_cell_angle_alpha    103.93
_cell_angle_beta     93.49
_cell_angle_gamma    114.82

_symmetry_space_group_name_H-M    "P 1"
_symmetry_int_tables_number       1

loop_
  _symmetry_equiv_pos_as_xyz
  'x, y, z'

loop_
  _atom_site_label
  _atom_site_occupancy
  _atom_site_fract_x
  _atom_site_fract_y
  _atom_site_fract_z
  _atom_site_thermal_displace_type
  _atom_site_B_iso_or_equiv
  _atom_site_type_symbol
  C1       1.0000 0.56960  0.37707  0.51662  Biso   1.000  C
  C2       1.0000 0.55469  0.30467  0.51199  Biso   1.000  C
  H1       1.0000 0.53678  0.38656  0.48962  Biso   1.000  H
  C3       1.0000 0.63255  0.43557  0.56069  Biso   1.000  C
  H2       1.0000 0.53416  0.36547  0.51259  Biso   1.000  H
  C4       1.0000 0.64435  0.40577  0.56499  Biso   1.000  C
  C5       1.0000 0.48540  0.23169  0.46609  Biso   1.000  C
  C6       1.0000 0.60257  0.29066  0.55152  Biso   1.000  C
  C7       1.0000 0.57306  0.35188  0.52658  Biso   1.000  C
  H3       1.0000 0.64277  0.48506  0.56392  Biso   1.000  H
  C8       1.0000 0.68050  0.42159  0.60031  Biso   1.000  C
  C9       1.0000 0.66558  0.34916  0.59573  Biso   1.000  C
  H4       1.0000 0.65426  0.45604  0.57729  Biso   1.000  H
  C10      1.0000 0.70137  0.38593  0.58548  Biso   1.000  C
  N1       1.0000 0.42828  0.24157  0.44069  Biso   1.000  N
  H5       1.0000 0.48536  0.18476  0.45791  Biso   1.000  H
  H6       1.0000 0.47582  0.18140  0.45342  Biso   1.000  H
  C11      1.0000 0.55870  0.27829  0.50862  Biso   1.000  C
  H7       1.0000 0.59234  0.24115  0.54838  Biso   1.000  H
  C12      1.0000 0.68699  0.31229  0.56752  Biso   1.000  C
  C13      1.0000 0.75014  0.48654  0.64971  Biso   1.000  C
  C14      1.0000 0.78067  0.44556  0.62352  Biso   1.000  C
  H8       1.0000 0.69840  0.33966  0.62272  Biso   1.000  H
  C15      1.0000 0.36397  0.17389  0.39788  Biso   1.000  C
  C16      1.0000 0.61556  0.25845  0.52911  Biso   1.000  C
  H9       1.0000 0.72586  0.29865  0.58151  Biso   1.000  H
  C17      1.0000 0.75326  0.55635  0.66730  Biso   1.000  C
  C18      1.0000 0.81276  0.47567  0.67381  Biso   1.000  C
  C19      1.0000 0.81194  0.51697  0.61832  Biso   1.000  C
  H10      1.0000 0.81104  0.42793  0.66300  Biso   1.000  H
  C20      1.0000 0.81947  0.42895  0.66791  Biso   1.000  C
  C21      1.0000 0.28125  0.15985  0.41089  Biso   1.000  C
  H11      1.0000 0.36610  0.17690  0.35452  Biso   1.000  H
  H12      1.0000 0.37316  0.13117  0.40060  Biso   1.000  H
  H13      1.0000 0.60576  0.20808  0.51681  Biso   1.000  H
  C22      1.0000 0.81895  0.61725  0.70960  Biso   1.000  C
  H14      1.0000 0.71024  0.56334  0.65060  Biso   1.000  H
  C23      1.0000 0.88055  0.53898  0.71572  Biso   1.000  C
  C24      1.0000 0.88964  0.48376  0.70712  Biso   1.000  C
  C25      1.0000 0.88228  0.57188  0.65753  Biso   1.000  C
  H15      1.0000 0.78546  0.52838  0.58801  Biso   1.000  H
  H16      1.0000 0.79805  0.38016  0.67142  Biso   1.000  H
  C26      1.0000 0.23508  0.18100  0.37711  Biso   1.000  C
  C27      1.0000 0.24946  0.12068  0.45150  Biso   1.000  C
  C28      1.0000 0.88213  0.60624  0.73130  Biso   1.000  C
  H17      1.0000 0.81974  0.66444  0.72279  Biso   1.000  H
  H18      1.0000 0.92427  0.53304  0.73243  Biso   1.000  H
  H19      1.0000 0.91627  0.47244  0.73738  Biso   1.000  H
  C29      1.0000 0.92107  0.55527  0.70192  Biso   1.000  C
  H20      1.0000 0.90369  0.62067  0.65402  Biso   1.000  H
  C30      1.0000 0.26936  0.22869  0.33318  Biso   1.000  C
  C31      1.0000 0.15598  0.16136  0.38511  Biso   1.000  C
  C32      1.0000 0.17106  0.10017  0.45940  Biso   1.000  C
  C33      1.0000 0.30119  0.10056  0.49019  Biso   1.000  C
  C34      1.0000 0.95494  0.67365  0.77149  Biso   1.000  C
  C35      1.0000 0.99333  0.61354  0.74609  Biso   1.000  C
  H21      1.0000 0.25108  0.26697  0.33899  Biso   1.000  H
  H22      1.0000 0.32765  0.25196  0.34310  Biso   1.000  H
  H23      1.0000 0.25120  0.19731  0.28972  Biso   1.000  H
  C36      1.0000 0.12511  0.12350  0.42783  Biso   1.000  C
  C37      1.0000 0.10329  0.17499  0.34338  Biso   1.000  C
  C38      1.0000 0.13190  0.05030  0.49982  Biso   1.000  C
  H24      1.0000 0.30342  0.05611  0.46511  Biso   1.000  H
  H25      1.0000 0.35510  0.14158  0.50329  Biso   1.000  H
  H26      1.0000 0.27870  0.09109  0.52728  Biso   1.000  H
  H27      1.0000 0.95256  0.71823  0.79132  Biso   1.000  H
  N2       1.0000 0.01946  0.66806  0.77762  Biso   1.000  N
  N3       1.0000 0.02056  0.68476  0.75310  Biso   1.000  N
  H28      1.0000 0.02232  0.59862  0.77130  Biso   1.000  H
  C39      1.0000 0.03966  0.10508  0.44008  Biso   1.000  C
  N4       1.0000 0.09208  0.23917  0.36060  Biso   1.000  N
  H29      1.0000 0.05001  0.13229  0.33431  Biso   1.000  H
  H30      1.0000 0.12305  0.17356  0.30338  Biso   1.000  H
  H31      1.0000 0.12316  0.18176  0.30432  Biso   1.000  H
  H32      1.0000 0.04758  0.13589  0.33342  Biso   1.000  H
  N5       1.0000 0.11499  0.25729  0.39480  Biso   1.000  N
  H33      1.0000 0.07589  0.01727  0.47901  Biso   1.000  H
  H34      1.0000 0.15886  0.01866  0.50081  Biso   1.000  H
  N6       1.0000 0.13247  0.08910  0.56752  Biso   1.000  N
  H35      1.0000 0.16917  0.03118  0.51143  Biso   1.000  H
  H36      1.0000 0.08400  0.00727  0.47260  Biso   1.000  H
  N7       1.0000 0.10759  0.07728  0.55662  Biso   1.000  N
  C40      1.0000 0.09214  0.73504  0.80849  Biso   1.000  C
  H37      1.0000 0.00126  0.06147  0.40691  Biso   1.000  H
  H38      1.0000 0.03497  0.09495  0.48060  Biso   1.000  H
  H39      1.0000 0.02866  0.14716  0.44069  Biso   1.000  H
  C41      1.0000 0.12117  0.28077  0.41459  Biso   1.000  C
  H40      1.0000 0.14675  0.26586  0.44242  Biso   1.000  H
  C42      1.0000 0.13939  0.29966  0.45239  Biso   1.000  C
  C43      1.0000 0.16809  0.15876  0.59470  Biso   1.000  C
  C44      1.0000 0.14755  0.14766  0.57449  Biso   1.000  C
  C45      1.0000 0.08784  0.80153  0.84971  Biso   1.000  C
  H41      1.0000 0.12505  0.72135  0.83422  Biso   1.000  H
  H42      1.0000 0.12175  0.75096  0.77551  Biso   1.000  H
  H43      1.0000 0.14162  0.75243  0.79100  Biso   1.000  H
  H44      1.0000 0.09642  0.70447  0.83493  Biso   1.000  H
  C46      1.0000 0.11878  0.34985  0.43770  Biso   1.000  C
  C47      1.0000 0.14654  0.37216  0.49079  Biso   1.000  C
  H45      1.0000 0.15868  0.27778  0.47779  Biso   1.000  H
  C48      1.0000 0.16108  0.19665  0.65659  Biso   1.000  C
  H46      1.0000 0.20238  0.18888  0.57262  Biso   1.000  H
  C49      1.0000 0.13989  0.18335  0.63643  Biso   1.000  C
  H47      1.0000 0.17961  0.17458  0.54941  Biso   1.000  H
  C50      1.0000 0.07910  0.80702  0.91160  Biso   1.000  C
  C51      1.0000 0.09602  0.86006  0.82403  Biso   1.000  C
  C52      1.0000 0.17345  0.40556  0.48878  Biso   1.000  C
  C53      1.0000 0.06583  0.36356  0.40289  Biso   1.000  C
  C54      1.0000 0.07728  0.38086  0.48799  Biso   1.000  C
  H48      1.0000 0.20954  0.39618  0.51259  Biso   1.000  H
  C55      1.0000 0.21713  0.42924  0.52771  Biso   1.000  C
  C56      1.0000 0.20196  0.27405  0.68111  Biso   1.000  C
  C57      1.0000 0.10718  0.15706  0.69023  Biso   1.000  C
  C58      1.0000 0.08830  0.14016  0.66852  Biso   1.000  C
  C59      1.0000 0.17595  0.25996  0.66019  Biso   1.000  C
  C60      1.0000 0.08613  0.87343  0.95151  Biso   1.000  C
  C61      1.0000 0.06130  0.74221  0.93579  Biso   1.000  C
  C62      1.0000 0.09960  0.92533  0.86459  Biso   1.000  C
  C63      1.0000 0.09851  0.85185  0.75628  Biso   1.000  C
  C64      1.0000 0.17537  0.47506  0.50502  Biso   1.000  C
  C65      1.0000 0.06786  0.43306  0.41912  Biso   1.000  C
  H49      1.0000 0.02844  0.32547  0.36799  Biso   1.000  H
  H50      1.0000 0.02897  0.34188  0.46282  Biso   1.000  H
  C66      1.0000 0.07863  0.44667  0.52219  Biso   1.000  C
  C67      1.0000 0.21853  0.49506  0.56181  Biso   1.000  C
  H51      1.0000 0.26453  0.42324  0.52962  Biso   1.000  H
  C68      1.0000 0.18637  0.30607  0.73781  Biso   1.000  C
  H52      1.0000 0.23876  0.30348  0.65991  Biso   1.000  H
  H53      1.0000 0.21129  0.28949  0.63821  Biso   1.000  H
  C69      1.0000 0.16039  0.29347  0.71600  Biso   1.000  C
  H54      1.0000 0.07886  0.10477  0.67362  Biso   1.000  H
  C70      1.0000 0.09396  0.18886  0.74370  Biso   1.000  C
  C71      1.0000 0.07268  0.17366  0.72429  Biso   1.000  C
  H55      1.0000 0.06366  0.08774  0.65229  Biso   1.000  H
  C72      1.0000 0.09418  0.93240  0.92770  Biso   1.000  C
  C73      1.0000 0.08946  0.88321  0.01981  Biso   1.000  C
  H56      1.0000 0.05301  0.75433  0.97902  Biso   1.000  H
  H57      1.0000 0.01310  0.69973  0.90968  Biso   1.000  H
  H58      1.0000 0.10613  0.72983  0.93453  Biso   1.000  H
  C74      1.0000 0.11429  0.99053  0.83970  Biso   1.000  C
  H59      1.0000 0.15403  0.87153  0.75039  Biso   1.000  H
  H60      1.0000 0.07005  0.79937  0.73243  Biso   1.000  H
  H61      1.0000 0.07319  0.87912  0.74150  Biso   1.000  H
  H62      1.0000 0.21276  0.51314  0.53992  Biso   1.000  H
  C75      1.0000 0.12259  0.48878  0.47012  Biso   1.000  C
  C76      1.0000 0.14926  0.50385  0.55910  Biso   1.000  C
  H63      1.0000 0.03179  0.44249  0.39531  Biso   1.000  H
  H64      1.0000 0.03124  0.45268  0.52031  Biso   1.000  H
  H65      1.0000 0.26685  0.53415  0.58712  Biso   1.000  H
  C77      1.0000 0.13346  0.26684  0.76882  Biso   1.000  C
  H66      1.0000 0.21457  0.35815  0.75549  Biso   1.000  H
  C78      1.0000 0.10878  0.25025  0.74800  Biso   1.000  C
  H67      1.0000 0.18505  0.34583  0.73219  Biso   1.000  H
  H68      1.0000 0.05806  0.15956  0.76541  Biso   1.000  H
  H69      1.0000 0.03746  0.14417  0.74623  Biso   1.000  H
  C79      1.0000 0.09620  0.00169  0.96872  Biso   1.000  C
  H70      1.0000 0.11462  0.85357  0.03141  Biso   1.000  H
  H71      1.0000 0.12535  0.93569  0.04212  Biso   1.000  H
  N8       1.0000 0.01362  0.86297  0.04432  Biso   1.000  N
  H72      1.0000 0.13402  0.98353  0.79979  Biso   1.000  H
  N9       1.0000 0.03810  0.99661  0.82922  Biso   1.000  N
  H73      1.0000 0.15563  0.99475  0.81350  Biso   1.000  H
  N10      1.0000 0.04741  0.99235  0.80251  Biso   1.000  N
  H74      1.0000 0.15536  0.03669  0.87001  Biso   1.000  H
  H75      1.0000 0.13757  0.03565  0.87600  Biso   1.000  H
  C80      1.0000 0.12512  0.56483  0.48069  Biso   1.000  C
  C81      1.0000 0.15134  0.58518  0.57561  Biso   1.000  C
  C82      1.0000 0.11619  0.30187  0.82931  Biso   1.000  C
  C83      1.0000 0.10189  0.28605  0.81041  Biso   1.000  C
  H76      1.0000 0.06253  0.98952  0.00002  Biso   1.000  H
  H77      1.0000 0.07617  0.02466  0.94309  Biso   1.000  H
  H78      1.0000 0.15096  0.03607  0.98992  Biso   1.000  H
  C84      1.0000 0.94848  0.82300  0.00671  Biso   1.000  C
  C85      1.0000 0.98251  0.96155  0.81701  Biso   1.000  C
  C86      1.0000 0.02417  0.00647  0.77832  Biso   1.000  C
  H79      1.0000 0.06008  0.00695  0.75020  Biso   1.000  H
  C87      1.0000 0.19961  0.62542  0.50188  Biso   1.000  C
  C88      1.0000 0.05784  0.57528  0.46970  Biso   1.000  C
  C89      1.0000 0.21273  0.63937  0.55830  Biso   1.000  C
  C90      1.0000 0.09195  0.59986  0.60022  Biso   1.000  C
  C91      1.0000 0.17615  0.36105  0.87609  Biso   1.000  C
  C92      1.0000 0.03776  0.27248  0.84302  Biso   1.000  C
  C93      1.0000 0.02767  0.25730  0.82763  Biso   1.000  C
  C94      1.0000 0.16485  0.34855  0.85093  Biso   1.000  C
  H80      1.0000 0.94862  0.80894  0.96320  Biso   1.000  H
  C95      1.0000 0.87193  0.79738  0.02884  Biso   1.000  C
  C96      1.0000 0.91179  0.96702  0.78772  Biso   1.000  C
  H81      1.0000 0.97682  0.93433  0.84639  Biso   1.000  H
  C97      1.0000 0.95501  0.01717  0.75890  Biso   1.000  C
  C98      1.0000 0.20686  0.69668  0.51222  Biso   1.000  C
  H82      1.0000 0.24554  0.61835  0.50951  Biso   1.000  H
  H83      1.0000 0.25335  0.62936  0.54151  Biso   1.000  H
  H84      1.0000 0.00694  0.53379  0.45510  Biso   1.000  H
  C99      1.0000 0.06503  0.64633  0.47989  Biso   1.000  C
  C100     1.0000 0.21483  0.70834  0.56569  Biso   1.000  C
  H85      1.0000 0.04993  0.56283  0.61201  Biso   1.000  H
  C101     1.0000 0.09396  0.66888  0.60761  Biso   1.000  C
  C102     1.0000 0.15693  0.63477  0.66599  Biso   1.000  C
  H86      1.0000 0.11556  0.60845  0.62829  Biso   1.000  H
  C103     1.0000 0.16113  0.38955  0.93331  Biso   1.000  C
  H87      1.0000 0.22884  0.38206  0.86809  Biso   1.000  H
  H88      1.0000 0.21554  0.36812  0.83909  Biso   1.000  H
  C104     1.0000 0.15376  0.38244  0.90861  Biso   1.000  C
  C105     1.0000 0.02636  0.30755  0.90150  Biso   1.000  C
  C106     1.0000 0.01645  0.29114  0.88531  Biso   1.000  C
  H89      1.0000 0.99489  0.23084  0.81401  Biso   1.000  H
  H90      1.0000 0.98460  0.21457  0.79989  Biso   1.000  H
  C107     1.0000 0.80235  0.74873  0.98772  Biso   1.000  C
  C108     1.0000 0.86926  0.82230  0.09171  Biso   1.000  C
  C109     1.0000 0.91741  0.99681  0.73790  Biso   1.000  C
  C110     1.0000 0.84314  0.94754  0.81350  Biso   1.000  C
  C111     1.0000 0.90630  0.02615  0.80120  Biso   1.000  C
  C112     1.0000 0.93728  0.01668  0.69771  Biso   1.000  C
  H91      1.0000 0.96443  0.01020  0.72031  Biso   1.000  H
  C113     1.0000 0.13952  0.70703  0.50109  Biso   1.000  C
  H92      1.0000 0.25774  0.73804  0.52672  Biso   1.000  H
  H93      1.0000 0.25684  0.74537  0.55390  Biso   1.000  H
  H94      1.0000 0.01903  0.65358  0.47232  Biso   1.000  H
  C114     1.0000 0.15543  0.72302  0.59030  Biso   1.000  C
  H95      1.0000 0.05334  0.67887  0.62450  Biso   1.000  H
  H96      1.0000 0.13324  0.62904  0.70291  Biso   1.000  H
  H97      1.0000 0.19567  0.61418  0.66333  Biso   1.000  H
  C115     1.0000 0.20094  0.71763  0.67002  Biso   1.000  C
  C116     1.0000 0.08393  0.36184  0.94819  Biso   1.000  C
  H98      1.0000 0.20407  0.42925  0.96390  Biso   1.000  H
  C117     1.0000 0.07954  0.35370  0.92582  Biso   1.000  C
  H99      1.0000 0.19687  0.42516  0.93630  Biso   1.000  H
  H100     1.0000 0.97320  0.29117  0.90851  Biso   1.000  H
  H101     1.0000 0.96581  0.27158  0.89701  Biso   1.000  H
  H102     1.0000 0.80343  0.73195  0.94458  Biso   1.000  H
  C118     1.0000 0.72975  0.72368  0.00872  Biso   1.000  C
  H103     1.0000 0.91706  0.85650  0.12063  Biso   1.000  H
  C119     1.0000 0.79835  0.79788  0.11211  Biso   1.000  C
  C120     1.0000 0.85451  0.00708  0.71390  Biso   1.000  C
  Cl1      1.0000 0.78663  0.89022  0.87202  Biso   1.000  Cl
  C121     1.0000 0.78008  0.95781  0.78950  Biso   1.000  C
  H104     1.0000 0.83924  0.92722  0.84751  Biso   1.000  H
  C122     1.0000 0.83999  0.03469  0.78211  Biso   1.000  C
  H105     1.0000 0.91841  0.02647  0.84302  Biso   1.000  H
  H106     1.0000 0.97050  0.01060  0.66880  Biso   1.000  H
  C123     1.0000 0.87098  0.02527  0.67863  Biso   1.000  C
  C124     1.0000 0.14614  0.78235  0.50380  Biso   1.000  C
  C125     1.0000 0.15272  0.79144  0.57879  Biso   1.000  C
  H107     1.0000 0.15311  0.72676  0.66632  Biso   1.000  H
  H108     1.0000 0.21382  0.71227  0.62782  Biso   1.000  H
  C126     1.0000 0.26320  0.79813  0.70132  Biso   1.000  C
  C127     1.0000 0.06522  0.38611  0.99979  Biso   1.000  C
  C128     1.0000 0.07697  0.39026  0.99090  Biso   1.000  C
  H109     1.0000 0.68205  0.68981  0.97972  Biso   1.000  H
  C129     1.0000 0.72677  0.74747  0.07080  Biso   1.000  C
  H110     1.0000 0.79745  0.81540  0.15524  Biso   1.000  H
  C130     1.0000 0.78584  0.98756  0.73972  Biso   1.000  C
  C131     1.0000 0.82228  0.03428  0.72082  Biso   1.000  C
  H111     1.0000 0.85838  0.02745  0.67989  Biso   1.000  H
  H112     1.0000 0.73321  0.94441  0.80709  Biso   1.000  H
  H113     1.0000 0.80681  0.04090  0.81093  Biso   1.000  H
  H114     1.0000 0.85888  0.02498  0.63671  Biso   1.000  H
  N11      1.0000 0.21664  0.83684  0.50923  Biso   1.000  N
  H115     1.0000 0.09993  0.79015  0.50160  Biso   1.000  H
  N12      1.0000 0.20524  0.83952  0.54282  Biso   1.000  N
  H116     1.0000 0.11433  0.80506  0.59591  Biso   1.000  H
  H117     1.0000 0.31403  0.79674  0.71301  Biso   1.000  H
  H118     1.0000 0.24733  0.81613  0.74080  Biso   1.000  H
  C132     1.0000 0.28122  0.85655  0.66759  Biso   1.000  C
  H119     1.0000 0.02545  0.38745  0.99300  Biso   1.000  H
  N13      1.0000 0.12488  0.42692  0.04891  Biso   1.000  N
  H120     1.0000 0.01178  0.37590  0.00311  Biso   1.000  H
  C133     1.0000 0.65217  0.72010  0.09532  Biso   1.000  C
  C134     1.0000 0.71910  0.00369  0.71600  Biso   1.000  C
  C135     1.0000 0.75107  0.04326  0.70029  Biso   1.000  C
  C136     1.0000 0.21152  0.90644  0.51769  Biso   1.000  C
  H121     1.0000 0.26710  0.89554  0.68971  Biso   1.000  H
  H122     1.0000 0.25060  0.83422  0.62431  Biso   1.000  H
  C137     1.0000 0.36949  0.88842  0.66740  Biso   1.000  C
  C138     1.0000 0.10359  0.44742  0.10823  Biso   1.000  C
  C139     1.0000 0.65026  0.70447  0.15150  Biso   1.000  C
  C140     1.0000 0.58064  0.70981  0.06191  Biso   1.000  C
  C141     1.0000 0.64081  0.96356  0.72223  Biso   1.000  C
  C142     1.0000 0.73769  0.05907  0.68691  Biso   1.000  C
  H123     1.0000 0.67142  0.96664  0.73551  Biso   1.000  H
  C143     1.0000 0.75947  0.09479  0.66829  Biso   1.000  C
  C144     1.0000 0.67730  0.00191  0.71362  Biso   1.000  C
  H124     1.0000 0.79119  0.08649  0.68260  Biso   1.000  H
  C145     1.0000 0.27151  0.97196  0.57131  Biso   1.000  C
  H125     1.0000 0.21850  0.92017  0.47840  Biso   1.000  H
  H126     1.0000 0.15733  0.89804  0.52471  Biso   1.000  H
  H127     1.0000 0.15969  0.90784  0.51199  Biso   1.000  H
  H128     1.0000 0.23182  0.90445  0.47788  Biso   1.000  H
  H129     1.0000 0.38949  0.94242  0.67479  Biso   1.000  H
  H130     1.0000 0.39475  0.88175  0.70389  Biso   1.000  H
  C146     1.0000 0.40013  0.86027  0.61103  Biso   1.000  C
  C147     1.0000 0.16235  0.52681  0.14303  Biso   1.000  C
  H131     1.0000 0.04899  0.44281  0.10210  Biso   1.000  H
  H132     1.0000 0.10476  0.41421  0.13284  Biso   1.000  H
  C148     1.0000 0.58124  0.68049  0.17620  Biso   1.000  C
  H133     1.0000 0.69796  0.71041  0.17424  Biso   1.000  H
  C149     1.0000 0.51149  0.68661  0.08643  Biso   1.000  C
  H134     1.0000 0.57977  0.71868  0.02234  Biso   1.000  H
  C150     1.0000 0.61178  0.01198  0.69500  Biso   1.000  C
  C151     1.0000 0.58121  0.97882  0.69921  Biso   1.000  C
  H135     1.0000 0.62803  0.92564  0.74211  Biso   1.000  H
  C152     1.0000 0.67812  0.07428  0.66389  Biso   1.000  C
  C153     1.0000 0.69408  0.10490  0.64962  Biso   1.000  C
  H136     1.0000 0.80990  0.12309  0.65921  Biso   1.000  H
  C154     1.0000 0.35110  0.00667  0.56349  Biso   1.000  C
  C155     1.0000 0.24729  0.00149  0.62389  Biso   1.000  C
  H137     1.0000 0.45842  0.88686  0.61879  Biso   1.000  H
  H138     1.0000 0.37833  0.86825  0.57421  Biso   1.000  H
  H139     1.0000 0.38354  0.80722  0.60349  Biso   1.000  H
  C156     1.0000 0.23618  0.53963  0.17414  Biso   1.000  C
  C157     1.0000 0.14288  0.58502  0.14472  Biso   1.000  C
  C158     1.0000 0.51097  0.67290  0.14374  Biso   1.000  C
  H140     1.0000 0.58165  0.66928  0.21485  Biso   1.000  H
  H141     1.0000 0.46355  0.68007  0.06350  Biso   1.000  H
  C159     1.0000 0.62026  0.06345  0.66300  Biso   1.000  C
  H142     1.0000 0.56134  0.98365  0.70412  Biso   1.000  H
  C160     1.0000 0.59988  0.03426  0.67011  Biso   1.000  C
  H143     1.0000 0.52772  0.95142  0.70342  Biso   1.000  H
  H144     1.0000 0.69090  0.11220  0.64401  Biso   1.000  H
  H145     1.0000 0.69977  0.14009  0.62782  Biso   1.000  H
  C161     1.0000 0.37910  0.97143  0.50740  Biso   1.000  C
  C162     1.0000 0.40297  0.07368  0.60541  Biso   1.000  C
  C163     1.0000 0.16479  0.96374  0.63512  Biso   1.000  C
  C164     1.0000 0.30341  0.06897  0.66702  Biso   1.000  C
  C165     1.0000 0.28843  0.61157  0.21171  Biso   1.000  C
  C166     1.0000 0.25809  0.47631  0.16792  Biso   1.000  C
  C167     1.0000 0.19706  0.65618  0.18004  Biso   1.000  C
  C168     1.0000 0.06682  0.57188  0.10753  Biso   1.000  C
  C169     1.0000 0.43745  0.65118  0.17022  Biso   1.000  C
  C170     1.0000 0.55029  0.07330  0.64083  Biso   1.000  C
  C171     1.0000 0.53490  0.05060  0.64443  Biso   1.000  C
  H146     1.0000 0.37972  0.99534  0.47461  Biso   1.000  H
  H147     1.0000 0.43293  0.97793  0.52078  Biso   1.000  H
  H148     1.0000 0.34259  0.91852  0.49098  Biso   1.000  H
  C172     1.0000 0.48427  0.11859  0.59030  Biso   1.000  C
  C173     1.0000 0.38080  0.10397  0.65790  Biso   1.000  C
  H149     1.0000 0.14431  0.91017  0.61771  Biso   1.000  H
  H150     1.0000 0.16500  0.97603  0.68022  Biso   1.000  H
  H151     1.0000 0.13073  0.98026  0.61481  Biso   1.000  H
  C174     1.0000 0.27819  0.10045  0.72489  Biso   1.000  C
  C175     1.0000 0.27004  0.66909  0.21293  Biso   1.000  C
  C176     1.0000 0.36477  0.62359  0.25040  Biso   1.000  C
  H152     1.0000 0.24114  0.45359  0.20142  Biso   1.000  H
  H153     1.0000 0.23137  0.43933  0.12722  Biso   1.000  H
  H154     1.0000 0.31589  0.49533  0.17124  Biso   1.000  H
  C177     1.0000 0.17665  0.71947  0.18374  Biso   1.000  C
  H155     1.0000 0.07607  0.61383  0.09134  Biso   1.000  H
  H156     1.0000 0.04777  0.52650  0.07263  Biso   1.000  H
  H157     1.0000 0.02673  0.56669  0.13443  Biso   1.000  H
  N14      1.0000 0.43676  0.64263  0.22364  Biso   1.000  N
  H158     1.0000 0.38963  0.64337  0.14622  Biso   1.000  H
  N15      1.0000 0.55609  0.11848  0.61280  Biso   1.000  N
  H159     1.0000 0.49949  0.04346  0.64868  Biso   1.000  H
  N16      1.0000 0.54781  0.09410  0.61032  Biso   1.000  N
  H160     1.0000 0.48317  0.02787  0.65402  Biso   1.000  H
  H161     1.0000 0.49375  0.17078  0.60340  Biso   1.000  H
  H162     1.0000 0.47760  0.10377  0.54413  Biso   1.000  H
  H163     1.0000 0.47856  0.11226  0.54469  Biso   1.000  H
  H164     1.0000 0.50288  0.17168  0.61210  Biso   1.000  H
  C178     1.0000 0.44098  0.17438  0.70688  Biso   1.000  C
  H165     1.0000 0.31696  0.15266  0.74552  Biso   1.000  H
  H166     1.0000 0.22511  0.09810  0.71432  Biso   1.000  H
  N17      1.0000 0.27526  0.05098  0.76873  Biso   1.000  N
  H167     1.0000 0.21915  0.07606  0.71479  Biso   1.000  H
  H168     1.0000 0.29488  0.15289  0.72672  Biso   1.000  H
  N18      1.0000 0.29627  0.10194  0.78669  Biso   1.000  N
  C179     1.0000 0.33038  0.74750  0.24932  Biso   1.000  C
  H169     1.0000 0.35356  0.57777  0.26200  Biso   1.000  H
  H170     1.0000 0.37669  0.66332  0.28974  Biso   1.000  H
  N19      1.0000 0.19825  0.74929  0.13003  Biso   1.000  N
  H171     1.0000 0.20584  0.75908  0.22331  Biso   1.000  H
  H172     1.0000 0.11886  0.70222  0.18322  Biso   1.000  H
  H173     1.0000 0.43188  0.17047  0.74871  Biso   1.000  H
  H174     1.0000 0.49500  0.18116  0.70281  Biso   1.000  H
  H175     1.0000 0.43467  0.21677  0.70061  Biso   1.000  H
  C180     1.0000 0.30876  0.08588  0.82309  Biso   1.000  C
  H176     1.0000 0.33337  0.13837  0.83493  Biso   1.000  H
  C181     1.0000 0.31457  0.04799  0.78342  Biso   1.000  C
  H177     1.0000 0.32484  0.75696  0.29330  Biso   1.000  H
  H178     1.0000 0.38435  0.75337  0.24600  Biso   1.000  H
  H179     1.0000 0.32082  0.78268  0.23192  Biso   1.000  H
  C182     1.0000 0.24082  0.81810  0.14201  Biso   1.000  C
  C183     1.0000 0.31215  0.04896  0.87062  Biso   1.000  C
  C184     1.0000 0.31558  0.01998  0.83988  Biso   1.000  C
  H180     1.0000 0.32738  0.02618  0.74590  Biso   1.000  H
  H181     1.0000 0.25862  0.84629  0.18481  Biso   1.000  H
  C185     1.0000 0.26346  0.85550  0.09873  Biso   1.000  C
  H182     1.0000 0.25735  0.84869  0.18411  Biso   1.000  H
  C186     1.0000 0.26843  0.85598  0.08353  Biso   1.000  C
  C187     1.0000 0.30363  0.97711  0.85312  Biso   1.000  C
  C188     1.0000 0.31631  0.08399  0.93279  Biso   1.000  C
  H183     1.0000 0.30619  0.10189  0.90491  Biso   1.000  H
  H184     1.0000 0.30082  0.95324  0.81060  Biso   1.000  H
  C189     1.0000 0.31833  0.95264  0.83029  Biso   1.000  C
  C190     1.0000 0.30808  0.05588  0.89832  Biso   1.000  C
  C191     1.0000 0.24593  0.81689  0.03553  Biso   1.000  C
  C192     1.0000 0.29596  0.93221  0.11744  Biso   1.000  C
  C193     1.0000 0.25312  0.81419  0.02154  Biso   1.000  C
  C194     1.0000 0.29802  0.93238  0.09864  Biso   1.000  C
  C195     1.0000 0.29908  0.94013  0.89789  Biso   1.000  C
  C196     1.0000 0.31364  0.92135  0.87899  Biso   1.000  C
  C197     1.0000 0.31180  0.04707  0.97761  Biso   1.000  C
  H185     1.0000 0.32207  0.13315  0.94482  Biso   1.000  H
  C198     1.0000 0.30338  0.02468  0.94711  Biso   1.000  C
  H186     1.0000 0.32339  0.92804  0.79039  Biso   1.000  H
  C199     1.0000 0.26101  0.85499  0.99109  Biso   1.000  C
  C200     1.0000 0.26753  0.84874  0.97462  Biso   1.000  C
  H187     1.0000 0.22373  0.76449  0.02271  Biso   1.000  H
  H188     1.0000 0.23294  0.76199  0.01111  Biso   1.000  H
  C201     1.0000 0.31100  0.97037  0.07300  Biso   1.000  C
  H189     1.0000 0.30794  0.95858  0.16062  Biso   1.000  H
  H190     1.0000 0.30843  0.96096  0.14102  Biso   1.000  H
  C202     1.0000 0.31241  0.96699  0.05172  Biso   1.000  C
  H191     1.0000 0.29330  0.89103  0.88592  Biso   1.000  H
  C203     1.0000 0.30312  0.97512  0.96012  Biso   1.000  C
  H192     1.0000 0.31552  0.87534  0.87240  Biso   1.000  H
  C204     1.0000 0.30613  0.95735  0.93743  Biso   1.000  C
  H193     1.0000 0.31447  0.07099  0.02014  Biso   1.000  H
  H194     1.0000 0.29826  0.04928  0.98702  Biso   1.000  H
  C205     1.0000 0.29724  0.92504  0.98973  Biso   1.000  C
  C206     1.0000 0.29355  0.93180  0.00980  Biso   1.000  C
  H195     1.0000 0.24902  0.82862  0.94791  Biso   1.000  H
  H196     1.0000 0.25712  0.82015  0.93219  Biso   1.000  H
  H197     1.0000 0.33337  0.02277  0.08582  Biso   1.000  H
  H198     1.0000 0.33279  0.01918  0.06210  Biso   1.000  H
  C207     1.0000 0.43036  0.62286  0.48340  Biso   1.000  C
  C208     1.0000 0.36734  0.56434  0.43929  Biso   1.000  C
  C209     1.0000 0.35554  0.59414  0.43498  Biso   1.000  C
  C210     1.0000 0.44526  0.69524  0.48799  Biso   1.000  C
  H199     1.0000 0.46318  0.61337  0.51040  Biso   1.000  H
  H200     1.0000 0.46574  0.63446  0.48743  Biso   1.000  H
  C211     1.0000 0.31945  0.57834  0.39971  Biso   1.000  C
  H201     1.0000 0.35713  0.51487  0.43611  Biso   1.000  H
  C212     1.0000 0.42683  0.64804  0.47339  Biso   1.000  C
  C213     1.0000 0.29854  0.61393  0.41449  Biso   1.000  C
  C214     1.0000 0.33437  0.65077  0.40429  Biso   1.000  C
  H202     1.0000 0.34569  0.54389  0.42273  Biso   1.000  H
  C215     1.0000 0.39733  0.70927  0.44850  Biso   1.000  C
  C216     1.0000 0.51454  0.76823  0.53388  Biso   1.000  C
  C217     1.0000 0.24977  0.51339  0.35031  Biso   1.000  C
  C218     1.0000 0.21923  0.55437  0.37650  Biso   1.000  C
  C219     1.0000 0.44125  0.72164  0.49140  Biso   1.000  C
  C220     1.0000 0.31291  0.68764  0.43250  Biso   1.000  C
  H203     1.0000 0.30155  0.66027  0.37730  Biso   1.000  H
  H204     1.0000 0.40755  0.75877  0.45159  Biso   1.000  H
  N20      1.0000 0.57161  0.75834  0.55928  Biso   1.000  N
  H205     1.0000 0.51454  0.81517  0.54211  Biso   1.000  H
  H206     1.0000 0.52413  0.81853  0.54661  Biso   1.000  H
  C221     1.0000 0.24664  0.44358  0.33272  Biso   1.000  C
  C222     1.0000 0.18714  0.52426  0.32621  Biso   1.000  C
  C223     1.0000 0.18796  0.48296  0.38170  Biso   1.000  C
  C224     1.0000 0.18044  0.57098  0.33211  Biso   1.000  C
  H207     1.0000 0.18886  0.57200  0.33702  Biso   1.000  H
  C225     1.0000 0.38434  0.74148  0.47091  Biso   1.000  C
  H208     1.0000 0.27404  0.70128  0.41852  Biso   1.000  H
  C226     1.0000 0.63592  0.82602  0.60209  Biso   1.000  C
  C227     1.0000 0.18095  0.38268  0.29043  Biso   1.000  C
  H209     1.0000 0.28966  0.43659  0.34942  Biso   1.000  H
  C228     1.0000 0.11935  0.46095  0.28430  Biso   1.000  C
  C229     1.0000 0.11026  0.51617  0.29290  Biso   1.000  C
  C230     1.0000 0.11762  0.42805  0.34249  Biso   1.000  C
  H210     1.0000 0.21444  0.47155  0.41201  Biso   1.000  H
  H211     1.0000 0.20185  0.61977  0.32860  Biso   1.000  H
  H212     1.0000 0.39414  0.79185  0.48322  Biso   1.000  H
  C231     1.0000 0.71864  0.84006  0.58908  Biso   1.000  C
  H213     1.0000 0.63385  0.82303  0.64550  Biso   1.000  H
  H214     1.0000 0.62674  0.86876  0.59942  Biso   1.000  H
  C232     1.0000 0.11777  0.39369  0.26872  Biso   1.000  C
  H215     1.0000 0.18015  0.33547  0.27719  Biso   1.000  H
  H216     1.0000 0.07569  0.46689  0.26760  Biso   1.000  H
  C233     1.0000 0.07883  0.44466  0.29810  Biso   1.000  C
  H217     1.0000 0.08367  0.52747  0.26259  Biso   1.000  H
  H218     1.0000 0.09626  0.37926  0.34600  Biso   1.000  H
  C234     1.0000 0.75044  0.87925  0.54852  Biso   1.000  C
  C235     1.0000 0.76482  0.81893  0.62291  Biso   1.000  C
  C236     1.0000 0.04495  0.32627  0.22849  Biso   1.000  C
  C237     1.0000 0.00656  0.38637  0.25389  Biso   1.000  C
  C238     1.0000 0.82884  0.89976  0.54062  Biso   1.000  C
  C239     1.0000 0.69875  0.89936  0.50979  Biso   1.000  C
  C240     1.0000 0.84392  0.83857  0.61491  Biso   1.000  C
  C241     1.0000 0.73053  0.77122  0.66679  Biso   1.000  C
  N21      1.0000 0.98049  0.33187  0.22240  Biso   1.000  N
  N22      1.0000 0.97940  0.31517  0.24692  Biso   1.000  N
  H219     1.0000 0.04740  0.28170  0.20870  Biso   1.000  H
  H220     1.0000 0.97758  0.40131  0.22872  Biso   1.000  H
  C242     1.0000 0.86800  0.94963  0.50020  Biso   1.000  C
  C243     1.0000 0.87484  0.87643  0.57220  Biso   1.000  C
  H221     1.0000 0.69654  0.94382  0.53491  Biso   1.000  H
  H222     1.0000 0.64484  0.85833  0.49669  Biso   1.000  H
  H223     1.0000 0.72124  0.90883  0.47269  Biso   1.000  H
  C244     1.0000 0.89665  0.82493  0.65659  Biso   1.000  C
  H224     1.0000 0.74881  0.73294  0.66099  Biso   1.000  H
  H225     1.0000 0.67225  0.74797  0.65692  Biso   1.000  H
  H226     1.0000 0.74870  0.80262  0.71030  Biso   1.000  H
  C245     1.0000 0.90780  0.26488  0.19148  Biso   1.000  C
  H227     1.0000 0.92401  0.98266  0.52102  Biso   1.000  H
  H228     1.0000 0.84104  0.98127  0.49922  Biso   1.000  H
  N23      1.0000 0.86743  0.91083  0.43250  Biso   1.000  N
  H229     1.0000 0.83073  0.96875  0.48860  Biso   1.000  H
  H230     1.0000 0.91595  0.99266  0.52742  Biso   1.000  H
  N24      1.0000 0.89236  0.92265  0.44340  Biso   1.000  N
  C246     1.0000 0.96023  0.89483  0.55989  Biso   1.000  C
  N25      1.0000 0.90787  0.76076  0.63942  Biso   1.000  N
  N26      1.0000 0.88496  0.74264  0.60522  Biso   1.000  N
  H231     1.0000 0.94994  0.86764  0.66571  Biso   1.000  H
  H232     1.0000 0.87684  0.82635  0.69659  Biso   1.000  H
  H233     1.0000 0.87671  0.81811  0.69570  Biso   1.000  H
  H234     1.0000 0.95232  0.86404  0.66660  Biso   1.000  H
  C247     1.0000 0.91212  0.19840  0.15031  Biso   1.000  C
  H235     1.0000 0.87491  0.27858  0.16580  Biso   1.000  H
  H236     1.0000 0.87820  0.24897  0.22451  Biso   1.000  H
  H237     1.0000 0.85828  0.24750  0.20902  Biso   1.000  H
  H238     1.0000 0.90348  0.29546  0.16510  Biso   1.000  H
  C248     1.0000 0.83186  0.84117  0.40532  Biso   1.000  C
  C249     1.0000 0.85234  0.85225  0.42549  Biso   1.000  C
  H239     1.0000 0.99864  0.93846  0.59311  Biso   1.000  H
  H240     1.0000 0.96491  0.90493  0.51943  Biso   1.000  H
  H241     1.0000 0.97123  0.85275  0.55928  Biso   1.000  H
  C250     1.0000 0.87872  0.71915  0.58539  Biso   1.000  C
  C251     1.0000 0.86055  0.70025  0.54759  Biso   1.000  C
  H242     1.0000 0.85315  0.73407  0.55760  Biso   1.000  H
  C252     1.0000 0.90388  0.13987  0.17600  Biso   1.000  C
  C253     1.0000 0.92080  0.19291  0.08842  Biso   1.000  C
  C254     1.0000 0.83886  0.80326  0.34338  Biso   1.000  C
  H243     1.0000 0.79752  0.81105  0.42740  Biso   1.000  H
  C255     1.0000 0.86006  0.81658  0.36359  Biso   1.000  C
  H244     1.0000 0.82035  0.82535  0.45061  Biso   1.000  H
  C256     1.0000 0.88117  0.65008  0.56232  Biso   1.000  C
  C257     1.0000 0.85336  0.62777  0.50923  Biso   1.000  C
  H245     1.0000 0.84126  0.72214  0.52219  Biso   1.000  H
  C258     1.0000 0.90029  0.07459  0.13539  Biso   1.000  C
  C259     1.0000 0.90138  0.14806  0.24369  Biso   1.000  C
  C260     1.0000 0.91382  0.12650  0.04851  Biso   1.000  C
  C261     1.0000 0.93859  0.25770  0.06419  Biso   1.000  C
  C262     1.0000 0.79794  0.72588  0.31892  Biso   1.000  C
  C263     1.0000 0.89277  0.84287  0.30979  Biso   1.000  C
  C264     1.0000 0.91165  0.85977  0.33150  Biso   1.000  C
  C265     1.0000 0.82394  0.73995  0.33978  Biso   1.000  C
  C266     1.0000 0.82644  0.59435  0.51119  Biso   1.000  C
  C267     1.0000 0.93406  0.63636  0.59708  Biso   1.000  C
  C268     1.0000 0.92266  0.61905  0.51199  Biso   1.000  C
  C269     1.0000 0.78275  0.57064  0.47232  Biso   1.000  C
  H246     1.0000 0.79036  0.60375  0.48743  Biso   1.000  H
  C270     1.0000 0.88561  0.00940  0.16032  Biso   1.000  C
  C271     1.0000 0.90571  0.06751  0.07228  Biso   1.000  C
  H247     1.0000 0.84591  0.12838  0.24958  Biso   1.000  H
  H248     1.0000 0.92991  0.20056  0.26760  Biso   1.000  H
  H249     1.0000 0.92671  0.12081  0.25852  Biso   1.000  H
  C272     1.0000 0.91048  0.11670  0.98016  Biso   1.000  C
  H250     1.0000 0.94690  0.24561  0.02101  Biso   1.000  H
  H251     1.0000 0.98679  0.30018  0.09029  Biso   1.000  H
  H252     1.0000 0.89382  0.27010  0.06550  Biso   1.000  H
  C273     1.0000 0.81353  0.69386  0.26222  Biso   1.000  C
  H253     1.0000 0.76114  0.69645  0.34011  Biso   1.000  H
  H254     1.0000 0.78866  0.71044  0.36182  Biso   1.000  H
  C274     1.0000 0.83956  0.70646  0.28402  Biso   1.000  C
  H255     1.0000 0.92104  0.89516  0.32640  Biso   1.000  H
  C275     1.0000 0.90594  0.81107  0.25632  Biso   1.000  C
  C276     1.0000 0.92726  0.82626  0.27569  Biso   1.000  C
  H256     1.0000 0.93621  0.91212  0.34769  Biso   1.000  H
  C277     1.0000 0.82458  0.52487  0.49500  Biso   1.000  C
  C278     1.0000 0.93209  0.56687  0.58090  Biso   1.000  C
  H257     1.0000 0.97145  0.67444  0.63198  Biso   1.000  H
  C279     1.0000 0.92126  0.55325  0.47779  Biso   1.000  C
  H258     1.0000 0.97093  0.65805  0.53720  Biso   1.000  H
  C280     1.0000 0.78137  0.50487  0.43821  Biso   1.000  C
  H259     1.0000 0.73535  0.57663  0.47040  Biso   1.000  H
  N27      1.0000 0.96185  0.00332  0.17080  Biso   1.000  N
  N28      1.0000 0.95249  0.00758  0.19752  Biso   1.000  N
  H260     1.0000 0.84454  0.96324  0.13001  Biso   1.000  H
  H261     1.0000 0.86233  0.96428  0.12402  Biso   1.000  H
  H262     1.0000 0.86593  0.01638  0.20018  Biso   1.000  H
  H263     1.0000 0.84433  0.00518  0.18652  Biso   1.000  H
  C281     1.0000 0.90375  0.99824  0.03130  Biso   1.000  C
  H264     1.0000 0.88528  0.14636  0.96861  Biso   1.000  H
  H265     1.0000 0.87460  0.06424  0.95790  Biso   1.000  H
  N29      1.0000 0.98628  0.13696  0.95570  Biso   1.000  N
  C282     1.0000 0.86642  0.73304  0.23120  Biso   1.000  C
  H266     1.0000 0.78537  0.64176  0.24448  Biso   1.000  H
  C283     1.0000 0.89117  0.74968  0.25202  Biso   1.000  C
  H267     1.0000 0.81481  0.65403  0.26778  Biso   1.000  H
  H268     1.0000 0.94184  0.84037  0.23461  Biso   1.000  H
  H269     1.0000 0.96244  0.85576  0.25379  Biso   1.000  H
  C284     1.0000 0.87737  0.51115  0.52990  Biso   1.000  C
  C285     1.0000 0.85069  0.49609  0.44092  Biso   1.000  C
  H270     1.0000 0.78719  0.48679  0.46011  Biso   1.000  H
  H271     1.0000 0.96816  0.55744  0.60471  Biso   1.000  H
  H272     1.0000 0.96866  0.54725  0.47971  Biso   1.000  H
  H273     1.0000 0.73305  0.46578  0.41290  Biso   1.000  H
  C286     1.0000 0.01739  0.03838  0.18301  Biso   1.000  C
  C287     1.0000 0.97573  0.99346  0.22170  Biso   1.000  C
  H274     1.0000 0.93985  0.99292  0.24982  Biso   1.000  H
  H275     1.0000 0.92372  0.97526  0.05689  Biso   1.000  H
  H276     1.0000 0.84894  0.96386  0.01011  Biso   1.000  H
  H277     1.0000 0.93742  0.01052  0.00000  Biso   1.000  H
  C288     1.0000 0.05146  0.17692  0.99326  Biso   1.000  C
  C289     1.0000 0.88376  0.69806  0.17071  Biso   1.000  C
  C290     1.0000 0.89806  0.71388  0.18961  Biso   1.000  C
  C291     1.0000 0.87474  0.43503  0.51928  Biso   1.000  C
  C292     1.0000 0.84856  0.41475  0.42441  Biso   1.000  C
  C293     1.0000 0.08811  0.03291  0.21230  Biso   1.000  C
  H278     1.0000 0.02307  0.06558  0.15359  Biso   1.000  H
  C294     1.0000 0.04495  0.98276  0.24112  Biso   1.000  C
  H279     1.0000 0.05128  0.19099  0.03682  Biso   1.000  H
  C295     1.0000 0.12797  0.20255  0.97118  Biso   1.000  C
  C296     1.0000 0.82374  0.63887  0.12388  Biso   1.000  C
  C297     1.0000 0.96214  0.72745  0.15700  Biso   1.000  C
  C298     1.0000 0.97226  0.74258  0.17239  Biso   1.000  C
  C299     1.0000 0.83505  0.65138  0.14910  Biso   1.000  C
  C300     1.0000 0.80026  0.37444  0.49809  Biso   1.000  C
  C301     1.0000 0.94207  0.42465  0.53033  Biso   1.000  C
  C302     1.0000 0.78717  0.36056  0.44172  Biso   1.000  C
  C303     1.0000 0.90795  0.40007  0.39980  Biso   1.000  C
  C304     1.0000 0.15682  0.05239  0.18652  Biso   1.000  C
  C305     1.0000 0.09364  0.97376  0.19878  Biso   1.000  C
  C306     1.0000 0.08250  0.00312  0.26212  Biso   1.000  C
  C307     1.0000 0.06263  0.98325  0.30231  Biso   1.000  C
  H280     1.0000 0.03552  0.98973  0.27971  Biso   1.000  H
  C308     1.0000 0.19760  0.25120  0.01230  Biso   1.000  C
  C309     1.0000 0.13064  0.17763  0.90831  Biso   1.000  C
  C310     1.0000 0.83877  0.61038  0.06671  Biso   1.000  C
  C311     1.0000 0.84614  0.61749  0.09141  Biso   1.000  C
  H281     1.0000 0.77105  0.61786  0.13188  Biso   1.000  H
  H282     1.0000 0.78433  0.63174  0.16088  Biso   1.000  H
  C312     1.0000 0.97359  0.69238  0.09852  Biso   1.000  C
  C313     1.0000 0.98345  0.70879  0.11471  Biso   1.000  C
  H283     1.0000 0.00506  0.76909  0.18601  Biso   1.000  H
  H284     1.0000 0.01534  0.78535  0.20009  Biso   1.000  H
  C314     1.0000 0.79309  0.30325  0.48780  Biso   1.000  C
  H285     1.0000 0.75436  0.38158  0.49051  Biso   1.000  H
  H286     1.0000 0.74656  0.37057  0.45851  Biso   1.000  H
  C315     1.0000 0.93489  0.35355  0.52013  Biso   1.000  C
  H287     1.0000 0.99296  0.46614  0.54492  Biso   1.000  H
  C316     1.0000 0.78506  0.29158  0.43428  Biso   1.000  C
  C317     1.0000 0.90599  0.33105  0.39241  Biso   1.000  C
  H288     1.0000 0.94995  0.43705  0.38801  Biso   1.000  H
  C318     1.0000 0.84296  0.36514  0.33398  Biso   1.000  C
  H289     1.0000 0.88438  0.39146  0.37169  Biso   1.000  H
  Cl2      1.0000 0.21332  0.10971  0.12800  Biso   1.000  Cl
  C319     1.0000 0.21979  0.04207  0.21052  Biso   1.000  C
  H290     1.0000 0.16072  0.07271  0.15251  Biso   1.000  H
  C320     1.0000 0.15992  0.96524  0.21791  Biso   1.000  C
  H291     1.0000 0.08155  0.97346  0.15700  Biso   1.000  H
  C321     1.0000 0.14544  0.99285  0.28612  Biso   1.000  C
  H292     1.0000 0.02940  0.98933  0.33122  Biso   1.000  H
  C322     1.0000 0.12892  0.97466  0.32140  Biso   1.000  C
  H293     1.0000 0.19646  0.26797  0.05539  Biso   1.000  H
  C323     1.0000 0.27012  0.27620  0.99130  Biso   1.000  C
  H294     1.0000 0.08284  0.14343  0.87939  Biso   1.000  H
  C324     1.0000 0.20154  0.20204  0.88786  Biso   1.000  C
  C325     1.0000 0.91596  0.63808  0.05179  Biso   1.000  C
  C326     1.0000 0.92036  0.64623  0.07420  Biso   1.000  C
  H295     1.0000 0.79589  0.57068  0.03612  Biso   1.000  H
  H296     1.0000 0.80308  0.57477  0.06372  Biso   1.000  H
  H297     1.0000 0.02676  0.70876  0.09151  Biso   1.000  H
  H298     1.0000 0.03415  0.72835  0.10301  Biso   1.000  H
  C327     1.0000 0.86037  0.29288  0.49889  Biso   1.000  C
  H299     1.0000 0.74222  0.26189  0.47330  Biso   1.000  H
  H300     1.0000 0.74306  0.25456  0.44612  Biso   1.000  H
  H301     1.0000 0.98087  0.34635  0.52771  Biso   1.000  H
  C328     1.0000 0.84450  0.27686  0.40972  Biso   1.000  C
  H302     1.0000 0.94656  0.32106  0.37552  Biso   1.000  H
  H303     1.0000 0.86671  0.37089  0.29712  Biso   1.000  H
  H304     1.0000 0.80429  0.38575  0.33669  Biso   1.000  H
  C329     1.0000 0.79902  0.28230  0.33000  Biso   1.000  C
  C330     1.0000 0.21411  0.01237  0.26030  Biso   1.000  C
  H305     1.0000 0.26668  0.05550  0.19288  Biso   1.000  H
  C331     1.0000 0.17762  0.96565  0.27920  Biso   1.000  C
  H306     1.0000 0.19314  0.95903  0.18909  Biso   1.000  H
  H307     1.0000 0.14151  0.97246  0.32009  Biso   1.000  H
  H308     1.0000 0.14102  0.97495  0.36331  Biso   1.000  H
  H309     1.0000 0.31788  0.31007  0.02030  Biso   1.000  H
  C332     1.0000 0.27317  0.25244  0.92917  Biso   1.000  C
  H310     1.0000 0.20245  0.18453  0.84478  Biso   1.000  H
  C333     1.0000 0.93465  0.61375  0.00019  Biso   1.000  C
  C334     1.0000 0.92298  0.60967  0.00912  Biso   1.000  C
  C335     1.0000 0.85381  0.21758  0.49622  Biso   1.000  C
  C336     1.0000 0.84717  0.20847  0.42118  Biso   1.000  C
  H311     1.0000 0.84679  0.27317  0.33370  Biso   1.000  H
  H312     1.0000 0.78608  0.28766  0.37220  Biso   1.000  H
  C337     1.0000 0.73670  0.20180  0.29871  Biso   1.000  C
  C338     1.0000 0.28080  0.99624  0.28402  Biso   1.000  C
  C339     1.0000 0.24882  0.95665  0.29969  Biso   1.000  C
  C340     1.0000 0.34778  0.27983  0.90470  Biso   1.000  C
  N30      1.0000 0.87501  0.57300  0.95107  Biso   1.000  N
  H313     1.0000 0.97445  0.61248  0.00702  Biso   1.000  H
  H314     1.0000 0.98816  0.62402  0.99687  Biso   1.000  H
  N31      1.0000 0.78331  0.16309  0.49079  Biso   1.000  N
  N32      1.0000 0.79469  0.16035  0.45720  Biso   1.000  N
  H315     1.0000 0.90002  0.20978  0.49842  Biso   1.000  H
  H316     1.0000 0.88557  0.19487  0.40411  Biso   1.000  H
  H317     1.0000 0.68592  0.20319  0.28701  Biso   1.000  H
  H318     1.0000 0.75262  0.18380  0.25922  Biso   1.000  H
  C341     1.0000 0.71867  0.14336  0.33239  Biso   1.000  C
  H319     1.0000 0.32848  0.03329  0.26451  Biso   1.000  H
  C342     1.0000 0.35909  0.03637  0.27779  Biso   1.000  C
  C343     1.0000 0.26221  0.94086  0.31311  Biso   1.000  C
  C344     1.0000 0.24042  0.90513  0.33169  Biso   1.000  C
  C345     1.0000 0.32260  0.99802  0.28640  Biso   1.000  C
  H320     1.0000 0.20871  0.91344  0.31742  Biso   1.000  H
  C346     1.0000 0.34966  0.29540  0.84847  Biso   1.000  C
  C347     1.0000 0.41926  0.29012  0.93811  Biso   1.000  C
  C348     1.0000 0.89636  0.55251  0.89179  Biso   1.000  C
  C349     1.0000 0.78838  0.09349  0.48233  Biso   1.000  C
  H321     1.0000 0.73280  0.10439  0.31031  Biso   1.000  H
  H322     1.0000 0.74928  0.16566  0.37571  Biso   1.000  H
  C350     1.0000 0.63041  0.11151  0.33262  Biso   1.000  C
  H323     1.0000 0.37192  0.07429  0.25791  Biso   1.000  H
  C351     1.0000 0.41869  0.02111  0.30081  Biso   1.000  C
  C352     1.0000 0.38812  0.98795  0.30502  Biso   1.000  C
  C353     1.0000 0.32183  0.92563  0.33608  Biso   1.000  C
  C354     1.0000 0.30583  0.89503  0.35040  Biso   1.000  C
  H324     1.0000 0.19005  0.87684  0.34081  Biso   1.000  H
  H325     1.0000 0.30194  0.28952  0.82578  Biso   1.000  H
  C355     1.0000 0.41865  0.31943  0.82377  Biso   1.000  C
  C356     1.0000 0.48846  0.31332  0.91359  Biso   1.000  C
  H326     1.0000 0.42016  0.28119  0.97768  Biso   1.000  H
  C357     1.0000 0.83755  0.47312  0.85699  Biso   1.000  C
  H327     1.0000 0.95095  0.55711  0.89787  Biso   1.000  H
  H328     1.0000 0.89514  0.58572  0.86718  Biso   1.000  H
  C358     1.0000 0.72839  0.02797  0.42871  Biso   1.000  C
  H329     1.0000 0.78140  0.07976  0.52162  Biso   1.000  H
  H330     1.0000 0.84262  0.10189  0.47531  Biso   1.000  H
  H331     1.0000 0.84020  0.09207  0.48799  Biso   1.000  H
  H332     1.0000 0.76812  0.09547  0.52209  Biso   1.000  H
  H333     1.0000 0.61040  0.05749  0.32518  Biso   1.000  H
  H334     1.0000 0.60520  0.11816  0.29609  Biso   1.000  H
  C359     1.0000 0.59977  0.13967  0.38900  Biso   1.000  C
  H335     1.0000 0.47219  0.04851  0.29660  Biso   1.000  H
  C360     1.0000 0.40000  0.96562  0.32991  Biso   1.000  C
  H336     1.0000 0.43861  0.01628  0.29590  Biso   1.000  H
  C361     1.0000 0.37961  0.93643  0.33702  Biso   1.000  C
  H337     1.0000 0.30900  0.88773  0.35601  Biso   1.000  H
  H338     1.0000 0.30013  0.85984  0.37220  Biso   1.000  H
  H339     1.0000 0.41823  0.33060  0.78518  Biso   1.000  H
  C362     1.0000 0.48898  0.32703  0.85628  Biso   1.000  C
  H340     1.0000 0.53634  0.31984  0.93647  Biso   1.000  H
  C363     1.0000 0.76372  0.46030  0.82588  Biso   1.000  C
  C364     1.0000 0.85707  0.41491  0.85530  Biso   1.000  C
  C365     1.0000 0.64884  0.99324  0.43648  Biso   1.000  C
  C366     1.0000 0.75260  0.99842  0.37608  Biso   1.000  C
  H341     1.0000 0.54147  0.11306  0.38118  Biso   1.000  H
  H342     1.0000 0.62157  0.13168  0.42581  Biso   1.000  H
  H343     1.0000 0.61638  0.19264  0.39648  Biso   1.000  H
  C367     1.0000 0.44961  0.92663  0.35920  Biso   1.000  C
  C368     1.0000 0.46500  0.94933  0.35559  Biso   1.000  C
  C369     1.0000 0.56245  0.34875  0.82981  Biso   1.000  C
  C370     1.0000 0.71146  0.38834  0.78826  Biso   1.000  C
  C371     1.0000 0.74186  0.52362  0.83210  Biso   1.000  C
  C372     1.0000 0.80287  0.34370  0.81998  Biso   1.000  C
  C373     1.0000 0.93305  0.42800  0.89249  Biso   1.000  C
  C374     1.0000 0.59693  0.92625  0.39461  Biso   1.000  C
  C375     1.0000 0.62080  0.02850  0.49262  Biso   1.000  C
  C376     1.0000 0.69655  0.93096  0.33300  Biso   1.000  C
  C377     1.0000 0.83511  0.03619  0.36490  Biso   1.000  C
  N33      1.0000 0.44381  0.88145  0.38722  Biso   1.000  N
  H344     1.0000 0.50040  0.95645  0.35129  Biso   1.000  H
  N34      1.0000 0.45214  0.90583  0.38970  Biso   1.000  N
  H345     1.0000 0.51673  0.97206  0.34600  Biso   1.000  H
  N35      1.0000 0.56314  0.35730  0.77638  Biso   1.000  N
  H346     1.0000 0.61024  0.35651  0.85380  Biso   1.000  H
  C378     1.0000 0.63517  0.37632  0.74957  Biso   1.000  C
  C379     1.0000 0.72986  0.33084  0.78709  Biso   1.000  C
  H347     1.0000 0.75876  0.54635  0.79860  Biso   1.000  H
  H348     1.0000 0.76854  0.56060  0.87280  Biso   1.000  H
  H349     1.0000 0.68401  0.50460  0.82878  Biso   1.000  H
  C380     1.0000 0.82328  0.28040  0.81629  Biso   1.000  C
  H350     1.0000 0.92383  0.38610  0.90868  Biso   1.000  H
  H351     1.0000 0.95218  0.47343  0.92739  Biso   1.000  H
  H352     1.0000 0.97317  0.43324  0.86559  Biso   1.000  H
  C381     1.0000 0.51563  0.88134  0.40972  Biso   1.000  C
  C382     1.0000 0.61916  0.89596  0.34212  Biso   1.000  C
  H353     1.0000 0.62018  0.00459  0.52541  Biso   1.000  H
  H354     1.0000 0.56701  0.02199  0.47919  Biso   1.000  H
  H355     1.0000 0.65728  0.08135  0.50899  Biso   1.000  H
  C383     1.0000 0.72173  0.89941  0.27508  Biso   1.000  C
  H356     1.0000 0.85559  0.08976  0.38231  Biso   1.000  H
  H357     1.0000 0.83490  0.02390  0.31980  Biso   1.000  H
  H358     1.0000 0.86923  0.01967  0.38521  Biso   1.000  H
  H359     1.0000 0.64638  0.42214  0.73797  Biso   1.000  H
  H360     1.0000 0.62327  0.33661  0.71028  Biso   1.000  H
  C384     1.0000 0.66958  0.25243  0.75070  Biso   1.000  C
  N36      1.0000 0.80165  0.25064  0.86999  Biso   1.000  N
  H361     1.0000 0.79406  0.24085  0.77671  Biso   1.000  H
  H362     1.0000 0.88104  0.29771  0.81680  Biso   1.000  H
  H363     1.0000 0.50615  0.82915  0.39662  Biso   1.000  H
  H364     1.0000 0.52233  0.89611  0.45589  Biso   1.000  H
  H365     1.0000 0.52133  0.88765  0.45529  Biso   1.000  H
  H366     1.0000 0.49702  0.82825  0.38792  Biso   1.000  H
  C385     1.0000 0.55891  0.82553  0.29309  Biso   1.000  C
  H367     1.0000 0.68294  0.84727  0.25450  Biso   1.000  H
  H368     1.0000 0.77484  0.90183  0.28570  Biso   1.000  H
  N37      1.0000 0.72464  0.94895  0.23129  Biso   1.000  N
  H369     1.0000 0.78074  0.92386  0.28519  Biso   1.000  H
  H370     1.0000 0.70502  0.84704  0.27330  Biso   1.000  H
  N38      1.0000 0.70365  0.89792  0.21328  Biso   1.000  N
  H371     1.0000 0.67510  0.24295  0.70667  Biso   1.000  H
  H372     1.0000 0.61560  0.24654  0.75397  Biso   1.000  H
  H373     1.0000 0.67908  0.21725  0.76810  Biso   1.000  H
  C386     1.0000 0.75907  0.18182  0.85797  Biso   1.000  C
  H374     1.0000 0.56807  0.82946  0.25132  Biso   1.000  H
  H375     1.0000 0.50496  0.81877  0.29721  Biso   1.000  H
  H376     1.0000 0.56523  0.78316  0.29941  Biso   1.000  H
  C387     1.0000 0.69113  0.91403  0.17688  Biso   1.000  C
  H377     1.0000 0.66653  0.86156  0.16510  Biso   1.000  H
  C388     1.0000 0.68533  0.95194  0.21660  Biso   1.000  C
  C389     1.0000 0.73649  0.14443  0.90129  Biso   1.000  C
  C390     1.0000 0.73147  0.14395  0.91649  Biso   1.000  C
  H378     1.0000 0.74127  0.15362  0.81516  Biso   1.000  H
  H379     1.0000 0.74259  0.15122  0.81586  Biso   1.000  H
  C391     1.0000 0.68775  0.95097  0.12940  Biso   1.000  C
  C392     1.0000 0.68431  0.97993  0.16009  Biso   1.000  C
  H380     1.0000 0.67253  0.97375  0.25412  Biso   1.000  H
  C393     1.0000 0.75397  0.18304  0.96449  Biso   1.000  C
  C394     1.0000 0.74678  0.18574  0.97848  Biso   1.000  C
  C395     1.0000 0.70188  0.06755  0.90138  Biso   1.000  C
  C396     1.0000 0.70400  0.06772  0.88258  Biso   1.000  C
  C397     1.0000 0.69633  0.02282  0.14690  Biso   1.000  C
  C398     1.0000 0.68364  0.91593  0.06718  Biso   1.000  C
  H381     1.0000 0.69371  0.89804  0.09511  Biso   1.000  H
  H382     1.0000 0.69908  0.04669  0.18942  Biso   1.000  H
  C399     1.0000 0.68162  0.04728  0.16968  Biso   1.000  C
  C400     1.0000 0.69182  0.94405  0.10170  Biso   1.000  C
  C401     1.0000 0.73891  0.14487  0.00889  Biso   1.000  C
  C402     1.0000 0.73242  0.15119  0.02540  Biso   1.000  C
  H383     1.0000 0.77616  0.23543  0.97726  Biso   1.000  H
  H384     1.0000 0.76695  0.23793  0.98887  Biso   1.000  H
  C403     1.0000 0.68749  0.03294  0.94831  Biso   1.000  C
  C404     1.0000 0.68889  0.02955  0.92697  Biso   1.000  C
  H385     1.0000 0.69150  0.03891  0.85900  Biso   1.000  H
  H386     1.0000 0.69201  0.04135  0.83940  Biso   1.000  H
  C405     1.0000 0.70081  0.05979  0.10208  Biso   1.000  C
  C406     1.0000 0.68631  0.07857  0.12098  Biso   1.000  C
  C407     1.0000 0.68816  0.95286  0.02241  Biso   1.000  C
  H387     1.0000 0.67788  0.86678  0.05520  Biso   1.000  H
  C408     1.0000 0.69652  0.97525  0.05291  Biso   1.000  C
  H388     1.0000 0.67650  0.07188  0.20959  Biso   1.000  H
  C409     1.0000 0.70272  0.07489  0.01029  Biso   1.000  C
  C410     1.0000 0.70640  0.06811  0.99018  Biso   1.000  C
  H389     1.0000 0.75093  0.17131  0.05212  Biso   1.000  H
  H390     1.0000 0.74277  0.17977  0.06779  Biso   1.000  H
  H391     1.0000 0.66654  0.97716  0.91420  Biso   1.000  H
  H392     1.0000 0.66715  0.98074  0.93787  Biso   1.000  H
  H393     1.0000 0.70660  0.10890  0.11410  Biso   1.000  H
  C411     1.0000 0.69683  0.02481  0.03991  Biso   1.000  C
  H394     1.0000 0.68438  0.12459  0.12762  Biso   1.000  H
  C412     1.0000 0.69383  0.04258  0.06259  Biso   1.000  C
  H395     1.0000 0.68543  0.92894  0.97988  Biso   1.000  H
  H396     1.0000 0.70164  0.95065  0.01301  Biso   1.000  H
  Ne1      1.0000 0.44337  0.66416  0.75375  Biso   1.000  Ne
  He1      1.0000 0.51174  0.82773  0.90714  Biso   1.000  He
  He2      1.0000 0.50932  0.48201  0.79939  Biso   1.000  He
  He3      1.0000 0.20843  0.59971  0.86066  Biso   1.000  He
  He4      1.0000 0.54880  0.67564  0.58887  Biso   1.000  He
  Ar1      1.0000 0.46014  0.66793  0.79571  Biso   1.000  Ar
  Ne2      1.0000 0.55655  0.33576  0.24626  Biso   1.000  Ne
  He5      1.0000 0.46469  0.33079  0.31763  Biso   1.000  He
  He6      1.0000 0.73256  0.38349  0.14032  Biso   1.000  He
  He7      1.0000 0.45967  0.63575  0.13666  Biso   1.000  He
  He8      1.0000 0.32888  0.88757  0.98656  Biso   1.000  He
  Ar2      1.0000 0.52873  0.32113  0.22208  Biso   1.000  Ar
