data_image0
_cell_length_a       16.186
_cell_length_b       16.186
_cell_length_c       16.61
_cell_angle_alpha    90
_cell_angle_beta     90
_cell_angle_gamma    120

_symmetry_space_group_name_H-M    "P 1"
_symmetry_int_tables_number       1

loop_
  _symmetry_equiv_pos_as_xyz
  'x, y, z'

loop_
  _atom_site_label
  _atom_site_occupancy
  _atom_site_fract_x
  _atom_site_fract_y
  _atom_site_fract_z
  _atom_site_thermal_displace_type
  _atom_site_B_iso_or_equiv
  _atom_site_type_symbol
  C1       1.0000 0.30189  0.33280  0.57459  Biso   1.000  C
  C2       1.0000 0.28777  0.41120  0.57321  Biso   1.000  C
  C3       1.0000 0.30790  0.29292  0.50000  Biso   1.000  C
  H1       1.0000 0.30746  0.30676  0.62420  Biso   1.000  H
  C4       1.0000 0.28159  0.45222  0.50000  Biso   1.000  C
  C5       1.0000 0.28421  0.45301  0.64901  Biso   1.000  C
  C6       1.0000 0.30189  0.33280  0.42541  Biso   1.000  C
  Br1      1.0000 0.33180  0.19098  0.50000  Biso   1.000  Br
  C7       1.0000 0.28777  0.41120  0.42679  Biso   1.000  C
  H2       1.0000 0.27323  0.50630  0.50000  Biso   1.000  H
  N1       1.0000 0.28989  0.41976  0.71583  Biso   1.000  N
  H3       1.0000 0.27742  0.50801  0.64834  Biso   1.000  H
  H4       1.0000 0.30746  0.30676  0.37580  Biso   1.000  H
  C8       1.0000 0.28421  0.45301  0.35099  Biso   1.000  C
  C9       1.0000 0.28747  0.46670  0.79055  Biso   1.000  C
  N2       1.0000 0.28989  0.41976  0.28423  Biso   1.000  N
  H5       1.0000 0.27742  0.50801  0.35172  Biso   1.000  H
  H6       1.0000 0.22300  0.42832  0.81403  Biso   1.000  H
  H7       1.0000 0.33291  0.46342  0.82860  Biso   1.000  H
  C10      1.0000 0.31072  0.57250  0.78784  Biso   1.000  C
  C11      1.0000 0.28747  0.46670  0.20951  Biso   1.000  C
  C12      1.0000 0.40630  0.64641  0.78591  Biso   1.000  C
  C13      1.0000 0.24007  0.59369  0.78591  Biso   1.000  C
  H8       1.0000 0.22300  0.42832  0.18603  Biso   1.000  H
  H9       1.0000 0.33291  0.46342  0.17140  Biso   1.000  H
  C14      1.0000 0.31072  0.57250  0.21222  Biso   1.000  C
  C15      1.0000 0.48590  0.62001  0.78110  Biso   1.000  C
  C16      1.0000 0.42749  0.73822  0.78784  Biso   1.000  C
  C17      1.0000 0.26179  0.68928  0.78784  Biso   1.000  C
  C18      1.0000 0.13409  0.51407  0.78110  Biso   1.000  C
  C19      1.0000 0.40630  0.64641  0.21409  Biso   1.000  C
  C20      1.0000 0.24007  0.59369  0.21409  Biso   1.000  C
  H10      1.0000 0.52280  0.63870  0.83125  Biso   1.000  H
  H11      1.0000 0.45699  0.55095  0.77339  Biso   1.000  H
  H12      1.0000 0.52821  0.65347  0.73570  Biso   1.000  H
  C21      1.0000 0.53326  0.82076  0.79055  Biso   1.000  C
  C22      1.0000 0.35363  0.75991  0.78591  Biso   1.000  C
  C23      1.0000 0.17917  0.71247  0.79055  Biso   1.000  C
  H13      1.0000 0.11590  0.47719  0.83125  Biso   1.000  H
  H14      1.0000 0.09398  0.54296  0.77339  Biso   1.000  H
  H15      1.0000 0.12529  0.47177  0.73570  Biso   1.000  H
  C24      1.0000 0.48590  0.62001  0.21890  Biso   1.000  C
  C25      1.0000 0.42749  0.73822  0.21222  Biso   1.000  C
  C26      1.0000 0.26179  0.68928  0.21222  Biso   1.000  C
  C27      1.0000 0.13409  0.51407  0.21890  Biso   1.000  C
  N3       1.0000 0.58015  0.87006  0.71583  Biso   1.000  N
  H16      1.0000 0.57167  0.79465  0.81403  Biso   1.000  H
  H17      1.0000 0.53662  0.86949  0.82860  Biso   1.000  H
  C28      1.0000 0.38001  0.86592  0.78110  Biso   1.000  C
  N4       1.0000 0.12992  0.71011  0.71583  Biso   1.000  N
  H18      1.0000 0.20530  0.77696  0.81403  Biso   1.000  H
  H19      1.0000 0.13047  0.66710  0.82860  Biso   1.000  H
  H20      1.0000 0.52280  0.63870  0.16881  Biso   1.000  H
  H21      1.0000 0.45699  0.55095  0.22661  Biso   1.000  H
  H22      1.0000 0.52821  0.65347  0.26430  Biso   1.000  H
  C29      1.0000 0.53326  0.82076  0.20951  Biso   1.000  C
  C30      1.0000 0.35363  0.75991  0.21409  Biso   1.000  C
  C31      1.0000 0.17917  0.71247  0.20951  Biso   1.000  C
  H23      1.0000 0.11590  0.47719  0.16881  Biso   1.000  H
  H24      1.0000 0.09398  0.54296  0.22661  Biso   1.000  H
  H25      1.0000 0.12529  0.47177  0.26430  Biso   1.000  H
  C32      1.0000 0.54700  0.83118  0.64901  Biso   1.000  C
  H26      1.0000 0.36131  0.88411  0.83125  Biso   1.000  H
  H27      1.0000 0.44899  0.90601  0.77339  Biso   1.000  H
  H28      1.0000 0.34653  0.87469  0.73570  Biso   1.000  H
  C33      1.0000 0.16880  0.71582  0.64901  Biso   1.000  C
  N5       1.0000 0.58015  0.87006  0.28423  Biso   1.000  N
  H29      1.0000 0.57167  0.79465  0.18603  Biso   1.000  H
  H30      1.0000 0.53662  0.86949  0.17140  Biso   1.000  H
  C34      1.0000 0.38001  0.86592  0.21890  Biso   1.000  C
  N6       1.0000 0.12992  0.71011  0.28423  Biso   1.000  N
  H31      1.0000 0.20530  0.77696  0.18603  Biso   1.000  H
  H32      1.0000 0.13047  0.66710  0.17140  Biso   1.000  H
  C35      1.0000 0.58881  0.87662  0.57321  Biso   1.000  C
  H33      1.0000 0.49201  0.76940  0.64834  Biso   1.000  H
  C36      1.0000 0.12342  0.71218  0.57321  Biso   1.000  C
  H34      1.0000 0.23063  0.72260  0.64834  Biso   1.000  H
  C37      1.0000 0.54700  0.83118  0.35099  Biso   1.000  C
  H35      1.0000 0.36131  0.88411  0.16881  Biso   1.000  H
  H36      1.0000 0.44899  0.90601  0.22661  Biso   1.000  H
  H37      1.0000 0.34653  0.87469  0.26430  Biso   1.000  H
  C38      1.0000 0.16880  0.71582  0.35099  Biso   1.000  C
  C39      1.0000 0.54777  0.82939  0.50000  Biso   1.000  C
  C40      1.0000 0.66716  0.96908  0.57459  Biso   1.000  C
  C41      1.0000 0.17057  0.71839  0.50000  Biso   1.000  C
  C42      1.0000 0.03091  0.69806  0.57459  Biso   1.000  C
  C43      1.0000 0.58881  0.87662  0.42679  Biso   1.000  C
  H38      1.0000 0.49201  0.76940  0.35172  Biso   1.000  H
  C44      1.0000 0.12342  0.71218  0.42679  Biso   1.000  C
  H39      1.0000 0.23063  0.72260  0.35172  Biso   1.000  H
  H40      1.0000 0.49367  0.76690  0.50000  Biso   1.000  H
  C45      1.0000 0.70709  0.01495  0.50000  Biso   1.000  C
  H41      1.0000 0.69316  0.00068  0.62420  Biso   1.000  H
  H42      1.0000 0.23311  0.72681  0.50000  Biso   1.000  H
  C46      1.0000 0.98498  0.69206  0.50000  Biso   1.000  C
  H43      1.0000 0.99928  0.69249  0.62420  Biso   1.000  H
  C47      1.0000 0.66716  0.96908  0.42541  Biso   1.000  C
  C48      1.0000 0.03091  0.69806  0.42541  Biso   1.000  C
  Br2      1.0000 0.80900  0.14079  0.50000  Biso   1.000  Br
  Br3      1.0000 0.85917  0.66817  0.50000  Biso   1.000  Br
  H44      1.0000 0.69316  0.00068  0.37580  Biso   1.000  H
  H45      1.0000 0.99928  0.69249  0.37580  Biso   1.000  H
  C49      1.0000 0.20532  0.14189  0.78079  Biso   1.000  C
  C50      1.0000 0.09691  0.06877  0.78374  Biso   1.000  C
  C51      1.0000 0.09694  0.06884  0.78374  Biso   1.000  C
  C52      1.0000 0.09685  0.06877  0.78374  Biso   1.000  C
  C53      1.0000 0.09688  0.06884  0.78374  Biso   1.000  C
  H46      1.0000 0.23280  0.14817  0.83462  Biso   1.000  H
  H47      1.0000 0.23646  0.11978  0.74293  Biso   1.000  H
  H48      1.0000 0.21520  0.20403  0.76321  Biso   1.000  H
  H49      1.0000 0.23284  0.14824  0.83462  Biso   1.000  H
  H50      1.0000 0.23652  0.11978  0.74293  Biso   1.000  H
  H51      1.0000 0.23274  0.14817  0.83462  Biso   1.000  H
  C54      1.0000 0.03060  0.09752  0.78663  Biso   1.000  C
  C55      1.0000 0.06687  0.96940  0.78663  Biso   1.000  C
  C56      1.0000 0.06693  0.96940  0.78663  Biso   1.000  C
  C57      1.0000 0.20526  0.14189  0.78079  Biso   1.000  C
  C58      1.0000 0.06155  0.19996  0.79284  Biso   1.000  C
  C59      1.0000 0.06165  0.20004  0.79284  Biso   1.000  C
  C60      1.0000 0.06159  0.20004  0.79284  Biso   1.000  C
  C61      1.0000 0.93120  0.02811  0.78374  Biso   1.000  C
  C62      1.0000 0.13844  0.93843  0.79284  Biso   1.000  C
  C63      1.0000 0.13838  0.93843  0.79284  Biso   1.000  C
  C64      1.0000 0.97189  0.90312  0.78374  Biso   1.000  C
  C65      1.0000 0.97195  0.90312  0.78374  Biso   1.000  C
  N7       1.0000 0.06090  0.24969  0.71674  Biso   1.000  N
  H52      1.0000 0.01999  0.20717  0.83251  Biso   1.000  H
  H53      1.0000 0.12719  0.23349  0.81481  Biso   1.000  H
  H54      1.0000 0.02003  0.20724  0.83251  Biso   1.000  H
  C66      1.0000 0.90247  0.93308  0.78663  Biso   1.000  C
  C67      1.0000 0.85810  0.06342  0.78079  Biso   1.000  C
  N8       1.0000 0.18880  0.93908  0.71674  Biso   1.000  N
  N9       1.0000 0.18884  0.93915  0.71674  Biso   1.000  N
  N10      1.0000 0.18874  0.93908  0.71674  Biso   1.000  N
  H55      1.0000 0.18722  0.98002  0.83251  Biso   1.000  H
  H56      1.0000 0.10630  0.87280  0.81481  Biso   1.000  H
  C68      1.0000 0.93657  0.79469  0.78079  Biso   1.000  C
  C69      1.0000 0.05397  0.21038  0.64901  Biso   1.000  C
  C70      1.0000 0.80001  0.86160  0.79284  Biso   1.000  C
  H57      1.0000 0.85183  0.08461  0.83462  Biso   1.000  H
  H58      1.0000 0.88024  0.11671  0.74293  Biso   1.000  H
  H59      1.0000 0.79597  0.01120  0.76321  Biso   1.000  H
  H60      1.0000 0.79604  0.01120  0.76321  Biso   1.000  H
  H61      1.0000 0.85177  0.08461  0.83462  Biso   1.000  H
  H62      1.0000 0.88018  0.11671  0.74293  Biso   1.000  H
  C71      1.0000 0.15637  0.94600  0.64901  Biso   1.000  C
  C72      1.0000 0.15643  0.94600  0.64901  Biso   1.000  C
  H63      1.0000 0.91543  0.76722  0.83462  Biso   1.000  H
  H64      1.0000 0.88330  0.76351  0.74293  Biso   1.000  H
  H65      1.0000 0.98876  0.78477  0.76321  Biso   1.000  H
  H66      1.0000 0.98880  0.78484  0.76321  Biso   1.000  H
  H67      1.0000 0.91537  0.76722  0.83462  Biso   1.000  H
  C73      1.0000 0.05169  0.25611  0.57261  Biso   1.000  C
  H68      1.0000 0.05042  0.15003  0.64744  Biso   1.000  H
  N11      1.0000 0.75030  0.81124  0.71674  Biso   1.000  N
  N12      1.0000 0.75036  0.81124  0.71674  Biso   1.000  N
  H69      1.0000 0.79279  0.81281  0.83251  Biso   1.000  H
  H70      1.0000 0.76651  0.89370  0.81481  Biso   1.000  H
  C74      1.0000 0.20440  0.94828  0.57261  Biso   1.000  C
  C75      1.0000 0.20444  0.94835  0.57261  Biso   1.000  C
  C76      1.0000 0.20434  0.94828  0.57261  Biso   1.000  C
  H71      1.0000 0.09962  0.94963  0.64744  Biso   1.000  H
  C77      1.0000 0.05942  0.21659  0.50000  Biso   1.000  C
  C78      1.0000 0.05936  0.21659  0.50000  Biso   1.000  C
  C79      1.0000 0.03706  0.33287  0.57134  Biso   1.000  C
  C80      1.0000 0.03716  0.33294  0.57134  Biso   1.000  C
  C81      1.0000 0.03710  0.33294  0.57134  Biso   1.000  C
  C82      1.0000 0.78960  0.84362  0.64901  Biso   1.000  C
  C83      1.0000 0.15718  0.94057  0.50000  Biso   1.000  C
  C84      1.0000 0.15721  0.94065  0.50000  Biso   1.000  C
  C85      1.0000 0.29580  0.96290  0.57134  Biso   1.000  C
  C86      1.0000 0.05169  0.25611  0.42739  Biso   1.000  C
  H72      1.0000 0.06991  0.16380  0.50000  Biso   1.000  H
  H73      1.0000 0.06985  0.16380  0.50000  Biso   1.000  H
  C87      1.0000 0.03132  0.37068  0.50000  Biso   1.000  C
  C88      1.0000 0.03126  0.37068  0.50000  Biso   1.000  C
  H74      1.0000 0.03109  0.35948  0.62041  Biso   1.000  H
  C89      1.0000 0.74391  0.79561  0.57261  Biso   1.000  C
  H75      1.0000 0.84999  0.90041  0.64744  Biso   1.000  H
  C90      1.0000 0.20440  0.94828  0.42739  Biso   1.000  C
  C91      1.0000 0.20444  0.94835  0.42739  Biso   1.000  C
  C92      1.0000 0.20434  0.94828  0.42739  Biso   1.000  C
  H76      1.0000 0.09392  0.93009  0.50000  Biso   1.000  H
  H77      1.0000 0.09386  0.93009  0.50000  Biso   1.000  H
  C93      1.0000 0.33940  0.96868  0.50000  Biso   1.000  C
  C94      1.0000 0.33934  0.96868  0.50000  Biso   1.000  C
  H78      1.0000 0.32839  0.96890  0.62041  Biso   1.000  H
  C95      1.0000 0.05397  0.21038  0.35099  Biso   1.000  C
  C96      1.0000 0.03706  0.33287  0.42872  Biso   1.000  C
  C97      1.0000 0.03716  0.33294  0.42872  Biso   1.000  C
  C98      1.0000 0.03710  0.33294  0.42872  Biso   1.000  C
  Br4      1.0000 0.00680  0.47312  0.50000  Biso   1.000  Br
  C99      1.0000 0.78336  0.84277  0.50000  Biso   1.000  C
  C100     1.0000 0.78346  0.84284  0.50000  Biso   1.000  C
  C101     1.0000 0.78340  0.84284  0.50000  Biso   1.000  C
  C102     1.0000 0.66714  0.70423  0.57134  Biso   1.000  C
  C103     1.0000 0.66708  0.70423  0.57134  Biso   1.000  C
  C104     1.0000 0.15637  0.94600  0.35099  Biso   1.000  C
  C105     1.0000 0.15643  0.94600  0.35099  Biso   1.000  C
  C106     1.0000 0.29580  0.96290  0.42872  Biso   1.000  C
  Br5      1.0000 0.46628  0.99322  0.50000  Biso   1.000  Br
  Br6      1.0000 0.46634  0.99322  0.50000  Biso   1.000  Br
  N13      1.0000 0.06090  0.24969  0.28332  Biso   1.000  N
  H79      1.0000 0.05042  0.15003  0.35262  Biso   1.000  H
  H80      1.0000 0.03109  0.35948  0.37959  Biso   1.000  H
  C107     1.0000 0.74391  0.79561  0.42739  Biso   1.000  C
  H81      1.0000 0.83623  0.90612  0.50000  Biso   1.000  H
  H82      1.0000 0.83617  0.90612  0.50000  Biso   1.000  H
  C108     1.0000 0.62934  0.66064  0.50000  Biso   1.000  C
  C109     1.0000 0.62928  0.66064  0.50000  Biso   1.000  C
  H83      1.0000 0.64052  0.67162  0.62041  Biso   1.000  H
  N14      1.0000 0.18880  0.93908  0.28332  Biso   1.000  N
  N15      1.0000 0.18884  0.93915  0.28332  Biso   1.000  N
  N16      1.0000 0.18874  0.93908  0.28332  Biso   1.000  N
  H84      1.0000 0.09962  0.94963  0.35262  Biso   1.000  H
  H85      1.0000 0.32839  0.96890  0.37959  Biso   1.000  H
  C110     1.0000 0.06155  0.19996  0.20722  Biso   1.000  C
  C111     1.0000 0.06165  0.20004  0.20722  Biso   1.000  C
  C112     1.0000 0.06159  0.20004  0.20722  Biso   1.000  C
  C113     1.0000 0.78960  0.84362  0.35099  Biso   1.000  C
  C114     1.0000 0.66714  0.70423  0.42872  Biso   1.000  C
  C115     1.0000 0.66708  0.70423  0.42872  Biso   1.000  C
  Br7      1.0000 0.52690  0.53373  0.50000  Biso   1.000  Br
  C116     1.0000 0.13844  0.93843  0.20722  Biso   1.000  C
  C117     1.0000 0.13838  0.93843  0.20722  Biso   1.000  C
  C118     1.0000 0.03060  0.09752  0.21343  Biso   1.000  C
  H86      1.0000 0.01999  0.20717  0.16749  Biso   1.000  H
  H87      1.0000 0.12719  0.23349  0.18519  Biso   1.000  H
  H88      1.0000 0.02003  0.20724  0.16749  Biso   1.000  H
  N17      1.0000 0.75030  0.81124  0.28332  Biso   1.000  N
  N18      1.0000 0.75036  0.81124  0.28332  Biso   1.000  N
  H89      1.0000 0.84999  0.90041  0.35262  Biso   1.000  H
  H90      1.0000 0.64052  0.67162  0.37959  Biso   1.000  H
  C119     1.0000 0.06687  0.96940  0.21343  Biso   1.000  C
  C120     1.0000 0.06693  0.96940  0.21343  Biso   1.000  C
  H91      1.0000 0.18722  0.98002  0.16749  Biso   1.000  H
  H92      1.0000 0.10630  0.87280  0.18519  Biso   1.000  H
  C121     1.0000 0.09691  0.06877  0.21632  Biso   1.000  C
  C122     1.0000 0.09694  0.06884  0.21632  Biso   1.000  C
  C123     1.0000 0.09685  0.06877  0.21632  Biso   1.000  C
  C124     1.0000 0.09688  0.06884  0.21632  Biso   1.000  C
  C125     1.0000 0.93120  0.02811  0.21632  Biso   1.000  C
  C126     1.0000 0.80001  0.86160  0.20722  Biso   1.000  C
  C127     1.0000 0.97189  0.90312  0.21632  Biso   1.000  C
  C128     1.0000 0.97195  0.90312  0.21632  Biso   1.000  C
  C129     1.0000 0.20532  0.14189  0.21921  Biso   1.000  C
  C130     1.0000 0.20526  0.14189  0.21921  Biso   1.000  C
  C131     1.0000 0.90247  0.93308  0.21343  Biso   1.000  C
  C132     1.0000 0.85810  0.06342  0.21921  Biso   1.000  C
  H93      1.0000 0.79279  0.81281  0.16749  Biso   1.000  H
  H94      1.0000 0.76651  0.89370  0.18519  Biso   1.000  H
  C133     1.0000 0.93657  0.79469  0.21921  Biso   1.000  C
  H95      1.0000 0.23280  0.14817  0.16538  Biso   1.000  H
  H96      1.0000 0.23646  0.11978  0.25713  Biso   1.000  H
  H97      1.0000 0.21520  0.20403  0.23679  Biso   1.000  H
  H98      1.0000 0.23284  0.14824  0.16538  Biso   1.000  H
  H99      1.0000 0.23652  0.11978  0.25713  Biso   1.000  H
  H100     1.0000 0.23274  0.14817  0.16538  Biso   1.000  H
  H101     1.0000 0.85183  0.08461  0.16538  Biso   1.000  H
  H102     1.0000 0.88024  0.11671  0.25713  Biso   1.000  H
  H103     1.0000 0.79597  0.01120  0.23679  Biso   1.000  H
  H104     1.0000 0.79604  0.01120  0.23679  Biso   1.000  H
  H105     1.0000 0.85177  0.08461  0.16538  Biso   1.000  H
  H106     1.0000 0.88018  0.11671  0.25713  Biso   1.000  H
  H107     1.0000 0.91543  0.76722  0.16538  Biso   1.000  H
  H108     1.0000 0.88330  0.76351  0.25713  Biso   1.000  H
  H109     1.0000 0.98876  0.78477  0.23679  Biso   1.000  H
  H110     1.0000 0.98880  0.78484  0.23679  Biso   1.000  H
  H111     1.0000 0.91537  0.76722  0.16538  Biso   1.000  H
  C134     1.0000 0.20532  0.14189  0.78079  Biso   1.000  C
  C135     1.0000 0.09691  0.06877  0.78374  Biso   1.000  C
  C136     1.0000 0.09694  0.06884  0.78374  Biso   1.000  C
  C137     1.0000 0.09685  0.06877  0.78374  Biso   1.000  C
  C138     1.0000 0.09688  0.06884  0.78374  Biso   1.000  C
  H112     1.0000 0.21520  0.20403  0.76321  Biso   1.000  H
  H113     1.0000 0.23646  0.11978  0.74293  Biso   1.000  H
  H114     1.0000 0.23284  0.14824  0.83462  Biso   1.000  H
  H115     1.0000 0.23280  0.14817  0.83462  Biso   1.000  H
  H116     1.0000 0.23652  0.11978  0.74293  Biso   1.000  H
  H117     1.0000 0.23274  0.14817  0.83462  Biso   1.000  H
  C139     1.0000 0.03060  0.09752  0.78663  Biso   1.000  C
  C140     1.0000 0.06687  0.96940  0.78663  Biso   1.000  C
  C141     1.0000 0.06693  0.96940  0.78663  Biso   1.000  C
  C142     1.0000 0.20526  0.14189  0.78079  Biso   1.000  C
  C143     1.0000 0.06155  0.19996  0.79284  Biso   1.000  C
  C144     1.0000 0.06165  0.20004  0.79284  Biso   1.000  C
  C145     1.0000 0.06159  0.20004  0.79284  Biso   1.000  C
  C146     1.0000 0.93120  0.02811  0.78374  Biso   1.000  C
  C147     1.0000 0.13844  0.93843  0.79284  Biso   1.000  C
  C148     1.0000 0.13838  0.93843  0.79284  Biso   1.000  C
  C149     1.0000 0.97189  0.90312  0.78374  Biso   1.000  C
  C150     1.0000 0.97195  0.90312  0.78374  Biso   1.000  C
  N19      1.0000 0.06090  0.24969  0.71674  Biso   1.000  N
  H118     1.0000 0.12719  0.23349  0.81481  Biso   1.000  H
  H119     1.0000 0.01999  0.20717  0.83251  Biso   1.000  H
  H120     1.0000 0.02003  0.20724  0.83251  Biso   1.000  H
  C151     1.0000 0.90247  0.93308  0.78663  Biso   1.000  C
  C152     1.0000 0.85810  0.06342  0.78079  Biso   1.000  C
  N20      1.0000 0.18880  0.93908  0.71674  Biso   1.000  N
  N21      1.0000 0.18884  0.93915  0.71674  Biso   1.000  N
  N22      1.0000 0.18874  0.93908  0.71674  Biso   1.000  N
  H121     1.0000 0.18722  0.98002  0.83251  Biso   1.000  H
  H122     1.0000 0.10630  0.87280  0.81481  Biso   1.000  H
  C153     1.0000 0.93657  0.79469  0.78079  Biso   1.000  C
  C154     1.0000 0.05397  0.21038  0.64901  Biso   1.000  C
  C155     1.0000 0.80001  0.86160  0.79284  Biso   1.000  C
  H123     1.0000 0.85183  0.08461  0.83462  Biso   1.000  H
  H124     1.0000 0.88024  0.11671  0.74293  Biso   1.000  H
  H125     1.0000 0.79597  0.01120  0.76321  Biso   1.000  H
  H126     1.0000 0.79604  0.01120  0.76321  Biso   1.000  H
  H127     1.0000 0.85177  0.08461  0.83462  Biso   1.000  H
  H128     1.0000 0.88018  0.11671  0.74293  Biso   1.000  H
  C156     1.0000 0.15637  0.94600  0.64901  Biso   1.000  C
  C157     1.0000 0.15643  0.94600  0.64901  Biso   1.000  C
  H129     1.0000 0.91543  0.76722  0.83462  Biso   1.000  H
  H130     1.0000 0.88330  0.76351  0.74293  Biso   1.000  H
  H131     1.0000 0.98876  0.78477  0.76321  Biso   1.000  H
  H132     1.0000 0.98880  0.78484  0.76321  Biso   1.000  H
  H133     1.0000 0.91537  0.76722  0.83462  Biso   1.000  H
  C158     1.0000 0.05169  0.25611  0.57261  Biso   1.000  C
  H134     1.0000 0.05042  0.15003  0.64744  Biso   1.000  H
  N23      1.0000 0.75030  0.81124  0.71674  Biso   1.000  N
  N24      1.0000 0.75036  0.81124  0.71674  Biso   1.000  N
  H135     1.0000 0.79279  0.81281  0.83251  Biso   1.000  H
  H136     1.0000 0.76651  0.89370  0.81481  Biso   1.000  H
  C159     1.0000 0.20440  0.94828  0.57261  Biso   1.000  C
  C160     1.0000 0.20444  0.94835  0.57261  Biso   1.000  C
  C161     1.0000 0.20434  0.94828  0.57261  Biso   1.000  C
  H137     1.0000 0.09962  0.94963  0.64744  Biso   1.000  H
  C162     1.0000 0.05942  0.21659  0.50000  Biso   1.000  C
  C163     1.0000 0.05936  0.21659  0.50000  Biso   1.000  C
  C164     1.0000 0.03706  0.33287  0.57134  Biso   1.000  C
  C165     1.0000 0.03716  0.33294  0.57134  Biso   1.000  C
  C166     1.0000 0.03710  0.33294  0.57134  Biso   1.000  C
  C167     1.0000 0.78960  0.84362  0.64901  Biso   1.000  C
  C168     1.0000 0.15718  0.94057  0.50000  Biso   1.000  C
  C169     1.0000 0.15721  0.94065  0.50000  Biso   1.000  C
  C170     1.0000 0.29580  0.96290  0.57134  Biso   1.000  C
  C171     1.0000 0.05169  0.25611  0.42739  Biso   1.000  C
  H138     1.0000 0.06991  0.16380  0.50000  Biso   1.000  H
  H139     1.0000 0.06985  0.16380  0.50000  Biso   1.000  H
  C172     1.0000 0.03132  0.37068  0.50000  Biso   1.000  C
  C173     1.0000 0.03126  0.37068  0.50000  Biso   1.000  C
  H140     1.0000 0.03109  0.35948  0.62041  Biso   1.000  H
  C174     1.0000 0.74391  0.79561  0.57261  Biso   1.000  C
  H141     1.0000 0.84999  0.90041  0.64744  Biso   1.000  H
  C175     1.0000 0.20440  0.94828  0.42739  Biso   1.000  C
  C176     1.0000 0.20444  0.94835  0.42739  Biso   1.000  C
  C177     1.0000 0.20434  0.94828  0.42739  Biso   1.000  C
  H142     1.0000 0.09392  0.93009  0.50000  Biso   1.000  H
  H143     1.0000 0.09386  0.93009  0.50000  Biso   1.000  H
  C178     1.0000 0.33940  0.96868  0.50000  Biso   1.000  C
  C179     1.0000 0.33934  0.96868  0.50000  Biso   1.000  C
  H144     1.0000 0.32839  0.96890  0.62041  Biso   1.000  H
  C180     1.0000 0.05397  0.21038  0.35099  Biso   1.000  C
  C181     1.0000 0.03706  0.33287  0.42872  Biso   1.000  C
  C182     1.0000 0.03716  0.33294  0.42872  Biso   1.000  C
  C183     1.0000 0.03710  0.33294  0.42872  Biso   1.000  C
  Br8      1.0000 0.00680  0.47312  0.50000  Biso   1.000  Br
  C184     1.0000 0.78336  0.84277  0.50000  Biso   1.000  C
  C185     1.0000 0.78346  0.84284  0.50000  Biso   1.000  C
  C186     1.0000 0.78340  0.84284  0.50000  Biso   1.000  C
  C187     1.0000 0.66714  0.70423  0.57134  Biso   1.000  C
  C188     1.0000 0.66708  0.70423  0.57134  Biso   1.000  C
  C189     1.0000 0.15637  0.94600  0.35099  Biso   1.000  C
  C190     1.0000 0.15643  0.94600  0.35099  Biso   1.000  C
  C191     1.0000 0.29580  0.96290  0.42872  Biso   1.000  C
  Br9      1.0000 0.46628  0.99322  0.50000  Biso   1.000  Br
  Br10     1.0000 0.46634  0.99322  0.50000  Biso   1.000  Br
  N25      1.0000 0.06090  0.24969  0.28332  Biso   1.000  N
  H145     1.0000 0.05042  0.15003  0.35262  Biso   1.000  H
  H146     1.0000 0.03109  0.35948  0.37959  Biso   1.000  H
  C192     1.0000 0.74391  0.79561  0.42739  Biso   1.000  C
  H147     1.0000 0.83623  0.90612  0.50000  Biso   1.000  H
  H148     1.0000 0.83617  0.90612  0.50000  Biso   1.000  H
  C193     1.0000 0.62934  0.66064  0.50000  Biso   1.000  C
  C194     1.0000 0.62928  0.66064  0.50000  Biso   1.000  C
  H149     1.0000 0.64052  0.67162  0.62041  Biso   1.000  H
  N26      1.0000 0.18880  0.93908  0.28332  Biso   1.000  N
  N27      1.0000 0.18884  0.93915  0.28332  Biso   1.000  N
  N28      1.0000 0.18874  0.93908  0.28332  Biso   1.000  N
  H150     1.0000 0.09962  0.94963  0.35262  Biso   1.000  H
  H151     1.0000 0.32839  0.96890  0.37959  Biso   1.000  H
  C195     1.0000 0.06155  0.19996  0.20722  Biso   1.000  C
  C196     1.0000 0.06165  0.20004  0.20722  Biso   1.000  C
  C197     1.0000 0.06159  0.20004  0.20722  Biso   1.000  C
  C198     1.0000 0.78960  0.84362  0.35099  Biso   1.000  C
  C199     1.0000 0.66714  0.70423  0.42872  Biso   1.000  C
  C200     1.0000 0.66708  0.70423  0.42872  Biso   1.000  C
  Br11     1.0000 0.52690  0.53373  0.50000  Biso   1.000  Br
  C201     1.0000 0.13844  0.93843  0.20722  Biso   1.000  C
  C202     1.0000 0.13838  0.93843  0.20722  Biso   1.000  C
  C203     1.0000 0.03060  0.09752  0.21343  Biso   1.000  C
  H152     1.0000 0.12719  0.23349  0.18519  Biso   1.000  H
  H153     1.0000 0.01999  0.20717  0.16749  Biso   1.000  H
  H154     1.0000 0.02003  0.20724  0.16749  Biso   1.000  H
  N29      1.0000 0.75030  0.81124  0.28332  Biso   1.000  N
  N30      1.0000 0.75036  0.81124  0.28332  Biso   1.000  N
  H155     1.0000 0.84999  0.90041  0.35262  Biso   1.000  H
  H156     1.0000 0.64052  0.67162  0.37959  Biso   1.000  H
  C204     1.0000 0.06687  0.96940  0.21343  Biso   1.000  C
  C205     1.0000 0.06693  0.96940  0.21343  Biso   1.000  C
  H157     1.0000 0.18722  0.98002  0.16749  Biso   1.000  H
  H158     1.0000 0.10630  0.87280  0.18519  Biso   1.000  H
  C206     1.0000 0.09691  0.06877  0.21632  Biso   1.000  C
  C207     1.0000 0.09694  0.06884  0.21632  Biso   1.000  C
  C208     1.0000 0.09685  0.06877  0.21632  Biso   1.000  C
  C209     1.0000 0.09688  0.06884  0.21632  Biso   1.000  C
  C210     1.0000 0.93120  0.02811  0.21632  Biso   1.000  C
  C211     1.0000 0.80001  0.86160  0.20722  Biso   1.000  C
  C212     1.0000 0.97189  0.90312  0.21632  Biso   1.000  C
  C213     1.0000 0.97195  0.90312  0.21632  Biso   1.000  C
  C214     1.0000 0.20532  0.14189  0.21921  Biso   1.000  C
  C215     1.0000 0.20526  0.14189  0.21921  Biso   1.000  C
  C216     1.0000 0.90247  0.93308  0.21343  Biso   1.000  C
  C217     1.0000 0.85810  0.06342  0.21921  Biso   1.000  C
  H159     1.0000 0.79279  0.81281  0.16749  Biso   1.000  H
  H160     1.0000 0.76651  0.89370  0.18519  Biso   1.000  H
  C218     1.0000 0.93657  0.79469  0.21921  Biso   1.000  C
  H161     1.0000 0.21520  0.20403  0.23679  Biso   1.000  H
  H162     1.0000 0.23646  0.11978  0.25713  Biso   1.000  H
  H163     1.0000 0.23284  0.14824  0.16538  Biso   1.000  H
  H164     1.0000 0.23280  0.14817  0.16538  Biso   1.000  H
  H165     1.0000 0.23652  0.11978  0.25713  Biso   1.000  H
  H166     1.0000 0.23274  0.14817  0.16538  Biso   1.000  H
  H167     1.0000 0.85183  0.08461  0.16538  Biso   1.000  H
  H168     1.0000 0.88024  0.11671  0.25713  Biso   1.000  H
  H169     1.0000 0.79597  0.01120  0.23679  Biso   1.000  H
  H170     1.0000 0.79604  0.01120  0.23679  Biso   1.000  H
  H171     1.0000 0.85177  0.08461  0.16538  Biso   1.000  H
  H172     1.0000 0.88018  0.11671  0.25713  Biso   1.000  H
  H173     1.0000 0.91543  0.76722  0.16538  Biso   1.000  H
  H174     1.0000 0.88330  0.76351  0.25713  Biso   1.000  H
  H175     1.0000 0.98876  0.78477  0.23679  Biso   1.000  H
  H176     1.0000 0.98880  0.78484  0.23679  Biso   1.000  H
  H177     1.0000 0.91537  0.76722  0.16538  Biso   1.000  H
  C219     1.0000 0.20532  0.14189  0.78079  Biso   1.000  C
  C220     1.0000 0.09691  0.06877  0.78374  Biso   1.000  C
  C221     1.0000 0.09694  0.06884  0.78374  Biso   1.000  C
  C222     1.0000 0.09685  0.06877  0.78374  Biso   1.000  C
  C223     1.0000 0.09688  0.06884  0.78374  Biso   1.000  C
  H178     1.0000 0.21520  0.20403  0.76321  Biso   1.000  H
  H179     1.0000 0.23646  0.11978  0.74293  Biso   1.000  H
  H180     1.0000 0.23280  0.14817  0.83462  Biso   1.000  H
  H181     1.0000 0.23284  0.14824  0.83462  Biso   1.000  H
  H182     1.0000 0.23652  0.11978  0.74293  Biso   1.000  H
  H183     1.0000 0.23274  0.14817  0.83462  Biso   1.000  H
  C224     1.0000 0.03060  0.09752  0.78663  Biso   1.000  C
  C225     1.0000 0.06687  0.96940  0.78663  Biso   1.000  C
  C226     1.0000 0.06693  0.96940  0.78663  Biso   1.000  C
  C227     1.0000 0.20526  0.14189  0.78079  Biso   1.000  C
  C228     1.0000 0.06155  0.19996  0.79284  Biso   1.000  C
  C229     1.0000 0.06165  0.20004  0.79284  Biso   1.000  C
  C230     1.0000 0.06159  0.20004  0.79284  Biso   1.000  C
  C231     1.0000 0.93120  0.02811  0.78374  Biso   1.000  C
  C232     1.0000 0.97189  0.90312  0.78374  Biso   1.000  C
  C233     1.0000 0.97195  0.90312  0.78374  Biso   1.000  C
  C234     1.0000 0.13844  0.93843  0.79284  Biso   1.000  C
  C235     1.0000 0.13838  0.93843  0.79284  Biso   1.000  C
  N31      1.0000 0.06090  0.24969  0.71674  Biso   1.000  N
  H184     1.0000 0.12719  0.23349  0.81481  Biso   1.000  H
  H185     1.0000 0.01999  0.20717  0.83251  Biso   1.000  H
  H186     1.0000 0.02003  0.20724  0.83251  Biso   1.000  H
  C236     1.0000 0.90247  0.93308  0.78663  Biso   1.000  C
  C237     1.0000 0.85810  0.06342  0.78079  Biso   1.000  C
  C238     1.0000 0.93657  0.79469  0.78079  Biso   1.000  C
  N32      1.0000 0.18880  0.93908  0.71674  Biso   1.000  N
  H187     1.0000 0.18722  0.98002  0.83251  Biso   1.000  H
  H188     1.0000 0.10630  0.87280  0.81481  Biso   1.000  H
  N33      1.0000 0.18884  0.93915  0.71674  Biso   1.000  N
  N34      1.0000 0.18874  0.93908  0.71674  Biso   1.000  N
  C239     1.0000 0.05397  0.21038  0.64901  Biso   1.000  C
  C240     1.0000 0.80001  0.86160  0.79284  Biso   1.000  C
  H189     1.0000 0.85183  0.08461  0.83462  Biso   1.000  H
  H190     1.0000 0.88024  0.11671  0.74293  Biso   1.000  H
  H191     1.0000 0.79597  0.01120  0.76321  Biso   1.000  H
  H192     1.0000 0.79604  0.01120  0.76321  Biso   1.000  H
  H193     1.0000 0.85177  0.08461  0.83462  Biso   1.000  H
  H194     1.0000 0.88018  0.11671  0.74293  Biso   1.000  H
  H195     1.0000 0.91543  0.76722  0.83462  Biso   1.000  H
  H196     1.0000 0.88330  0.76351  0.74293  Biso   1.000  H
  H197     1.0000 0.98876  0.78477  0.76321  Biso   1.000  H
  H198     1.0000 0.98880  0.78484  0.76321  Biso   1.000  H
  H199     1.0000 0.91537  0.76722  0.83462  Biso   1.000  H
  C241     1.0000 0.15637  0.94600  0.64901  Biso   1.000  C
  C242     1.0000 0.15643  0.94600  0.64901  Biso   1.000  C
  C243     1.0000 0.05169  0.25611  0.57261  Biso   1.000  C
  H200     1.0000 0.05042  0.15003  0.64744  Biso   1.000  H
  N35      1.0000 0.75030  0.81124  0.71674  Biso   1.000  N
  H201     1.0000 0.79279  0.81281  0.83251  Biso   1.000  H
  H202     1.0000 0.76651  0.89370  0.81481  Biso   1.000  H
  N36      1.0000 0.75036  0.81124  0.71674  Biso   1.000  N
  C244     1.0000 0.20440  0.94828  0.57261  Biso   1.000  C
  C245     1.0000 0.20444  0.94835  0.57261  Biso   1.000  C
  C246     1.0000 0.20434  0.94828  0.57261  Biso   1.000  C
  H203     1.0000 0.09962  0.94963  0.64744  Biso   1.000  H
  C247     1.0000 0.05942  0.21659  0.50000  Biso   1.000  C
  C248     1.0000 0.05936  0.21659  0.50000  Biso   1.000  C
  C249     1.0000 0.03706  0.33287  0.57134  Biso   1.000  C
  C250     1.0000 0.03716  0.33294  0.57134  Biso   1.000  C
  C251     1.0000 0.03710  0.33294  0.57134  Biso   1.000  C
  C252     1.0000 0.78960  0.84362  0.64901  Biso   1.000  C
  C253     1.0000 0.15718  0.94057  0.50000  Biso   1.000  C
  C254     1.0000 0.15721  0.94065  0.50000  Biso   1.000  C
  C255     1.0000 0.29580  0.96290  0.57134  Biso   1.000  C
  C256     1.0000 0.05169  0.25611  0.42739  Biso   1.000  C
  H204     1.0000 0.06991  0.16380  0.50000  Biso   1.000  H
  H205     1.0000 0.06985  0.16380  0.50000  Biso   1.000  H
  C257     1.0000 0.03132  0.37068  0.50000  Biso   1.000  C
  C258     1.0000 0.03126  0.37068  0.50000  Biso   1.000  C
  H206     1.0000 0.03109  0.35948  0.62041  Biso   1.000  H
  C259     1.0000 0.74391  0.79561  0.57261  Biso   1.000  C
  H207     1.0000 0.84999  0.90041  0.64744  Biso   1.000  H
  C260     1.0000 0.20440  0.94828  0.42739  Biso   1.000  C
  C261     1.0000 0.20444  0.94835  0.42739  Biso   1.000  C
  C262     1.0000 0.20434  0.94828  0.42739  Biso   1.000  C
  H208     1.0000 0.09392  0.93009  0.50000  Biso   1.000  H
  H209     1.0000 0.09386  0.93009  0.50000  Biso   1.000  H
  C263     1.0000 0.33940  0.96868  0.50000  Biso   1.000  C
  C264     1.0000 0.33934  0.96868  0.50000  Biso   1.000  C
  H210     1.0000 0.32839  0.96890  0.62041  Biso   1.000  H
  C265     1.0000 0.05397  0.21038  0.35099  Biso   1.000  C
  C266     1.0000 0.03706  0.33287  0.42872  Biso   1.000  C
  C267     1.0000 0.03716  0.33294  0.42872  Biso   1.000  C
  C268     1.0000 0.03710  0.33294  0.42872  Biso   1.000  C
  Br12     1.0000 0.00680  0.47312  0.50000  Biso   1.000  Br
  C269     1.0000 0.78336  0.84277  0.50000  Biso   1.000  C
  C270     1.0000 0.78346  0.84284  0.50000  Biso   1.000  C
  C271     1.0000 0.78340  0.84284  0.50000  Biso   1.000  C
  C272     1.0000 0.66714  0.70423  0.57134  Biso   1.000  C
  C273     1.0000 0.66708  0.70423  0.57134  Biso   1.000  C
  C274     1.0000 0.15637  0.94600  0.35099  Biso   1.000  C
  C275     1.0000 0.15643  0.94600  0.35099  Biso   1.000  C
  C276     1.0000 0.29580  0.96290  0.42872  Biso   1.000  C
  Br13     1.0000 0.46628  0.99322  0.50000  Biso   1.000  Br
  Br14     1.0000 0.46634  0.99322  0.50000  Biso   1.000  Br
  N37      1.0000 0.06090  0.24969  0.28332  Biso   1.000  N
  H211     1.0000 0.05042  0.15003  0.35262  Biso   1.000  H
  H212     1.0000 0.03109  0.35948  0.37959  Biso   1.000  H
  C277     1.0000 0.74391  0.79561  0.42739  Biso   1.000  C
  H213     1.0000 0.83623  0.90612  0.50000  Biso   1.000  H
  H214     1.0000 0.83617  0.90612  0.50000  Biso   1.000  H
  C278     1.0000 0.62934  0.66064  0.50000  Biso   1.000  C
  C279     1.0000 0.62928  0.66064  0.50000  Biso   1.000  C
  H215     1.0000 0.64052  0.67162  0.62041  Biso   1.000  H
  N38      1.0000 0.18880  0.93908  0.28332  Biso   1.000  N
  N39      1.0000 0.18884  0.93915  0.28332  Biso   1.000  N
  N40      1.0000 0.18874  0.93908  0.28332  Biso   1.000  N
  H216     1.0000 0.09962  0.94963  0.35262  Biso   1.000  H
  H217     1.0000 0.32839  0.96890  0.37959  Biso   1.000  H
  C280     1.0000 0.06155  0.19996  0.20722  Biso   1.000  C
  C281     1.0000 0.06165  0.20004  0.20722  Biso   1.000  C
  C282     1.0000 0.06159  0.20004  0.20722  Biso   1.000  C
  C283     1.0000 0.78960  0.84362  0.35099  Biso   1.000  C
  C284     1.0000 0.66714  0.70423  0.42872  Biso   1.000  C
  C285     1.0000 0.66708  0.70423  0.42872  Biso   1.000  C
  Br15     1.0000 0.52690  0.53373  0.50000  Biso   1.000  Br
  C286     1.0000 0.13844  0.93843  0.20722  Biso   1.000  C
  C287     1.0000 0.13838  0.93843  0.20722  Biso   1.000  C
  C288     1.0000 0.03060  0.09752  0.21343  Biso   1.000  C
  H218     1.0000 0.12719  0.23349  0.18519  Biso   1.000  H
  H219     1.0000 0.01999  0.20717  0.16749  Biso   1.000  H
  H220     1.0000 0.02003  0.20724  0.16749  Biso   1.000  H
  N41      1.0000 0.75030  0.81124  0.28332  Biso   1.000  N
  N42      1.0000 0.75036  0.81124  0.28332  Biso   1.000  N
  H221     1.0000 0.84999  0.90041  0.35262  Biso   1.000  H
  H222     1.0000 0.64052  0.67162  0.37959  Biso   1.000  H
  C289     1.0000 0.06687  0.96940  0.21343  Biso   1.000  C
  C290     1.0000 0.06693  0.96940  0.21343  Biso   1.000  C
  H223     1.0000 0.18722  0.98002  0.16749  Biso   1.000  H
  H224     1.0000 0.10630  0.87280  0.18519  Biso   1.000  H
  C291     1.0000 0.93120  0.02811  0.21632  Biso   1.000  C
  C292     1.0000 0.09691  0.06877  0.21632  Biso   1.000  C
  C293     1.0000 0.09694  0.06884  0.21632  Biso   1.000  C
  C294     1.0000 0.09685  0.06877  0.21632  Biso   1.000  C
  C295     1.0000 0.09688  0.06884  0.21632  Biso   1.000  C
  C296     1.0000 0.80001  0.86160  0.20722  Biso   1.000  C
  C297     1.0000 0.97189  0.90312  0.21632  Biso   1.000  C
  C298     1.0000 0.97195  0.90312  0.21632  Biso   1.000  C
  C299     1.0000 0.90247  0.93308  0.21343  Biso   1.000  C
  C300     1.0000 0.85810  0.06342  0.21921  Biso   1.000  C
  C301     1.0000 0.20532  0.14189  0.21921  Biso   1.000  C
  C302     1.0000 0.20526  0.14189  0.21921  Biso   1.000  C
  H225     1.0000 0.79279  0.81281  0.16749  Biso   1.000  H
  H226     1.0000 0.76651  0.89370  0.18519  Biso   1.000  H
  C303     1.0000 0.93657  0.79469  0.21921  Biso   1.000  C
  H227     1.0000 0.85183  0.08461  0.16538  Biso   1.000  H
  H228     1.0000 0.88024  0.11671  0.25713  Biso   1.000  H
  H229     1.0000 0.79597  0.01120  0.23679  Biso   1.000  H
  H230     1.0000 0.79604  0.01120  0.23679  Biso   1.000  H
  H231     1.0000 0.85177  0.08461  0.16538  Biso   1.000  H
  H232     1.0000 0.88018  0.11671  0.25713  Biso   1.000  H
  H233     1.0000 0.21520  0.20403  0.23679  Biso   1.000  H
  H234     1.0000 0.23646  0.11978  0.25713  Biso   1.000  H
  H235     1.0000 0.23280  0.14817  0.16538  Biso   1.000  H
  H236     1.0000 0.23284  0.14824  0.16538  Biso   1.000  H
  H237     1.0000 0.23652  0.11978  0.25713  Biso   1.000  H
  H238     1.0000 0.23274  0.14817  0.16538  Biso   1.000  H
  H239     1.0000 0.91543  0.76722  0.16538  Biso   1.000  H
  H240     1.0000 0.88330  0.76351  0.25713  Biso   1.000  H
  H241     1.0000 0.98876  0.78477  0.23679  Biso   1.000  H
  H242     1.0000 0.98880  0.78484  0.23679  Biso   1.000  H
  H243     1.0000 0.91537  0.76722  0.16538  Biso   1.000  H
  C304     1.0000 0.20532  0.14189  0.78079  Biso   1.000  C
  C305     1.0000 0.09691  0.06877  0.78374  Biso   1.000  C
  C306     1.0000 0.09694  0.06884  0.78374  Biso   1.000  C
  C307     1.0000 0.09685  0.06877  0.78374  Biso   1.000  C
  C308     1.0000 0.09688  0.06884  0.78374  Biso   1.000  C
  H244     1.0000 0.21520  0.20403  0.76321  Biso   1.000  H
  H245     1.0000 0.23280  0.14817  0.83462  Biso   1.000  H
  H246     1.0000 0.23646  0.11978  0.74293  Biso   1.000  H
  H247     1.0000 0.23284  0.14824  0.83462  Biso   1.000  H
  H248     1.0000 0.23652  0.11978  0.74293  Biso   1.000  H
  H249     1.0000 0.23274  0.14817  0.83462  Biso   1.000  H
  C309     1.0000 0.03060  0.09752  0.78663  Biso   1.000  C
  C310     1.0000 0.06687  0.96940  0.78663  Biso   1.000  C
  C311     1.0000 0.06693  0.96940  0.78663  Biso   1.000  C
  C312     1.0000 0.20526  0.14189  0.78079  Biso   1.000  C
  C313     1.0000 0.06155  0.19996  0.79284  Biso   1.000  C
  C314     1.0000 0.06165  0.20004  0.79284  Biso   1.000  C
  C315     1.0000 0.06159  0.20004  0.79284  Biso   1.000  C
  C316     1.0000 0.93120  0.02811  0.78374  Biso   1.000  C
  C317     1.0000 0.97189  0.90312  0.78374  Biso   1.000  C
  C318     1.0000 0.97195  0.90312  0.78374  Biso   1.000  C
  C319     1.0000 0.13844  0.93843  0.79284  Biso   1.000  C
  C320     1.0000 0.13838  0.93843  0.79284  Biso   1.000  C
  N43      1.0000 0.06090  0.24969  0.71674  Biso   1.000  N
  H250     1.0000 0.12719  0.23349  0.81481  Biso   1.000  H
  H251     1.0000 0.01999  0.20717  0.83251  Biso   1.000  H
  H252     1.0000 0.02003  0.20724  0.83251  Biso   1.000  H
  C321     1.0000 0.90247  0.93308  0.78663  Biso   1.000  C
  C322     1.0000 0.85810  0.06342  0.78079  Biso   1.000  C
  C323     1.0000 0.93657  0.79469  0.78079  Biso   1.000  C
  N44      1.0000 0.18880  0.93908  0.71674  Biso   1.000  N
  H253     1.0000 0.18722  0.98002  0.83251  Biso   1.000  H
  H254     1.0000 0.10630  0.87280  0.81481  Biso   1.000  H
  N45      1.0000 0.18884  0.93915  0.71674  Biso   1.000  N
  N46      1.0000 0.18874  0.93908  0.71674  Biso   1.000  N
  C324     1.0000 0.05397  0.21038  0.64901  Biso   1.000  C
  C325     1.0000 0.80001  0.86160  0.79284  Biso   1.000  C
  H255     1.0000 0.85183  0.08461  0.83462  Biso   1.000  H
  H256     1.0000 0.88024  0.11671  0.74293  Biso   1.000  H
  H257     1.0000 0.79597  0.01120  0.76321  Biso   1.000  H
  H258     1.0000 0.79604  0.01120  0.76321  Biso   1.000  H
  H259     1.0000 0.85177  0.08461  0.83462  Biso   1.000  H
  H260     1.0000 0.88018  0.11671  0.74293  Biso   1.000  H
  H261     1.0000 0.91543  0.76722  0.83462  Biso   1.000  H
  H262     1.0000 0.88330  0.76351  0.74293  Biso   1.000  H
  H263     1.0000 0.98876  0.78477  0.76321  Biso   1.000  H
  H264     1.0000 0.98880  0.78484  0.76321  Biso   1.000  H
  H265     1.0000 0.91537  0.76722  0.83462  Biso   1.000  H
  C326     1.0000 0.15637  0.94600  0.64901  Biso   1.000  C
  C327     1.0000 0.15643  0.94600  0.64901  Biso   1.000  C
  C328     1.0000 0.05169  0.25611  0.57261  Biso   1.000  C
  H266     1.0000 0.05042  0.15003  0.64744  Biso   1.000  H
  N47      1.0000 0.75030  0.81124  0.71674  Biso   1.000  N
  H267     1.0000 0.79279  0.81281  0.83251  Biso   1.000  H
  H268     1.0000 0.76651  0.89370  0.81481  Biso   1.000  H
  N48      1.0000 0.75036  0.81124  0.71674  Biso   1.000  N
  C329     1.0000 0.20440  0.94828  0.57261  Biso   1.000  C
  C330     1.0000 0.20444  0.94835  0.57261  Biso   1.000  C
  C331     1.0000 0.20434  0.94828  0.57261  Biso   1.000  C
  H269     1.0000 0.09962  0.94963  0.64744  Biso   1.000  H
  C332     1.0000 0.05942  0.21659  0.50000  Biso   1.000  C
  C333     1.0000 0.05936  0.21659  0.50000  Biso   1.000  C
  C334     1.0000 0.03706  0.33287  0.57134  Biso   1.000  C
  C335     1.0000 0.03716  0.33294  0.57134  Biso   1.000  C
  C336     1.0000 0.03710  0.33294  0.57134  Biso   1.000  C
  C337     1.0000 0.78960  0.84362  0.64901  Biso   1.000  C
  C338     1.0000 0.15718  0.94057  0.50000  Biso   1.000  C
  C339     1.0000 0.15721  0.94065  0.50000  Biso   1.000  C
  C340     1.0000 0.29580  0.96290  0.57134  Biso   1.000  C
  C341     1.0000 0.05169  0.25611  0.42739  Biso   1.000  C
  H270     1.0000 0.06991  0.16380  0.50000  Biso   1.000  H
  H271     1.0000 0.06985  0.16380  0.50000  Biso   1.000  H
  C342     1.0000 0.03132  0.37068  0.50000  Biso   1.000  C
  C343     1.0000 0.03126  0.37068  0.50000  Biso   1.000  C
  H272     1.0000 0.03109  0.35948  0.62041  Biso   1.000  H
  C344     1.0000 0.74391  0.79561  0.57261  Biso   1.000  C
  H273     1.0000 0.84999  0.90041  0.64744  Biso   1.000  H
  C345     1.0000 0.20440  0.94828  0.42739  Biso   1.000  C
  C346     1.0000 0.20444  0.94835  0.42739  Biso   1.000  C
  C347     1.0000 0.20434  0.94828  0.42739  Biso   1.000  C
  H274     1.0000 0.09392  0.93009  0.50000  Biso   1.000  H
  H275     1.0000 0.09386  0.93009  0.50000  Biso   1.000  H
  C348     1.0000 0.33940  0.96868  0.50000  Biso   1.000  C
  C349     1.0000 0.33934  0.96868  0.50000  Biso   1.000  C
  H276     1.0000 0.32839  0.96890  0.62041  Biso   1.000  H
  C350     1.0000 0.05397  0.21038  0.35099  Biso   1.000  C
  C351     1.0000 0.03706  0.33287  0.42872  Biso   1.000  C
  C352     1.0000 0.03716  0.33294  0.42872  Biso   1.000  C
  C353     1.0000 0.03710  0.33294  0.42872  Biso   1.000  C
  Br16     1.0000 0.00680  0.47312  0.50000  Biso   1.000  Br
  C354     1.0000 0.78336  0.84277  0.50000  Biso   1.000  C
  C355     1.0000 0.78346  0.84284  0.50000  Biso   1.000  C
  C356     1.0000 0.78340  0.84284  0.50000  Biso   1.000  C
  C357     1.0000 0.66714  0.70423  0.57134  Biso   1.000  C
  C358     1.0000 0.66708  0.70423  0.57134  Biso   1.000  C
  C359     1.0000 0.15637  0.94600  0.35099  Biso   1.000  C
  C360     1.0000 0.15643  0.94600  0.35099  Biso   1.000  C
  C361     1.0000 0.29580  0.96290  0.42872  Biso   1.000  C
  Br17     1.0000 0.46628  0.99322  0.50000  Biso   1.000  Br
  Br18     1.0000 0.46634  0.99322  0.50000  Biso   1.000  Br
  N49      1.0000 0.06090  0.24969  0.28332  Biso   1.000  N
  H277     1.0000 0.05042  0.15003  0.35262  Biso   1.000  H
  H278     1.0000 0.03109  0.35948  0.37959  Biso   1.000  H
  C362     1.0000 0.74391  0.79561  0.42739  Biso   1.000  C
  H279     1.0000 0.83623  0.90612  0.50000  Biso   1.000  H
  H280     1.0000 0.83617  0.90612  0.50000  Biso   1.000  H
  C363     1.0000 0.62934  0.66064  0.50000  Biso   1.000  C
  C364     1.0000 0.62928  0.66064  0.50000  Biso   1.000  C
  H281     1.0000 0.64052  0.67162  0.62041  Biso   1.000  H
  N50      1.0000 0.18880  0.93908  0.28332  Biso   1.000  N
  N51      1.0000 0.18884  0.93915  0.28332  Biso   1.000  N
  N52      1.0000 0.18874  0.93908  0.28332  Biso   1.000  N
  H282     1.0000 0.09962  0.94963  0.35262  Biso   1.000  H
  H283     1.0000 0.32839  0.96890  0.37959  Biso   1.000  H
  C365     1.0000 0.06155  0.19996  0.20722  Biso   1.000  C
  C366     1.0000 0.06165  0.20004  0.20722  Biso   1.000  C
  C367     1.0000 0.06159  0.20004  0.20722  Biso   1.000  C
  C368     1.0000 0.78960  0.84362  0.35099  Biso   1.000  C
  C369     1.0000 0.66714  0.70423  0.42872  Biso   1.000  C
  C370     1.0000 0.66708  0.70423  0.42872  Biso   1.000  C
  Br19     1.0000 0.52690  0.53373  0.50000  Biso   1.000  Br
  C371     1.0000 0.13844  0.93843  0.20722  Biso   1.000  C
  C372     1.0000 0.13838  0.93843  0.20722  Biso   1.000  C
  C373     1.0000 0.03060  0.09752  0.21343  Biso   1.000  C
  H284     1.0000 0.12719  0.23349  0.18519  Biso   1.000  H
  H285     1.0000 0.01999  0.20717  0.16749  Biso   1.000  H
  H286     1.0000 0.02003  0.20724  0.16749  Biso   1.000  H
  N53      1.0000 0.75030  0.81124  0.28332  Biso   1.000  N
  N54      1.0000 0.75036  0.81124  0.28332  Biso   1.000  N
  H287     1.0000 0.84999  0.90041  0.35262  Biso   1.000  H
  H288     1.0000 0.64052  0.67162  0.37959  Biso   1.000  H
  C374     1.0000 0.06687  0.96940  0.21343  Biso   1.000  C
  C375     1.0000 0.06693  0.96940  0.21343  Biso   1.000  C
  H289     1.0000 0.18722  0.98002  0.16749  Biso   1.000  H
  H290     1.0000 0.10630  0.87280  0.18519  Biso   1.000  H
  C376     1.0000 0.93120  0.02811  0.21632  Biso   1.000  C
  C377     1.0000 0.09691  0.06877  0.21632  Biso   1.000  C
  C378     1.0000 0.09694  0.06884  0.21632  Biso   1.000  C
  C379     1.0000 0.09685  0.06877  0.21632  Biso   1.000  C
  C380     1.0000 0.09688  0.06884  0.21632  Biso   1.000  C
  C381     1.0000 0.80001  0.86160  0.20722  Biso   1.000  C
  C382     1.0000 0.97189  0.90312  0.21632  Biso   1.000  C
  C383     1.0000 0.97195  0.90312  0.21632  Biso   1.000  C
  C384     1.0000 0.90247  0.93308  0.21343  Biso   1.000  C
  C385     1.0000 0.85810  0.06342  0.21921  Biso   1.000  C
  C386     1.0000 0.20532  0.14189  0.21921  Biso   1.000  C
  C387     1.0000 0.20526  0.14189  0.21921  Biso   1.000  C
  H291     1.0000 0.79279  0.81281  0.16749  Biso   1.000  H
  H292     1.0000 0.76651  0.89370  0.18519  Biso   1.000  H
  C388     1.0000 0.93657  0.79469  0.21921  Biso   1.000  C
  H293     1.0000 0.85183  0.08461  0.16538  Biso   1.000  H
  H294     1.0000 0.88024  0.11671  0.25713  Biso   1.000  H
  H295     1.0000 0.79597  0.01120  0.23679  Biso   1.000  H
  H296     1.0000 0.79604  0.01120  0.23679  Biso   1.000  H
  H297     1.0000 0.85177  0.08461  0.16538  Biso   1.000  H
  H298     1.0000 0.88018  0.11671  0.25713  Biso   1.000  H
  H299     1.0000 0.21520  0.20403  0.23679  Biso   1.000  H
  H300     1.0000 0.23280  0.14817  0.16538  Biso   1.000  H
  H301     1.0000 0.23646  0.11978  0.25713  Biso   1.000  H
  H302     1.0000 0.23284  0.14824  0.16538  Biso   1.000  H
  H303     1.0000 0.23652  0.11978  0.25713  Biso   1.000  H
  H304     1.0000 0.23274  0.14817  0.16538  Biso   1.000  H
  H305     1.0000 0.91543  0.76722  0.16538  Biso   1.000  H
  H306     1.0000 0.88330  0.76351  0.25713  Biso   1.000  H
  H307     1.0000 0.98876  0.78477  0.23679  Biso   1.000  H
  H308     1.0000 0.98880  0.78484  0.23679  Biso   1.000  H
  H309     1.0000 0.91537  0.76722  0.16538  Biso   1.000  H
  C389     1.0000 0.49458  0.35392  0.71300  Biso   1.000  C
  H310     1.0000 0.44098  0.29392  0.73257  Biso   1.000  H
  H311     1.0000 0.50448  0.40621  0.74889  Biso   1.000  H
  H312     1.0000 0.48052  0.36683  0.65852  Biso   1.000  H
  C390     1.0000 0.58628  0.34593  0.71108  Biso   1.000  C
  H313     1.0000 0.44098  0.29392  0.73263  Biso   1.000  H
  H314     1.0000 0.50448  0.40621  0.74895  Biso   1.000  H
  C391     1.0000 0.58628  0.34593  0.71114  Biso   1.000  C
  C392     1.0000 0.67209  0.42190  0.71060  Biso   1.000  C
  C393     1.0000 0.57808  0.25019  0.71060  Biso   1.000  C
  C394     1.0000 0.68338  0.52121  0.70578  Biso   1.000  C
  C395     1.0000 0.75961  0.41370  0.71108  Biso   1.000  C
  C396     1.0000 0.68338  0.52121  0.70584  Biso   1.000  C
  C397     1.0000 0.75961  0.41370  0.71114  Biso   1.000  C
  C398     1.0000 0.47880  0.16223  0.70578  Biso   1.000  C
  C399     1.0000 0.65413  0.24041  0.71108  Biso   1.000  C
  C400     1.0000 0.47880  0.16223  0.70584  Biso   1.000  C
  C401     1.0000 0.65413  0.24041  0.71114  Biso   1.000  C
  N55      1.0000 0.68411  0.56579  0.78417  Biso   1.000  N
  H315     1.0000 0.63059  0.51721  0.67267  Biso   1.000  H
  H316     1.0000 0.74372  0.56380  0.67730  Biso   1.000  H
  N56      1.0000 0.68411  0.56579  0.78423  Biso   1.000  N
  H317     1.0000 0.63059  0.51721  0.67273  Biso   1.000  H
  C402     1.0000 0.85926  0.50537  0.71300  Biso   1.000  C
  C403     1.0000 0.74975  0.32788  0.71060  Biso   1.000  C
  N57      1.0000 0.43416  0.11828  0.78417  Biso   1.000  N
  H318     1.0000 0.48282  0.11343  0.67267  Biso   1.000  H
  H319     1.0000 0.43618  0.17992  0.67730  Biso   1.000  H
  N58      1.0000 0.43416  0.11828  0.78423  Biso   1.000  N
  H320     1.0000 0.48282  0.11343  0.67273  Biso   1.000  H
  C404     1.0000 0.64609  0.14068  0.71300  Biso   1.000  C
  C405     1.0000 0.68492  0.52863  0.84871  Biso   1.000  C
  H321     1.0000 0.85290  0.55902  0.73257  Biso   1.000  H
  H322     1.0000 0.90172  0.49552  0.74889  Biso   1.000  H
  H323     1.0000 0.88628  0.51949  0.65852  Biso   1.000  H
  H324     1.0000 0.85290  0.55902  0.73263  Biso   1.000  H
  H325     1.0000 0.90172  0.49552  0.74895  Biso   1.000  H
  C406     1.0000 0.83778  0.31660  0.70578  Biso   1.000  C
  C407     1.0000 0.83778  0.31660  0.70584  Biso   1.000  C
  C408     1.0000 0.47139  0.15630  0.84871  Biso   1.000  C
  H326     1.0000 0.70607  0.14710  0.73257  Biso   1.000  H
  H327     1.0000 0.59382  0.09831  0.74889  Biso   1.000  H
  H328     1.0000 0.63322  0.11372  0.65852  Biso   1.000  H
  H329     1.0000 0.70607  0.14710  0.73263  Biso   1.000  H
  H330     1.0000 0.59382  0.09831  0.74895  Biso   1.000  H
  H331     1.0000 0.68769  0.47127  0.84901  Biso   1.000  H
  C409     1.0000 0.68161  0.57328  0.92667  Biso   1.000  C
  C410     1.0000 0.68161  0.57328  0.92673  Biso   1.000  C
  N59      1.0000 0.88166  0.31589  0.78417  Biso   1.000  N
  H332     1.0000 0.88660  0.36940  0.67267  Biso   1.000  H
  H333     1.0000 0.82012  0.25632  0.67730  Biso   1.000  H
  N60      1.0000 0.88166  0.31589  0.78423  Biso   1.000  N
  H334     1.0000 0.88660  0.36940  0.67273  Biso   1.000  H
  H335     1.0000 0.52867  0.21637  0.84901  Biso   1.000  H
  C411     1.0000 0.42669  0.10829  0.92667  Biso   1.000  C
  C412     1.0000 0.42669  0.10829  0.92673  Biso   1.000  C
  C413     1.0000 0.66908  0.64990  0.92800  Biso   1.000  C
  C414     1.0000 0.68588  0.53141  0.00000  Biso   1.000  C
  C415     1.0000 0.84370  0.31511  0.84871  Biso   1.000  C
  C416     1.0000 0.35007  0.01919  0.92800  Biso   1.000  C
  C417     1.0000 0.46859  0.15452  0.00000  Biso   1.000  C
  H336     1.0000 0.66318  0.67665  0.87899  Biso   1.000  H
  C418     1.0000 0.66498  0.68878  0.00000  Biso   1.000  C
  H337     1.0000 0.66318  0.67665  0.87905  Biso   1.000  H
  H338     1.0000 0.69167  0.47576  0.00000  Biso   1.000  H
  C419     1.0000 0.68161  0.57328  0.07333  Biso   1.000  C
  H339     1.0000 0.78362  0.31232  0.84901  Biso   1.000  H
  C420     1.0000 0.89168  0.31839  0.92667  Biso   1.000  C
  C421     1.0000 0.89168  0.31839  0.92673  Biso   1.000  C
  H340     1.0000 0.32330  0.98652  0.87899  Biso   1.000  H
  C422     1.0000 0.31121  0.97617  0.00000  Biso   1.000  C
  H341     1.0000 0.32330  0.98652  0.87905  Biso   1.000  H
  H342     1.0000 0.52416  0.21587  0.00000  Biso   1.000  H
  C423     1.0000 0.42669  0.10829  0.07333  Biso   1.000  C
  Br20     1.0000 0.65263  0.80000  0.00000  Biso   1.000  Br
  C424     1.0000 0.66908  0.64990  0.07200  Biso   1.000  C
  C425     1.0000 0.68492  0.52863  0.15129  Biso   1.000  C
  C426     1.0000 0.68492  0.52863  0.15135  Biso   1.000  C
  C427     1.0000 0.98077  0.33087  0.92800  Biso   1.000  C
  C428     1.0000 0.84549  0.31411  0.00000  Biso   1.000  C
  Br21     1.0000 0.20000  0.85261  0.00000  Biso   1.000  Br
  C429     1.0000 0.35007  0.01919  0.07200  Biso   1.000  C
  C430     1.0000 0.47139  0.15630  0.15129  Biso   1.000  C
  C431     1.0000 0.47139  0.15630  0.15135  Biso   1.000  C
  H343     1.0000 0.66318  0.67665  0.12101  Biso   1.000  H
  N61      1.0000 0.68411  0.56579  0.21583  Biso   1.000  N
  H344     1.0000 0.68769  0.47127  0.15099  Biso   1.000  H
  H345     1.0000 0.68769  0.47127  0.15105  Biso   1.000  H
  H346     1.0000 0.01351  0.33679  0.87899  Biso   1.000  H
  C432     1.0000 0.02380  0.33501  0.00000  Biso   1.000  C
  H347     1.0000 0.01351  0.33679  0.87905  Biso   1.000  H
  H348     1.0000 0.78409  0.30833  0.00000  Biso   1.000  H
  C433     1.0000 0.89168  0.31839  0.07333  Biso   1.000  C
  H349     1.0000 0.32330  0.98652  0.12101  Biso   1.000  H
  N62      1.0000 0.43416  0.11828  0.21583  Biso   1.000  N
  H350     1.0000 0.52867  0.21637  0.15099  Biso   1.000  H
  H351     1.0000 0.52867  0.21637  0.15105  Biso   1.000  H
  C434     1.0000 0.68338  0.52121  0.29422  Biso   1.000  C
  C435     1.0000 0.98077  0.33087  0.07200  Biso   1.000  C
  Br22     1.0000 0.14739  0.34742  0.00000  Biso   1.000  Br
  C436     1.0000 0.84370  0.31511  0.15129  Biso   1.000  C
  C437     1.0000 0.84370  0.31511  0.15135  Biso   1.000  C
  C438     1.0000 0.47880  0.16223  0.29422  Biso   1.000  C
  H352     1.0000 0.63059  0.51721  0.32733  Biso   1.000  H
  H353     1.0000 0.74372  0.56380  0.32270  Biso   1.000  H
  C439     1.0000 0.67209  0.42190  0.28940  Biso   1.000  C
  H354     1.0000 0.74372  0.56380  0.32276  Biso   1.000  H
  H355     1.0000 0.01351  0.33679  0.12101  Biso   1.000  H
  N63      1.0000 0.88166  0.31589  0.21583  Biso   1.000  N
  H356     1.0000 0.78362  0.31232  0.15099  Biso   1.000  H
  H357     1.0000 0.78362  0.31232  0.15105  Biso   1.000  H
  H358     1.0000 0.48282  0.11343  0.32733  Biso   1.000  H
  H359     1.0000 0.43618  0.17992  0.32270  Biso   1.000  H
  C440     1.0000 0.57808  0.25019  0.28940  Biso   1.000  C
  H360     1.0000 0.43618  0.17992  0.32276  Biso   1.000  H
  C441     1.0000 0.75961  0.41370  0.28892  Biso   1.000  C
  C442     1.0000 0.58628  0.34593  0.28892  Biso   1.000  C
  C443     1.0000 0.83778  0.31660  0.29422  Biso   1.000  C
  C444     1.0000 0.65413  0.24041  0.28892  Biso   1.000  C
  C445     1.0000 0.85926  0.50537  0.28700  Biso   1.000  C
  C446     1.0000 0.74975  0.32788  0.28940  Biso   1.000  C
  C447     1.0000 0.85926  0.50537  0.28706  Biso   1.000  C
  C448     1.0000 0.49458  0.35392  0.28700  Biso   1.000  C
  C449     1.0000 0.49458  0.35392  0.28706  Biso   1.000  C
  H361     1.0000 0.88660  0.36940  0.32733  Biso   1.000  H
  H362     1.0000 0.82012  0.25632  0.32270  Biso   1.000  H
  H363     1.0000 0.82012  0.25632  0.32276  Biso   1.000  H
  C450     1.0000 0.64609  0.14068  0.28700  Biso   1.000  C
  C451     1.0000 0.64609  0.14068  0.28706  Biso   1.000  C
  H364     1.0000 0.85290  0.55902  0.26743  Biso   1.000  H
  H365     1.0000 0.90172  0.49552  0.25111  Biso   1.000  H
  H366     1.0000 0.88628  0.51949  0.34148  Biso   1.000  H
  H367     1.0000 0.88628  0.51949  0.34154  Biso   1.000  H
  H368     1.0000 0.44098  0.29392  0.26743  Biso   1.000  H
  H369     1.0000 0.50448  0.40621  0.25111  Biso   1.000  H
  H370     1.0000 0.48052  0.36683  0.34148  Biso   1.000  H
  H371     1.0000 0.48052  0.36683  0.34154  Biso   1.000  H
  H372     1.0000 0.70607  0.14710  0.26743  Biso   1.000  H
  H373     1.0000 0.59382  0.09831  0.25111  Biso   1.000  H
  H374     1.0000 0.63322  0.11372  0.34148  Biso   1.000  H
  H375     1.0000 0.63322  0.11372  0.34154  Biso   1.000  H
  C452     1.0000 0.49458  0.35392  0.71300  Biso   1.000  C
  H376     1.0000 0.48052  0.36683  0.65852  Biso   1.000  H
  H377     1.0000 0.44098  0.29392  0.73257  Biso   1.000  H
  H378     1.0000 0.50448  0.40621  0.74889  Biso   1.000  H
  C453     1.0000 0.58628  0.34593  0.71108  Biso   1.000  C
  H379     1.0000 0.44098  0.29392  0.73263  Biso   1.000  H
  H380     1.0000 0.50448  0.40621  0.74895  Biso   1.000  H
  C454     1.0000 0.58628  0.34593  0.71114  Biso   1.000  C
  C455     1.0000 0.67209  0.42190  0.71060  Biso   1.000  C
  C456     1.0000 0.57808  0.25019  0.71060  Biso   1.000  C
  C457     1.0000 0.68338  0.52121  0.70578  Biso   1.000  C
  C458     1.0000 0.75961  0.41370  0.71108  Biso   1.000  C
  C459     1.0000 0.68338  0.52121  0.70584  Biso   1.000  C
  C460     1.0000 0.75961  0.41370  0.71114  Biso   1.000  C
  C461     1.0000 0.47880  0.16223  0.70578  Biso   1.000  C
  C462     1.0000 0.65413  0.24041  0.71108  Biso   1.000  C
  C463     1.0000 0.47880  0.16223  0.70584  Biso   1.000  C
  C464     1.0000 0.65413  0.24041  0.71114  Biso   1.000  C
  H381     1.0000 0.74372  0.56380  0.67730  Biso   1.000  H
  N64      1.0000 0.68411  0.56579  0.78417  Biso   1.000  N
  H382     1.0000 0.63059  0.51721  0.67267  Biso   1.000  H
  N65      1.0000 0.68411  0.56579  0.78423  Biso   1.000  N
  H383     1.0000 0.63059  0.51721  0.67273  Biso   1.000  H
  C465     1.0000 0.85926  0.50537  0.71300  Biso   1.000  C
  C466     1.0000 0.74975  0.32788  0.71060  Biso   1.000  C
  H384     1.0000 0.43618  0.17992  0.67730  Biso   1.000  H
  N66      1.0000 0.43416  0.11828  0.78417  Biso   1.000  N
  H385     1.0000 0.48282  0.11343  0.67267  Biso   1.000  H
  N67      1.0000 0.43416  0.11828  0.78423  Biso   1.000  N
  H386     1.0000 0.48282  0.11343  0.67273  Biso   1.000  H
  C467     1.0000 0.64609  0.14068  0.71300  Biso   1.000  C
  C468     1.0000 0.68492  0.52863  0.84871  Biso   1.000  C
  H387     1.0000 0.88628  0.51949  0.65852  Biso   1.000  H
  H388     1.0000 0.85290  0.55902  0.73257  Biso   1.000  H
  H389     1.0000 0.90172  0.49552  0.74889  Biso   1.000  H
  H390     1.0000 0.85290  0.55902  0.73263  Biso   1.000  H
  H391     1.0000 0.90172  0.49552  0.74895  Biso   1.000  H
  C469     1.0000 0.83778  0.31660  0.70578  Biso   1.000  C
  C470     1.0000 0.83778  0.31660  0.70584  Biso   1.000  C
  C471     1.0000 0.47139  0.15630  0.84871  Biso   1.000  C
  H392     1.0000 0.63322  0.11372  0.65852  Biso   1.000  H
  H393     1.0000 0.70607  0.14710  0.73257  Biso   1.000  H
  H394     1.0000 0.59382  0.09831  0.74889  Biso   1.000  H
  H395     1.0000 0.70607  0.14710  0.73263  Biso   1.000  H
  H396     1.0000 0.59382  0.09831  0.74895  Biso   1.000  H
  H397     1.0000 0.68769  0.47127  0.84901  Biso   1.000  H
  C472     1.0000 0.68161  0.57328  0.92667  Biso   1.000  C
  C473     1.0000 0.68161  0.57328  0.92673  Biso   1.000  C
  H398     1.0000 0.82012  0.25632  0.67730  Biso   1.000  H
  N68      1.0000 0.88166  0.31589  0.78417  Biso   1.000  N
  H399     1.0000 0.88660  0.36940  0.67267  Biso   1.000  H
  N69      1.0000 0.88166  0.31589  0.78423  Biso   1.000  N
  H400     1.0000 0.88660  0.36940  0.67273  Biso   1.000  H
  H401     1.0000 0.52867  0.21637  0.84901  Biso   1.000  H
  C474     1.0000 0.42669  0.10829  0.92667  Biso   1.000  C
  C475     1.0000 0.42669  0.10829  0.92673  Biso   1.000  C
  C476     1.0000 0.66908  0.64990  0.92800  Biso   1.000  C
  C477     1.0000 0.68588  0.53141  0.00000  Biso   1.000  C
  C478     1.0000 0.84370  0.31511  0.84871  Biso   1.000  C
  C479     1.0000 0.35007  0.01919  0.92800  Biso   1.000  C
  C480     1.0000 0.46859  0.15452  0.00000  Biso   1.000  C
  H402     1.0000 0.66318  0.67665  0.87899  Biso   1.000  H
  C481     1.0000 0.66498  0.68878  0.00000  Biso   1.000  C
  H403     1.0000 0.66318  0.67665  0.87905  Biso   1.000  H
  H404     1.0000 0.69167  0.47576  0.00000  Biso   1.000  H
  C482     1.0000 0.68161  0.57328  0.07333  Biso   1.000  C
  H405     1.0000 0.78362  0.31232  0.84901  Biso   1.000  H
  C483     1.0000 0.89168  0.31839  0.92667  Biso   1.000  C
  C484     1.0000 0.89168  0.31839  0.92673  Biso   1.000  C
  H406     1.0000 0.32330  0.98652  0.87899  Biso   1.000  H
  C485     1.0000 0.31121  0.97617  0.00000  Biso   1.000  C
  H407     1.0000 0.32330  0.98652  0.87905  Biso   1.000  H
  H408     1.0000 0.52416  0.21587  0.00000  Biso   1.000  H
  C486     1.0000 0.42669  0.10829  0.07333  Biso   1.000  C
  Br23     1.0000 0.65263  0.80000  0.00000  Biso   1.000  Br
  C487     1.0000 0.66908  0.64990  0.07200  Biso   1.000  C
  C488     1.0000 0.68492  0.52863  0.15129  Biso   1.000  C
  C489     1.0000 0.68492  0.52863  0.15135  Biso   1.000  C
  C490     1.0000 0.98077  0.33087  0.92800  Biso   1.000  C
  C491     1.0000 0.84549  0.31411  0.00000  Biso   1.000  C
  Br24     1.0000 0.20000  0.85261  0.00000  Biso   1.000  Br
  C492     1.0000 0.35007  0.01919  0.07200  Biso   1.000  C
  C493     1.0000 0.47139  0.15630  0.15129  Biso   1.000  C
  C494     1.0000 0.47139  0.15630  0.15135  Biso   1.000  C
  H409     1.0000 0.66318  0.67665  0.12101  Biso   1.000  H
  N70      1.0000 0.68411  0.56579  0.21583  Biso   1.000  N
  H410     1.0000 0.68769  0.47127  0.15099  Biso   1.000  H
  H411     1.0000 0.68769  0.47127  0.15105  Biso   1.000  H
  H412     1.0000 0.01351  0.33679  0.87899  Biso   1.000  H
  C495     1.0000 0.02380  0.33501  0.00000  Biso   1.000  C
  H413     1.0000 0.01351  0.33679  0.87905  Biso   1.000  H
  H414     1.0000 0.78409  0.30833  0.00000  Biso   1.000  H
  C496     1.0000 0.89168  0.31839  0.07333  Biso   1.000  C
  H415     1.0000 0.32330  0.98652  0.12101  Biso   1.000  H
  N71      1.0000 0.43416  0.11828  0.21583  Biso   1.000  N
  H416     1.0000 0.52867  0.21637  0.15099  Biso   1.000  H
  H417     1.0000 0.52867  0.21637  0.15105  Biso   1.000  H
  C497     1.0000 0.68338  0.52121  0.29422  Biso   1.000  C
  C498     1.0000 0.98077  0.33087  0.07200  Biso   1.000  C
  Br25     1.0000 0.14739  0.34742  0.00000  Biso   1.000  Br
  C499     1.0000 0.84370  0.31511  0.15129  Biso   1.000  C
  C500     1.0000 0.84370  0.31511  0.15135  Biso   1.000  C
  C501     1.0000 0.47880  0.16223  0.29422  Biso   1.000  C
  H418     1.0000 0.63059  0.51721  0.32733  Biso   1.000  H
  H419     1.0000 0.74372  0.56380  0.32270  Biso   1.000  H
  C502     1.0000 0.67209  0.42190  0.28940  Biso   1.000  C
  H420     1.0000 0.74372  0.56380  0.32276  Biso   1.000  H
  H421     1.0000 0.01351  0.33679  0.12101  Biso   1.000  H
  N72      1.0000 0.88166  0.31589  0.21583  Biso   1.000  N
  H422     1.0000 0.78362  0.31232  0.15099  Biso   1.000  H
  H423     1.0000 0.78362  0.31232  0.15105  Biso   1.000  H
  H424     1.0000 0.48282  0.11343  0.32733  Biso   1.000  H
  H425     1.0000 0.43618  0.17992  0.32270  Biso   1.000  H
  C503     1.0000 0.57808  0.25019  0.28940  Biso   1.000  C
  H426     1.0000 0.43618  0.17992  0.32276  Biso   1.000  H
  C504     1.0000 0.75961  0.41370  0.28892  Biso   1.000  C
  C505     1.0000 0.58628  0.34593  0.28892  Biso   1.000  C
  C506     1.0000 0.83778  0.31660  0.29422  Biso   1.000  C
  C507     1.0000 0.65413  0.24041  0.28892  Biso   1.000  C
  C508     1.0000 0.85926  0.50537  0.28700  Biso   1.000  C
  C509     1.0000 0.74975  0.32788  0.28940  Biso   1.000  C
  C510     1.0000 0.85926  0.50537  0.28706  Biso   1.000  C
  C511     1.0000 0.49458  0.35392  0.28700  Biso   1.000  C
  C512     1.0000 0.49458  0.35392  0.28706  Biso   1.000  C
  H427     1.0000 0.88660  0.36940  0.32733  Biso   1.000  H
  H428     1.0000 0.82012  0.25632  0.32270  Biso   1.000  H
  H429     1.0000 0.82012  0.25632  0.32276  Biso   1.000  H
  C513     1.0000 0.64609  0.14068  0.28700  Biso   1.000  C
  C514     1.0000 0.64609  0.14068  0.28706  Biso   1.000  C
  H430     1.0000 0.85290  0.55902  0.26743  Biso   1.000  H
  H431     1.0000 0.90172  0.49552  0.25111  Biso   1.000  H
  H432     1.0000 0.88628  0.51949  0.34148  Biso   1.000  H
  H433     1.0000 0.88628  0.51949  0.34154  Biso   1.000  H
  H434     1.0000 0.44098  0.29392  0.26743  Biso   1.000  H
  H435     1.0000 0.50448  0.40621  0.25111  Biso   1.000  H
  H436     1.0000 0.48052  0.36683  0.34148  Biso   1.000  H
  H437     1.0000 0.48052  0.36683  0.34154  Biso   1.000  H
  H438     1.0000 0.70607  0.14710  0.26743  Biso   1.000  H
  H439     1.0000 0.59382  0.09831  0.25111  Biso   1.000  H
  H440     1.0000 0.63322  0.11372  0.34148  Biso   1.000  H
  H441     1.0000 0.63322  0.11372  0.34154  Biso   1.000  H
