data_image0
_cell_length_a       15.021
_cell_length_b       15.613
_cell_length_c       49.722
_cell_angle_alpha    90
_cell_angle_beta     90
_cell_angle_gamma    90

_symmetry_space_group_name_H-M    "P 1"
_symmetry_int_tables_number       1

loop_
  _symmetry_equiv_pos_as_xyz
  'x, y, z'

loop_
  _atom_site_label
  _atom_site_occupancy
  _atom_site_fract_x
  _atom_site_fract_y
  _atom_site_fract_z
  _atom_site_thermal_displace_type
  _atom_site_B_iso_or_equiv
  _atom_site_type_symbol
  C1       1.0000 0.59097  0.53321  0.50243  Biso   1.000  C
  C2       1.0000 0.61887  0.48818  0.47906  Biso   1.000  C
  C3       1.0000 0.64683  0.59572  0.51366  Biso   1.000  C
  H1       1.0000 0.53492  0.52110  0.51040  Biso   1.000  H
  C4       1.0000 0.56048  0.42433  0.46682  Biso   1.000  C
  C5       1.0000 0.70022  0.50721  0.46812  Biso   1.000  C
  C6       1.0000 0.72911  0.61442  0.50215  Biso   1.000  C
  H2       1.0000 0.62832  0.62570  0.52930  Biso   1.000  H
  N1       1.0000 0.57713  0.39038  0.44435  Biso   1.000  N
  H3       1.0000 0.50809  0.40761  0.47611  Biso   1.000  H
  H4       1.0000 0.71979  0.47659  0.45270  Biso   1.000  H
  C7       1.0000 0.75541  0.57061  0.47904  Biso   1.000  C
  B1       1.0000 0.79342  0.68430  0.51420  Biso   1.000  B
  C8       1.0000 0.51288  0.33088  0.43116  Biso   1.000  C
  H5       1.0000 0.81073  0.58368  0.47070  Biso   1.000  H
  O1       1.0000 0.87458  0.69391  0.50324  Biso   1.000  O
  O2       1.0000 0.76413  0.73183  0.53594  Biso   1.000  O
  C9       1.0000 0.43273  0.30007  0.44763  Biso   1.000  C
  H6       1.0000 0.54637  0.27970  0.42520  Biso   1.000  H
  H7       1.0000 0.48991  0.35951  0.41481  Biso   1.000  H
  C10      1.0000 0.93289  0.76090  0.51354  Biso   1.000  C
  C11      1.0000 0.82172  0.79748  0.54781  Biso   1.000  C
  C12      1.0000 0.35577  0.35022  0.44904  Biso   1.000  C
  C13      1.0000 0.43459  0.21770  0.45998  Biso   1.000  C
  C14      1.0000 0.91978  0.77679  0.54354  Biso   1.000  C
  H8       1.0000 0.92111  0.81471  0.50360  Biso   1.000  H
  H9       1.0000 0.99561  0.74451  0.51020  Biso   1.000  H
  H10      1.0000 0.80947  0.80158  0.56729  Biso   1.000  H
  H11      1.0000 0.80807  0.85371  0.53960  Biso   1.000  H
  C15      1.0000 0.35377  0.44002  0.43653  Biso   1.000  C
  C16      1.0000 0.28021  0.31922  0.46277  Biso   1.000  C
  C17      1.0000 0.35903  0.18773  0.47267  Biso   1.000  C
  C18      1.0000 0.51987  0.16307  0.45775  Biso   1.000  C
  C19      1.0000 0.94787  0.69948  0.55961  Biso   1.000  C
  C20      1.0000 0.97537  0.85301  0.55145  Biso   1.000  C
  C21      1.0000 0.31702  0.43848  0.40741  Biso   1.000  C
  H12      1.0000 0.41482  0.46391  0.43641  Biso   1.000  H
  H13      1.0000 0.31609  0.47787  0.44771  Biso   1.000  H
  C22      1.0000 0.19759  0.37539  0.46519  Biso   1.000  C
  C23      1.0000 0.28201  0.23647  0.47438  Biso   1.000  C
  C24      1.0000 0.36103  0.09671  0.48518  Biso   1.000  C
  H14      1.0000 0.57213  0.20169  0.45720  Biso   1.000  H
  H15      1.0000 0.52520  0.12707  0.47410  Biso   1.000  H
  C25      1.0000 0.52187  0.10498  0.43291  Biso   1.000  C
  O3       1.0000 0.95107  0.71748  0.58823  Biso   1.000  O
  H16      1.0000 0.90553  0.65221  0.55629  Biso   1.000  H
  H17      1.0000 0.00752  0.68059  0.55350  Biso   1.000  H
  O4       1.0000 0.96978  0.86883  0.58027  Biso   1.000  O
  H18      1.0000 0.95453  0.90431  0.54159  Biso   1.000  H
  H19      1.0000 0.03828  0.84263  0.54640  Biso   1.000  H
  H20      1.0000 0.35231  0.39877  0.39650  Biso   1.000  H
  H21      1.0000 0.32082  0.49619  0.39970  Biso   1.000  H
  H22      1.0000 0.25478  0.41978  0.40761  Biso   1.000  H
  N2       1.0000 0.19872  0.41901  0.49167  Biso   1.000  N
  H23      1.0000 0.19712  0.41850  0.45061  Biso   1.000  H
  H24      1.0000 0.14340  0.33978  0.46360  Biso   1.000  H
  C26      1.0000 0.19832  0.20323  0.48825  Biso   1.000  C
  N3       1.0000 0.39132  0.09761  0.51323  Biso   1.000  N
  H25      1.0000 0.30058  0.07161  0.48429  Biso   1.000  H
  H26      1.0000 0.40117  0.05989  0.47450  Biso   1.000  H
  H27      1.0000 0.47221  0.06437  0.43379  Biso   1.000  H
  H28      1.0000 0.57832  0.07340  0.43250  Biso   1.000  H
  H29      1.0000 0.51661  0.14001  0.41670  Biso   1.000  H
  B2       1.0000 0.96152  0.79991  0.59670  Biso   1.000  B
  C27      1.0000 0.19253  0.49523  0.49091  Biso   1.000  C
  H30      1.0000 0.21490  0.16121  0.50229  Biso   1.000  H
  H31      1.0000 0.16683  0.25133  0.49710  Biso   1.000  H
  C28      1.0000 0.13681  0.16089  0.46790  Biso   1.000  C
  C29      1.0000 0.44191  0.03830  0.51985  Biso   1.000  C
  C30      1.0000 0.96272  0.81631  0.62855  Biso   1.000  C
  C31      1.0000 0.19573  0.55659  0.51571  Biso   1.000  C
  H32      1.0000 0.18487  0.52078  0.47369  Biso   1.000  H
  H33      1.0000 0.12183  0.20208  0.45370  Biso   1.000  H
  H34      1.0000 0.08228  0.14200  0.47689  Biso   1.000  H
  H35      1.0000 0.16690  0.11138  0.45990  Biso   1.000  H
  C32      1.0000 0.47753  0.02568  0.54833  Biso   1.000  C
  H36      1.0000 0.45942  0.99853  0.50640  Biso   1.000  H
  C33      1.0000 0.97270  0.89880  0.63931  Biso   1.000  C
  C34      1.0000 0.95493  0.74720  0.64647  Biso   1.000  C
  C35      1.0000 0.18341  0.64011  0.51211  Biso   1.000  C
  C36      1.0000 0.20911  0.52347  0.54159  Biso   1.000  C
  C37      1.0000 0.46029  0.08538  0.56844  Biso   1.000  C
  C38      1.0000 0.52819  0.95638  0.55438  Biso   1.000  C
  C39      1.0000 0.97457  0.91110  0.66695  Biso   1.000  C
  H37      1.0000 0.97823  0.94652  0.62761  Biso   1.000  H
  H38      1.0000 0.94701  0.69090  0.63970  Biso   1.000  H
  C40      1.0000 0.95879  0.76033  0.67403  Biso   1.000  C
  C41      1.0000 0.18561  0.69359  0.53397  Biso   1.000  C
  H39      1.0000 0.17309  0.66240  0.49461  Biso   1.000  H
  H40      1.0000 0.21710  0.46378  0.54421  Biso   1.000  H
  C42      1.0000 0.21057  0.58003  0.56379  Biso   1.000  C
  C43      1.0000 0.49697  0.07500  0.59328  Biso   1.000  C
  H41      1.0000 0.42307  0.13322  0.56490  Biso   1.000  H
  H42      1.0000 0.53811  0.91379  0.54111  Biso   1.000  H
  C44      1.0000 0.56607  0.94639  0.57988  Biso   1.000  C
  C45      1.0000 0.96718  0.84353  0.68501  Biso   1.000  C
  H43      1.0000 0.98109  0.96772  0.67371  Biso   1.000  H
  H44      1.0000 0.95573  0.71248  0.68579  Biso   1.000  H
  C46      1.0000 0.20158  0.66790  0.55979  Biso   1.000  C
  H45      1.0000 0.17542  0.75277  0.53089  Biso   1.000  H
  H46      1.0000 0.21789  0.55800  0.58149  Biso   1.000  H
  C47      1.0000 0.55163  0.00730  0.59990  Biso   1.000  C
  H47      1.0000 0.48432  0.11651  0.60669  Biso   1.000  H
  H48      1.0000 0.60209  0.89771  0.58360  Biso   1.000  H
  C48      1.0000 0.97111  0.85589  0.71399  Biso   1.000  C
  B3       1.0000 0.20511  0.73637  0.58320  Biso   1.000  B
  B4       1.0000 0.59870  0.99769  0.62799  Biso   1.000  B
  N4       1.0000 0.96438  0.79312  0.73068  Biso   1.000  N
  H49      1.0000 0.97890  0.91219  0.72081  Biso   1.000  H
  O5       1.0000 0.22841  0.71088  0.60846  Biso   1.000  O
  O6       1.0000 0.18388  0.81701  0.57640  Biso   1.000  O
  O7       1.0000 0.57280  0.05009  0.64863  Biso   1.000  O
  O8       1.0000 0.66467  0.93832  0.63063  Biso   1.000  O
  C49      1.0000 0.97397  0.80971  0.75964  Biso   1.000  C
  C50      1.0000 0.22582  0.77410  0.62974  Biso   1.000  C
  C51      1.0000 0.19200  0.88510  0.59529  Biso   1.000  C
  C52      1.0000 0.61288  0.04067  0.67485  Biso   1.000  C
  C53      1.0000 0.71680  0.93160  0.65520  Biso   1.000  C
  C54      1.0000 0.89408  0.77410  0.77451  Biso   1.000  C
  H50      1.0000 0.97863  0.87209  0.76280  Biso   1.000  H
  H51      1.0000 0.02903  0.78217  0.76640  Biso   1.000  H
  C55      1.0000 0.25198  0.86178  0.61888  Biso   1.000  C
  H52      1.0000 0.26723  0.75719  0.64430  Biso   1.000  H
  H53      1.0000 0.16497  0.77692  0.63740  Biso   1.000  H
  H54      1.0000 0.13208  0.90008  0.60221  Biso   1.000  H
  H55      1.0000 0.21650  0.93608  0.58610  Biso   1.000  H
  C56      1.0000 0.70961  0.01262  0.67280  Biso   1.000  C
  H56      1.0000 0.60968  0.09607  0.68451  Biso   1.000  H
  H57      1.0000 0.57899  0.99789  0.68539  Biso   1.000  H
  H58      1.0000 0.77997  0.92192  0.65050  Biso   1.000  H
  H59      1.0000 0.69589  0.88151  0.66560  Biso   1.000  H
  C57      1.0000 0.82212  0.82880  0.77959  Biso   1.000  C
  C58      1.0000 0.88982  0.68789  0.78197  Biso   1.000  C
  C59      1.0000 0.35237  0.86537  0.61049  Biso   1.000  C
  C60      1.0000 0.23880  0.92999  0.64092  Biso   1.000  C
  C61      1.0000 0.76773  0.08333  0.66144  Biso   1.000  C
  C62      1.0000 0.74802  0.98649  0.70001  Biso   1.000  C
  C63      1.0000 0.74343  0.79517  0.79132  Biso   1.000  C
  C64      1.0000 0.82651  0.92410  0.77316  Biso   1.000  C
  C65      1.0000 0.81213  0.65311  0.79313  Biso   1.000  C
  C66      1.0000 0.97057  0.62999  0.77752  Biso   1.000  C
  O9       1.0000 0.40889  0.85403  0.63350  Biso   1.000  O
  H60      1.0000 0.36482  0.82002  0.59710  Biso   1.000  H
  H61      1.0000 0.36522  0.92148  0.60201  Biso   1.000  H
  O10      1.0000 0.30218  0.92058  0.66252  Biso   1.000  O
  H62      1.0000 0.24512  0.98757  0.63290  Biso   1.000  H
  H63      1.0000 0.17768  0.92513  0.64830  Biso   1.000  H
  O11      1.0000 0.77332  0.15698  0.67986  Biso   1.000  O
  H64      1.0000 0.82817  0.06059  0.65810  Biso   1.000  H
  H65      1.0000 0.74289  0.10241  0.64400  Biso   1.000  H
  O12      1.0000 0.76353  0.05969  0.71763  Biso   1.000  O
  H66      1.0000 0.70628  0.94639  0.70890  Biso   1.000  H
  H67      1.0000 0.80487  0.95587  0.69710  Biso   1.000  H
  C67      1.0000 0.66327  0.85358  0.79707  Biso   1.000  C
  C68      1.0000 0.73597  0.70512  0.79735  Biso   1.000  C
  H68      1.0000 0.76573  0.94607  0.76980  Biso   1.000  H
  H69      1.0000 0.86199  0.93288  0.75661  Biso   1.000  H
  C69      1.0000 0.86938  0.97457  0.79673  Biso   1.000  C
  C70      1.0000 0.80780  0.56062  0.80168  Biso   1.000  C
  H70      1.0000 0.96858  0.58381  0.79110  Biso   1.000  H
  C71      1.0000 0.98049  0.58989  0.75100  Biso   1.000  C
  H71      1.0000 0.02483  0.66419  0.78110  Biso   1.000  H
  B5       1.0000 0.38253  0.88189  0.65840  Biso   1.000  B
  B6       1.0000 0.77272  0.14110  0.70699  Biso   1.000  B
  N5       1.0000 0.59969  0.86742  0.77487  Biso   1.000  N
  H72      1.0000 0.63012  0.82918  0.81250  Biso   1.000  H
  H73      1.0000 0.68631  0.91020  0.80280  Biso   1.000  H
  C72      1.0000 0.65049  0.66983  0.80755  Biso   1.000  C
  H74      1.0000 0.83623  0.96330  0.81330  Biso   1.000  H
  H75      1.0000 0.93130  0.95638  0.79900  Biso   1.000  H
  H76      1.0000 0.86759  0.03612  0.79271  Biso   1.000  H
  N6       1.0000 0.79722  0.50029  0.77899  Biso   1.000  N
  H77      1.0000 0.86312  0.54621  0.81149  Biso   1.000  H
  H78      1.0000 0.75727  0.55319  0.81421  Biso   1.000  H
  H79      1.0000 0.92730  0.55601  0.74689  Biso   1.000  H
  H80      1.0000 0.98802  0.63447  0.73730  Biso   1.000  H
  H81      1.0000 0.03289  0.55249  0.75100  Biso   1.000  H
  C73      1.0000 0.44451  0.86742  0.68272  Biso   1.000  C
  C74      1.0000 0.78650  0.21751  0.72726  Biso   1.000  C
  C75      1.0000 0.61361  0.83008  0.75240  Biso   1.000  C
  H82      1.0000 0.64277  0.61103  0.80039  Biso   1.000  H
  H83      1.0000 0.60089  0.70518  0.80059  Biso   1.000  H
  C76      1.0000 0.64470  0.66701  0.83878  Biso   1.000  C
  C77      1.0000 0.81859  0.42433  0.78368  Biso   1.000  C
  C78      1.0000 0.42128  0.90200  0.70866  Biso   1.000  C
  C79      1.0000 0.52307  0.81983  0.68143  Biso   1.000  C
  C80      1.0000 0.78457  0.30270  0.71847  Biso   1.000  C
  C81      1.0000 0.80028  0.20099  0.75441  Biso   1.000  C
  C82      1.0000 0.55382  0.84180  0.72873  Biso   1.000  C
  H84      1.0000 0.66387  0.79351  0.75069  Biso   1.000  H
  H85      1.0000 0.69443  0.63332  0.84590  Biso   1.000  H
  H86      1.0000 0.58831  0.64068  0.84419  Biso   1.000  H
  H87      1.0000 0.64789  0.72549  0.84590  Biso   1.000  H
  C83      1.0000 0.80760  0.35291  0.76369  Biso   1.000  C
  H88      1.0000 0.84302  0.41100  0.80079  Biso   1.000  H
  C84      1.0000 0.47360  0.88958  0.73024  Biso   1.000  C
  H89      1.0000 0.36802  0.93409  0.71049  Biso   1.000  H
  H90      1.0000 0.54011  0.79511  0.66470  Biso   1.000  H
  C85      1.0000 0.57699  0.80728  0.70355  Biso   1.000  C
  C86      1.0000 0.79462  0.37072  0.73678  Biso   1.000  C
  H91      1.0000 0.77638  0.31461  0.69989  Biso   1.000  H
  H92      1.0000 0.80201  0.14360  0.76071  Biso   1.000  H
  C87      1.0000 0.81153  0.26869  0.77262  Biso   1.000  C
  H93      1.0000 0.45643  0.91360  0.74699  Biso   1.000  H
  H94      1.0000 0.63032  0.77500  0.70180  Biso   1.000  H
  H95      1.0000 0.79249  0.42830  0.73070  Biso   1.000  H
  H96      1.0000 0.82192  0.25703  0.79110  Biso   1.000  H
  C88      1.0000 0.47540  0.64702  0.44855  Biso   1.000  C
  O13      1.0000 0.46981  0.63120  0.41973  Biso   1.000  O
  C89      1.0000 0.41981  0.72318  0.45646  Biso   1.000  C
  H97      1.0000 0.53831  0.65740  0.45360  Biso   1.000  H
  H98      1.0000 0.45450  0.59572  0.45841  Biso   1.000  H
  B7       1.0000 0.46149  0.70012  0.40330  Biso   1.000  B
  C90      1.0000 0.44791  0.80049  0.44039  Biso   1.000  C
  C91      1.0000 0.43293  0.73913  0.48646  Biso   1.000  C
  C92      1.0000 0.32168  0.70249  0.45219  Biso   1.000  C
  C93      1.0000 0.46269  0.68373  0.37145  Biso   1.000  C
  O14      1.0000 0.45110  0.78249  0.41177  Biso   1.000  O
  H99      1.0000 0.40550  0.84782  0.44371  Biso   1.000  H
  H100     1.0000 0.50749  0.81938  0.44650  Biso   1.000  H
  O15      1.0000 0.37461  0.80612  0.49676  Biso   1.000  O
  H101     1.0000 0.42108  0.68533  0.49640  Biso   1.000  H
  H102     1.0000 0.49557  0.75552  0.48980  Biso   1.000  H
  O16      1.0000 0.26410  0.76821  0.46406  Biso   1.000  O
  H103     1.0000 0.30950  0.69839  0.43271  Biso   1.000  H
  H104     1.0000 0.30810  0.64632  0.46040  Biso   1.000  H
  C94      1.0000 0.47267  0.60123  0.36069  Biso   1.000  C
  C95      1.0000 0.45490  0.75277  0.35353  Biso   1.000  C
  B8       1.0000 0.29339  0.81573  0.48580  Biso   1.000  B
  C96      1.0000 0.47460  0.58887  0.33305  Biso   1.000  C
  H105     1.0000 0.47820  0.55351  0.37239  Biso   1.000  H
  C97      1.0000 0.45882  0.73970  0.32597  Biso   1.000  C
  H106     1.0000 0.44697  0.80907  0.36030  Biso   1.000  H
  C98      1.0000 0.22908  0.88561  0.49785  Biso   1.000  C
  C99      1.0000 0.46721  0.65650  0.31499  Biso   1.000  C
  H107     1.0000 0.48113  0.53231  0.32629  Biso   1.000  H
  H108     1.0000 0.45570  0.78748  0.31421  Biso   1.000  H
  C100     1.0000 0.14679  0.90431  0.48634  Biso   1.000  C
  C101     1.0000 0.25538  0.92942  0.52096  Biso   1.000  C
  C102     1.0000 0.47107  0.64408  0.28601  Biso   1.000  C
  H109     1.0000 0.12829  0.87427  0.47070  Biso   1.000  H
  C103     1.0000 0.09101  0.96682  0.49757  Biso   1.000  C
  C104     1.0000 0.20019  0.99283  0.53188  Biso   1.000  C
  H110     1.0000 0.31070  0.91629  0.52930  Biso   1.000  H
  N7       1.0000 0.46442  0.70691  0.26932  Biso   1.000  N
  H111     1.0000 0.47893  0.58778  0.27919  Biso   1.000  H
  H112     1.0000 0.03488  0.97893  0.48960  Biso   1.000  H
  C105     1.0000 0.11890  0.01179  0.52094  Biso   1.000  C
  H113     1.0000 0.21983  0.02338  0.54730  Biso   1.000  H
  C106     1.0000 0.47400  0.69032  0.24036  Biso   1.000  C
  C107     1.0000 0.06052  0.07571  0.53318  Biso   1.000  C
  C108     1.0000 0.39411  0.72587  0.22549  Biso   1.000  C
  H114     1.0000 0.47860  0.62787  0.23720  Biso   1.000  H
  H115     1.0000 0.52899  0.71780  0.23360  Biso   1.000  H
  N8       1.0000 0.07709  0.10959  0.55565  Biso   1.000  N
  H116     1.0000 0.00812  0.09242  0.52389  Biso   1.000  H
  C109     1.0000 0.32208  0.67117  0.22041  Biso   1.000  C
  C110     1.0000 0.38979  0.81208  0.21803  Biso   1.000  C
  C111     1.0000 0.01292  0.16909  0.56884  Biso   1.000  C
  C112     1.0000 0.32648  0.57593  0.22684  Biso   1.000  C
  C113     1.0000 0.24339  0.70480  0.20868  Biso   1.000  C
  C114     1.0000 0.31210  0.84692  0.20687  Biso   1.000  C
  C115     1.0000 0.47061  0.86998  0.22248  Biso   1.000  C
  H117     1.0000 0.98988  0.14052  0.58519  Biso   1.000  H
  C116     1.0000 0.93269  0.19990  0.55237  Biso   1.000  C
  H118     1.0000 0.04640  0.22033  0.57480  Biso   1.000  H
  C117     1.0000 0.36942  0.52540  0.20327  Biso   1.000  C
  H119     1.0000 0.26569  0.55390  0.23020  Biso   1.000  H
  H120     1.0000 0.36203  0.56709  0.24339  Biso   1.000  H
  C118     1.0000 0.23600  0.79491  0.20265  Biso   1.000  C
  C119     1.0000 0.16330  0.64638  0.20293  Biso   1.000  C
  C120     1.0000 0.30777  0.93941  0.19832  Biso   1.000  C
  H121     1.0000 0.52480  0.83578  0.21890  Biso   1.000  H
  H122     1.0000 0.46861  0.91622  0.20890  Biso   1.000  H
  C121     1.0000 0.48053  0.91007  0.24900  Biso   1.000  C
  C122     1.0000 0.85580  0.14981  0.55096  Biso   1.000  C
  C123     1.0000 0.93462  0.28233  0.54002  Biso   1.000  C
  H123     1.0000 0.33620  0.53667  0.18670  Biso   1.000  H
  H124     1.0000 0.36762  0.46391  0.20729  Biso   1.000  H
  H125     1.0000 0.43133  0.54359  0.20100  Biso   1.000  H
  C124     1.0000 0.15052  0.83021  0.19245  Biso   1.000  C
  N9       1.0000 0.09973  0.63261  0.22513  Biso   1.000  N
  H126     1.0000 0.13008  0.67079  0.18750  Biso   1.000  H
  H127     1.0000 0.18627  0.58983  0.19720  Biso   1.000  H
  N10      1.0000 0.29718  0.99968  0.22101  Biso   1.000  N
  H128     1.0000 0.36309  0.95382  0.18851  Biso   1.000  H
  H129     1.0000 0.25731  0.94678  0.18579  Biso   1.000  H
  H130     1.0000 0.42727  0.94402  0.25311  Biso   1.000  H
  H131     1.0000 0.53292  0.94748  0.24900  Biso   1.000  H
  H132     1.0000 0.48798  0.86550  0.26270  Biso   1.000  H
  C125     1.0000 0.78017  0.18081  0.53723  Biso   1.000  C
  C126     1.0000 0.85380  0.06001  0.56347  Biso   1.000  C
  C127     1.0000 0.85900  0.31230  0.52733  Biso   1.000  C
  C128     1.0000 0.01991  0.33690  0.54225  Biso   1.000  C
  H133     1.0000 0.14280  0.88900  0.19961  Biso   1.000  H
  H134     1.0000 0.10093  0.79479  0.19941  Biso   1.000  H
  C129     1.0000 0.14473  0.83302  0.16122  Biso   1.000  C
  C130     1.0000 0.11357  0.66989  0.24760  Biso   1.000  C
  C131     1.0000 0.31862  0.07571  0.21632  Biso   1.000  C
  C132     1.0000 0.69762  0.12458  0.53481  Biso   1.000  C
  C133     1.0000 0.78197  0.26350  0.52562  Biso   1.000  C
  H135     1.0000 0.91479  0.03612  0.56359  Biso   1.000  H
  H136     1.0000 0.81612  0.02210  0.55229  Biso   1.000  H
  C134     1.0000 0.81699  0.06149  0.59259  Biso   1.000  C
  C135     1.0000 0.86099  0.40332  0.51482  Biso   1.000  C
  H137     1.0000 0.07210  0.29828  0.54280  Biso   1.000  H
  H138     1.0000 0.02523  0.37289  0.52590  Biso   1.000  H
  C136     1.0000 0.02190  0.39499  0.56709  Biso   1.000  C
  H139     1.0000 0.19439  0.86671  0.15410  Biso   1.000  H
  H140     1.0000 0.08828  0.85928  0.15581  Biso   1.000  H
  H141     1.0000 0.14793  0.77448  0.15410  Biso   1.000  H
  H142     1.0000 0.16390  0.70653  0.24931  Biso   1.000  H
  C137     1.0000 0.05379  0.65817  0.27127  Biso   1.000  C
  H143     1.0000 0.34299  0.08903  0.19921  Biso   1.000  H
  C138     1.0000 0.30757  0.14712  0.23631  Biso   1.000  C
  N11      1.0000 0.69869  0.08102  0.50833  Biso   1.000  N
  H144     1.0000 0.69709  0.08147  0.54939  Biso   1.000  H
  H145     1.0000 0.64343  0.16019  0.53640  Biso   1.000  H
  C139     1.0000 0.69829  0.29680  0.51175  Biso   1.000  C
  H146     1.0000 0.85227  0.10120  0.60350  Biso   1.000  H
  H147     1.0000 0.82078  0.00378  0.60030  Biso   1.000  H
  H148     1.0000 0.75481  0.08019  0.59239  Biso   1.000  H
  N12      1.0000 0.89129  0.40242  0.48677  Biso   1.000  N
  H149     1.0000 0.80061  0.42843  0.51571  Biso   1.000  H
  H150     1.0000 0.90120  0.44008  0.52550  Biso   1.000  H
  H151     1.0000 0.97217  0.43560  0.56621  Biso   1.000  H
  H152     1.0000 0.07829  0.42663  0.56750  Biso   1.000  H
  H153     1.0000 0.01658  0.36002  0.58330  Biso   1.000  H
  C140     1.0000 0.07703  0.69269  0.29645  Biso   1.000  C
  C141     1.0000 0.97357  0.61039  0.26976  Biso   1.000  C
  C142     1.0000 0.29459  0.12932  0.26322  Biso   1.000  C
  C143     1.0000 0.31150  0.23128  0.22738  Biso   1.000  C
  C144     1.0000 0.69250  0.00480  0.50909  Biso   1.000  C
  H154     1.0000 0.71493  0.33882  0.49771  Biso   1.000  H
  H155     1.0000 0.66680  0.24870  0.50290  Biso   1.000  H
  C145     1.0000 0.63678  0.33908  0.53210  Biso   1.000  C
  C146     1.0000 0.94188  0.46173  0.48015  Biso   1.000  C
  C147     1.0000 0.02310  0.68020  0.31857  Biso   1.000  C
  H156     1.0000 0.13028  0.72497  0.29820  Biso   1.000  H
  H157     1.0000 0.95639  0.58637  0.25301  Biso   1.000  H
  C148     1.0000 0.92131  0.59803  0.29134  Biso   1.000  C
  H158     1.0000 0.29252  0.07167  0.26930  Biso   1.000  H
  C149     1.0000 0.28460  0.19727  0.28153  Biso   1.000  C
  C150     1.0000 0.30031  0.29898  0.24559  Biso   1.000  C
  H159     1.0000 0.32188  0.24300  0.20890  Biso   1.000  H
  C151     1.0000 0.69569  0.94338  0.48429  Biso   1.000  C
  H160     1.0000 0.68491  0.97918  0.52631  Biso   1.000  H
  H161     1.0000 0.62180  0.29789  0.54630  Biso   1.000  H
  H162     1.0000 0.58232  0.35797  0.52311  Biso   1.000  H
  H163     1.0000 0.66693  0.38859  0.54010  Biso   1.000  H
  C152     1.0000 0.97750  0.47428  0.45167  Biso   1.000  C
  H164     1.0000 0.95939  0.50151  0.49360  Biso   1.000  H
  H165     1.0000 0.04008  0.70493  0.33530  Biso   1.000  H
  C153     1.0000 0.94448  0.63261  0.31728  Biso   1.000  C
  H166     1.0000 0.86798  0.56587  0.28951  Biso   1.000  H
  H167     1.0000 0.27641  0.18542  0.30011  Biso   1.000  H
  C154     1.0000 0.28653  0.28252  0.27274  Biso   1.000  C
  H168     1.0000 0.30198  0.35637  0.23929  Biso   1.000  H
  C155     1.0000 0.68338  0.85992  0.48789  Biso   1.000  C
  C156     1.0000 0.70907  0.97649  0.45841  Biso   1.000  C
  C157     1.0000 0.96032  0.41459  0.43156  Biso   1.000  C
  C158     1.0000 0.02823  0.54359  0.44562  Biso   1.000  C
  B9       1.0000 0.88250  0.61807  0.34160  Biso   1.000  B
  B10      1.0000 0.27268  0.35893  0.29301  Biso   1.000  B
  C159     1.0000 0.68557  0.80638  0.46603  Biso   1.000  C
  H169     1.0000 0.67312  0.83757  0.50539  Biso   1.000  H
  C160     1.0000 0.71061  0.92000  0.43621  Biso   1.000  C
  H170     1.0000 0.71713  0.03619  0.45579  Biso   1.000  H
  C161     1.0000 0.99700  0.42503  0.40672  Biso   1.000  C
  H171     1.0000 0.92311  0.36681  0.43510  Biso   1.000  H
  C162     1.0000 0.06611  0.55358  0.42012  Biso   1.000  C
  H172     1.0000 0.03808  0.58618  0.45889  Biso   1.000  H
  O17      1.0000 0.90893  0.64600  0.36650  Biso   1.000  O
  O18      1.0000 0.80221  0.57939  0.33748  Biso   1.000  O
  O19      1.0000 0.26350  0.44027  0.28237  Biso   1.000  O
  O20      1.0000 0.27328  0.34298  0.32014  Biso   1.000  O
  C163     1.0000 0.70162  0.83213  0.44021  Biso   1.000  C
  H173     1.0000 0.67539  0.74720  0.46911  Biso   1.000  H
  H174     1.0000 0.71793  0.94197  0.41851  Biso   1.000  H
  C164     1.0000 0.05159  0.49273  0.40010  Biso   1.000  C
  H175     1.0000 0.98429  0.38353  0.39331  Biso   1.000  H
  H176     1.0000 0.10212  0.60232  0.41640  Biso   1.000  H
  C165     1.0000 0.85241  0.63460  0.38951  Biso   1.000  C
  C166     1.0000 0.73883  0.56997  0.35908  Biso   1.000  C
  C167     1.0000 0.24799  0.51348  0.29999  Biso   1.000  C
  C168     1.0000 0.26769  0.41670  0.33856  Biso   1.000  C
  B11      1.0000 0.70508  0.76359  0.41680  Biso   1.000  B
  B12      1.0000 0.09873  0.50227  0.37201  Biso   1.000  B
  H177     1.0000 0.86479  0.68001  0.40290  Biso   1.000  H
  H178     1.0000 0.86519  0.57849  0.39799  Biso   1.000  H
  C169     1.0000 0.75201  0.63819  0.38112  Biso   1.000  C
  H179     1.0000 0.74509  0.51239  0.36710  Biso   1.000  H
  H180     1.0000 0.67772  0.57491  0.35170  Biso   1.000  H
  H181     1.0000 0.20631  0.55358  0.29110  Biso   1.000  H
  H182     1.0000 0.30491  0.54410  0.30290  Biso   1.000  H
  C170     1.0000 0.20957  0.48741  0.32720  Biso   1.000  C
  H183     1.0000 0.32821  0.43938  0.34190  Biso   1.000  H
  H184     1.0000 0.24293  0.39762  0.35600  Biso   1.000  H
  O21      1.0000 0.72838  0.78909  0.39154  Biso   1.000  O
  O22      1.0000 0.68391  0.68302  0.42360  Biso   1.000  O
  O23      1.0000 0.16470  0.56171  0.36937  Biso   1.000  O
  O24      1.0000 0.07283  0.44988  0.35137  Biso   1.000  O
  C171     1.0000 0.72578  0.72587  0.37026  Biso   1.000  C
  C172     1.0000 0.69203  0.61487  0.40471  Biso   1.000  C
  C173     1.0000 0.21683  0.56837  0.34480  Biso   1.000  C
  C174     1.0000 0.11291  0.45930  0.32515  Biso   1.000  C
  H185     1.0000 0.76719  0.74278  0.35570  Biso   1.000  H
  H186     1.0000 0.66500  0.72312  0.36260  Biso   1.000  H
  H187     1.0000 0.63212  0.59988  0.39779  Biso   1.000  H
  H188     1.0000 0.71653  0.56389  0.41390  Biso   1.000  H
  H189     1.0000 0.28001  0.57811  0.34950  Biso   1.000  H
  H190     1.0000 0.19593  0.61852  0.33440  Biso   1.000  H
  H191     1.0000 0.07902  0.50208  0.31461  Biso   1.000  H
  H192     1.0000 0.10971  0.40389  0.31549  Biso   1.000  H
  C175     1.0000 0.35530  0.16698  0.66122  Biso   1.000  C
  C176     1.0000 0.34951  0.16979  0.69245  Biso   1.000  C
  H193     1.0000 0.30557  0.13329  0.65410  Biso   1.000  H
  H194     1.0000 0.41169  0.14072  0.65581  Biso   1.000  H
  H195     1.0000 0.35211  0.22552  0.65410  Biso   1.000  H
  C177     1.0000 0.26403  0.20509  0.70265  Biso   1.000  C
  H196     1.0000 0.35723  0.11100  0.69961  Biso   1.000  H
  H197     1.0000 0.39911  0.20521  0.69941  Biso   1.000  H
  C178     1.0000 0.25657  0.29520  0.70868  Biso   1.000  C
  C179     1.0000 0.18787  0.15308  0.70687  Biso   1.000  C
  C180     1.0000 0.17788  0.32883  0.72041  Biso   1.000  C
  C181     1.0000 0.33673  0.35362  0.70293  Biso   1.000  C
  C182     1.0000 0.11018  0.18792  0.71803  Biso   1.000  C
  C183     1.0000 0.19220  0.06059  0.69832  Biso   1.000  C
  C184     1.0000 0.10592  0.27413  0.72549  Biso   1.000  C
  C185     1.0000 0.17349  0.42407  0.72684  Biso   1.000  C
  N13      1.0000 0.40031  0.36739  0.72513  Biso   1.000  N
  H198     1.0000 0.36988  0.32921  0.68750  Biso   1.000  H
  H199     1.0000 0.31369  0.41017  0.69720  Biso   1.000  H
  C186     1.0000 0.02943  0.13002  0.72248  Biso   1.000  C
  N14      1.0000 0.20278  0.00032  0.72101  Biso   1.000  N
  H200     1.0000 0.13688  0.04618  0.68851  Biso   1.000  H
  H201     1.0000 0.24273  0.05322  0.68579  Biso   1.000  H
  C187     1.0000 0.02603  0.30968  0.74036  Biso   1.000  C
  H202     1.0000 0.23427  0.44610  0.73020  Biso   1.000  H
  H203     1.0000 0.13801  0.43291  0.74339  Biso   1.000  H
  C188     1.0000 0.13062  0.47460  0.70327  Biso   1.000  C
  C189     1.0000 0.38639  0.33011  0.74760  Biso   1.000  C
  H204     1.0000 0.03142  0.08378  0.70890  Biso   1.000  H
  C190     1.0000 0.01951  0.08993  0.74900  Biso   1.000  C
  H205     1.0000 0.97517  0.16422  0.71890  Biso   1.000  H
  C191     1.0000 0.18141  0.92429  0.71632  Biso   1.000  C
  N15      1.0000 0.03562  0.29309  0.76932  Biso   1.000  N
  H206     1.0000 0.02137  0.37213  0.73720  Biso   1.000  H
  H207     1.0000 0.97097  0.28220  0.73360  Biso   1.000  H
  H208     1.0000 0.16377  0.46333  0.68670  Biso   1.000  H
  H209     1.0000 0.13241  0.53609  0.70729  Biso   1.000  H
  H210     1.0000 0.06870  0.45641  0.70100  Biso   1.000  H
  H211     1.0000 0.33613  0.29347  0.74931  Biso   1.000  H
  C192     1.0000 0.44618  0.34183  0.77127  Biso   1.000  C
  H212     1.0000 0.07270  0.05598  0.75311  Biso   1.000  H
  H213     1.0000 0.01198  0.13450  0.76270  Biso   1.000  H
  H214     1.0000 0.96711  0.05252  0.74900  Biso   1.000  H
  H215     1.0000 0.15698  0.91097  0.69921  Biso   1.000  H
  C193     1.0000 0.19240  0.85288  0.73631  Biso   1.000  C
  C194     1.0000 0.02889  0.35592  0.78601  Biso   1.000  C
  C195     1.0000 0.52640  0.38961  0.76976  Biso   1.000  C
  C196     1.0000 0.42301  0.30731  0.79645  Biso   1.000  C
  C197     1.0000 0.20538  0.87068  0.76322  Biso   1.000  C
  C198     1.0000 0.18847  0.76872  0.72738  Biso   1.000  C
  H216     1.0000 0.02110  0.41222  0.77919  Biso   1.000  H
  C199     1.0000 0.03282  0.34350  0.81499  Biso   1.000  C
  H217     1.0000 0.54357  0.41363  0.75301  Biso   1.000  H
  C200     1.0000 0.57872  0.40197  0.79134  Biso   1.000  C
  C201     1.0000 0.47693  0.31980  0.81857  Biso   1.000  C
  H218     1.0000 0.36968  0.27503  0.79820  Biso   1.000  H
  H219     1.0000 0.20751  0.92833  0.76930  Biso   1.000  H
  C202     1.0000 0.21543  0.80273  0.78153  Biso   1.000  C
  C203     1.0000 0.19972  0.70102  0.74559  Biso   1.000  C
  H220     1.0000 0.17808  0.75700  0.70890  Biso   1.000  H
  C204     1.0000 0.02543  0.41113  0.83305  Biso   1.000  C
  C205     1.0000 0.04121  0.26030  0.82597  Biso   1.000  C
  H221     1.0000 0.63198  0.43413  0.78951  Biso   1.000  H
  C206     1.0000 0.55549  0.36739  0.81728  Biso   1.000  C
  H222     1.0000 0.45989  0.29507  0.83530  Biso   1.000  H
  H223     1.0000 0.22362  0.81458  0.80011  Biso   1.000  H
  C207     1.0000 0.21350  0.71748  0.77274  Biso   1.000  C
  H224     1.0000 0.19799  0.64363  0.73929  Biso   1.000  H
  H225     1.0000 0.01891  0.46769  0.82629  Biso   1.000  H
  C208     1.0000 0.02730  0.39877  0.86069  Biso   1.000  C
  C209     1.0000 0.04507  0.24723  0.85353  Biso   1.000  C
  H226     1.0000 0.04427  0.21252  0.81421  Biso   1.000  H
  B13      1.0000 0.61747  0.38193  0.84160  Biso   1.000  B
  B14      1.0000 0.22728  0.64107  0.79301  Biso   1.000  B
  H227     1.0000 0.02177  0.44649  0.87239  Biso   1.000  H
  C210     1.0000 0.03728  0.31627  0.87145  Biso   1.000  C
  H228     1.0000 0.05299  0.19093  0.86030  Biso   1.000  H
  O25      1.0000 0.59111  0.35400  0.86650  Biso   1.000  O
  O26      1.0000 0.69782  0.42061  0.83748  Biso   1.000  O
  O27      1.0000 0.23647  0.55973  0.78237  Biso   1.000  O
  O28      1.0000 0.22668  0.65702  0.82014  Biso   1.000  O
  B15      1.0000 0.03848  0.29988  0.90330  Biso   1.000  B
  C211     1.0000 0.64763  0.36540  0.88951  Biso   1.000  C
  C212     1.0000 0.76120  0.43003  0.85908  Biso   1.000  C
  C213     1.0000 0.25198  0.48652  0.79999  Biso   1.000  C
  C214     1.0000 0.23227  0.58330  0.83856  Biso   1.000  C
  O29      1.0000 0.04893  0.21751  0.91177  Biso   1.000  O
  O30      1.0000 0.03022  0.36880  0.91973  Biso   1.000  O
  H229     1.0000 0.63518  0.31999  0.90290  Biso   1.000  H
  H230     1.0000 0.63478  0.42151  0.89799  Biso   1.000  H
  C215     1.0000 0.74802  0.36181  0.88112  Biso   1.000  C
  H231     1.0000 0.75488  0.48761  0.86710  Biso   1.000  H
  H232     1.0000 0.82232  0.42509  0.85170  Biso   1.000  H
  H233     1.0000 0.29372  0.44642  0.79110  Biso   1.000  H
  H234     1.0000 0.19513  0.45590  0.80290  Biso   1.000  H
  C216     1.0000 0.29039  0.51259  0.82720  Biso   1.000  C
  H235     1.0000 0.17183  0.56062  0.84190  Biso   1.000  H
  H236     1.0000 0.25711  0.60238  0.85600  Biso   1.000  H
  C217     1.0000 0.05213  0.19951  0.94039  Biso   1.000  C
  C218     1.0000 0.02463  0.35298  0.94855  Biso   1.000  C
  C219     1.0000 0.77418  0.27413  0.87026  Biso   1.000  C
  C220     1.0000 0.80800  0.38513  0.90471  Biso   1.000  C
  C221     1.0000 0.28320  0.43163  0.84480  Biso   1.000  C
  C222     1.0000 0.38712  0.54070  0.82515  Biso   1.000  C
  H237     1.0000 0.09447  0.15218  0.94371  Biso   1.000  H
  C223     1.0000 0.08022  0.27682  0.95646  Biso   1.000  C
  H238     1.0000 0.99248  0.18062  0.94650  Biso   1.000  H
  H239     1.0000 0.04547  0.40428  0.95841  Biso   1.000  H
  H240     1.0000 0.96172  0.34260  0.95360  Biso   1.000  H
  O31      1.0000 0.77159  0.21091  0.89154  Biso   1.000  O
  H241     1.0000 0.73277  0.25722  0.85570  Biso   1.000  H
  H242     1.0000 0.83503  0.27688  0.86260  Biso   1.000  H
  O32      1.0000 0.81612  0.31698  0.92360  Biso   1.000  O
  H243     1.0000 0.86792  0.40012  0.89779  Biso   1.000  H
  H244     1.0000 0.78350  0.43611  0.91390  Biso   1.000  H
  O33      1.0000 0.33533  0.43829  0.86937  Biso   1.000  O
  H245     1.0000 0.22003  0.42189  0.84950  Biso   1.000  H
  H246     1.0000 0.30411  0.38148  0.83440  Biso   1.000  H
  O34      1.0000 0.42720  0.55012  0.85137  Biso   1.000  O
  H247     1.0000 0.42101  0.49792  0.81461  Biso   1.000  H
  H248     1.0000 0.39032  0.59611  0.81549  Biso   1.000  H
  C224     1.0000 0.06711  0.26087  0.98646  Biso   1.000  C
  C225     1.0000 0.17828  0.29751  0.95219  Biso   1.000  C
  B16      1.0000 0.79489  0.23641  0.91680  Biso   1.000  B
  B17      1.0000 0.40130  0.49773  0.87201  Biso   1.000  B
  O35      1.0000 0.12542  0.19388  0.99676  Biso   1.000  O
  H249     1.0000 0.07889  0.31467  0.99640  Biso   1.000  H
  H250     1.0000 0.00439  0.24448  0.98980  Biso   1.000  H
  O36      1.0000 0.23587  0.23179  0.96406  Biso   1.000  O
  H251     1.0000 0.19053  0.30161  0.93271  Biso   1.000  H
  H252     1.0000 0.19193  0.35368  0.96040  Biso   1.000  H
  C226     1.0000 0.79842  0.16787  0.94021  Biso   1.000  C
  C227     1.0000 0.44837  0.50727  0.90010  Biso   1.000  C
  B18      1.0000 0.20658  0.18427  0.98580  Biso   1.000  B
  C228     1.0000 0.81439  0.19362  0.96603  Biso   1.000  C
  C229     1.0000 0.78943  0.08000  0.93621  Biso   1.000  C
  C230     1.0000 0.50303  0.57497  0.90672  Biso   1.000  C
  C231     1.0000 0.43393  0.44642  0.92012  Biso   1.000  C
  C232     1.0000 0.27089  0.11439  0.99785  Biso   1.000  C
  H253     1.0000 0.82458  0.25280  0.96911  Biso   1.000  H
  C233     1.0000 0.81659  0.14008  0.98789  Biso   1.000  C
  C234     1.0000 0.79089  0.02351  0.95841  Biso   1.000  C
  H254     1.0000 0.78211  0.05803  0.91851  Biso   1.000  H
  H255     1.0000 0.51568  0.61647  0.89331  Biso   1.000  H
  C235     1.0000 0.53971  0.58541  0.93156  Biso   1.000  C
  C236     1.0000 0.47181  0.45641  0.94562  Biso   1.000  C
  H256     1.0000 0.39791  0.39768  0.91640  Biso   1.000  H
  C237     1.0000 0.35317  0.09569  0.98634  Biso   1.000  C
  C238     1.0000 0.24459  0.07058  0.02096  Biso   1.000  C
  C239     1.0000 0.80427  0.05662  0.98429  Biso   1.000  C
  H257     1.0000 0.82691  0.16243  0.00539  Biso   1.000  H
  H258     1.0000 0.78290  0.96381  0.95579  Biso   1.000  H
  H259     1.0000 0.57693  0.63319  0.93510  Biso   1.000  H
  C240     1.0000 0.52247  0.52572  0.95167  Biso   1.000  C
  H260     1.0000 0.46189  0.41382  0.95889  Biso   1.000  H
  H261     1.0000 0.37168  0.12573  0.97070  Biso   1.000  H
  C241     1.0000 0.40903  0.03318  0.99757  Biso   1.000  C
  C242     1.0000 0.29978  0.00717  0.03188  Biso   1.000  C
  H262     1.0000 0.18927  0.08371  0.02930  Biso   1.000  H
  C243     1.0000 0.80747  0.99520  0.00909  Biso   1.000  C
  C244     1.0000 0.55809  0.53827  0.98015  Biso   1.000  C
  H263     1.0000 0.46508  0.02107  0.98960  Biso   1.000  H
  C245     1.0000 0.38113  0.98821  0.02094  Biso   1.000  C
  H264     1.0000 0.28021  0.97662  0.04730  Biso   1.000  H
  N16      1.0000 0.80128  0.91898  0.00833  Biso   1.000  N
  H265     1.0000 0.81513  0.02082  0.02631  Biso   1.000  H
  N17      1.0000 0.60868  0.59758  0.98677  Biso   1.000  N
  H266     1.0000 0.54058  0.49849  0.99360  Biso   1.000  H
  C246     1.0000 0.43952  0.92429  0.03318  Biso   1.000  C
  C247     1.0000 0.80241  0.87542  0.03481  Biso   1.000  C
  C248     1.0000 0.63897  0.59668  0.01482  Biso   1.000  C
  N18      1.0000 0.42287  0.89041  0.05565  Biso   1.000  N
  H267     1.0000 0.49191  0.90758  0.02389  Biso   1.000  H
  H268     1.0000 0.80288  0.91853  0.04939  Biso   1.000  H
  H269     1.0000 0.85660  0.83981  0.03640  Biso   1.000  H
  C249     1.0000 0.71979  0.81919  0.03723  Biso   1.000  C
  H270     1.0000 0.69942  0.57157  0.01571  Biso   1.000  H
  H271     1.0000 0.59883  0.55992  0.02550  Biso   1.000  H
  C250     1.0000 0.64097  0.68770  0.02733  Biso   1.000  C
  C251     1.0000 0.48712  0.83091  0.06884  Biso   1.000  C
  C252     1.0000 0.64423  0.85019  0.05096  Biso   1.000  C
  C253     1.0000 0.71799  0.73650  0.02562  Biso   1.000  C
  C254     1.0000 0.56541  0.71767  0.04002  Biso   1.000  C
  H272     1.0000 0.45363  0.77967  0.07480  Biso   1.000  H
  H273     1.0000 0.51009  0.85948  0.08519  Biso   1.000  H
  C255     1.0000 0.56727  0.80010  0.05237  Biso   1.000  C
  C256     1.0000 0.64623  0.93999  0.06347  Biso   1.000  C
  C257     1.0000 0.80168  0.70320  0.01175  Biso   1.000  C
  C258     1.0000 0.48013  0.66310  0.04225  Biso   1.000  C
  H274     1.0000 0.58518  0.96388  0.06359  Biso   1.000  H
  H275     1.0000 0.68391  0.97790  0.05229  Biso   1.000  H
  C259     1.0000 0.68298  0.93851  0.09259  Biso   1.000  C
  H276     1.0000 0.78510  0.66118  0.99771  Biso   1.000  H
  H277     1.0000 0.83317  0.75130  0.00290  Biso   1.000  H
  C260     1.0000 0.86319  0.66092  0.03210  Biso   1.000  C
  H278     1.0000 0.42787  0.70172  0.04280  Biso   1.000  H
  H279     1.0000 0.47480  0.62711  0.02590  Biso   1.000  H
  C261     1.0000 0.47813  0.60501  0.06709  Biso   1.000  C
  H280     1.0000 0.64769  0.89880  0.10350  Biso   1.000  H
  H281     1.0000 0.67918  0.99622  0.10030  Biso   1.000  H
  H282     1.0000 0.74522  0.91981  0.09239  Biso   1.000  H
  H283     1.0000 0.87817  0.70211  0.04630  Biso   1.000  H
  H284     1.0000 0.91772  0.64203  0.02311  Biso   1.000  H
  H285     1.0000 0.83310  0.61141  0.04010  Biso   1.000  H
  H286     1.0000 0.52779  0.56440  0.06621  Biso   1.000  H
  H287     1.0000 0.42168  0.57337  0.06750  Biso   1.000  H
  H288     1.0000 0.48339  0.63998  0.08330  Biso   1.000  H
  C262     1.0000 0.85527  0.33299  0.33878  Biso   1.000  C
  C263     1.0000 0.84948  0.33017  0.30755  Biso   1.000  C
  H289     1.0000 0.80561  0.36668  0.34590  Biso   1.000  H
  H290     1.0000 0.91172  0.35932  0.34419  Biso   1.000  H
  H291     1.0000 0.85207  0.27451  0.34590  Biso   1.000  H
  C264     1.0000 0.76400  0.29488  0.29735  Biso   1.000  C
  H292     1.0000 0.85720  0.38897  0.30039  Biso   1.000  H
  H293     1.0000 0.89907  0.29482  0.30059  Biso   1.000  H
  C265     1.0000 0.68790  0.34689  0.29313  Biso   1.000  C
  C266     1.0000 0.75661  0.20483  0.29132  Biso   1.000  C
  C267     1.0000 0.61021  0.31211  0.28197  Biso   1.000  C
  C268     1.0000 0.69223  0.43938  0.30168  Biso   1.000  C
  C269     1.0000 0.67792  0.17120  0.27959  Biso   1.000  C
  C270     1.0000 0.83670  0.14642  0.29707  Biso   1.000  C
  C271     1.0000 0.60589  0.22590  0.27451  Biso   1.000  C
  C272     1.0000 0.52939  0.37001  0.27752  Biso   1.000  C
  N19      1.0000 0.70282  0.49971  0.27899  Biso   1.000  N
  H294     1.0000 0.63691  0.45379  0.31149  Biso   1.000  H
  H295     1.0000 0.74269  0.44681  0.31421  Biso   1.000  H
  C273     1.0000 0.67352  0.07590  0.27316  Biso   1.000  C
  N20      1.0000 0.90027  0.13258  0.27487  Biso   1.000  N
  H296     1.0000 0.86992  0.17082  0.31250  Biso   1.000  H
  H297     1.0000 0.81373  0.08980  0.30280  Biso   1.000  H
  C274     1.0000 0.52600  0.19029  0.25964  Biso   1.000  C
  H298     1.0000 0.47520  0.33581  0.28110  Biso   1.000  H
  H299     1.0000 0.53139  0.41619  0.29110  Biso   1.000  H
  C275     1.0000 0.51947  0.41011  0.25100  Biso   1.000  C
  C276     1.0000 0.68138  0.57567  0.28368  Biso   1.000  C
  H300     1.0000 0.73431  0.05393  0.26980  Biso   1.000  H
  H301     1.0000 0.63797  0.06712  0.25661  Biso   1.000  H
  C277     1.0000 0.63058  0.02543  0.29673  Biso   1.000  C
  C278     1.0000 0.88643  0.16992  0.25240  Biso   1.000  C
  N21      1.0000 0.53558  0.20688  0.23068  Biso   1.000  N
  H302     1.0000 0.52140  0.12791  0.26280  Biso   1.000  H
  H303     1.0000 0.47101  0.21783  0.26640  Biso   1.000  H
  H304     1.0000 0.57273  0.44399  0.24689  Biso   1.000  H
  H305     1.0000 0.46708  0.44751  0.25100  Biso   1.000  H
  H306     1.0000 0.51202  0.36553  0.23730  Biso   1.000  H
  H307     1.0000 0.65701  0.58900  0.30079  Biso   1.000  H
  C279     1.0000 0.69243  0.64709  0.26369  Biso   1.000  C
  H308     1.0000 0.66380  0.03670  0.31330  Biso   1.000  H
  H309     1.0000 0.56867  0.04362  0.29900  Biso   1.000  H
  H310     1.0000 0.63238  0.96388  0.29271  Biso   1.000  H
  H311     1.0000 0.83610  0.20649  0.25069  Biso   1.000  H
  C280     1.0000 0.94621  0.15820  0.22873  Biso   1.000  C
  C281     1.0000 0.52893  0.14411  0.21399  Biso   1.000  C
  C282     1.0000 0.70541  0.62928  0.23678  Biso   1.000  C
  C283     1.0000 0.68850  0.73131  0.27262  Biso   1.000  C
  C284     1.0000 0.92297  0.19272  0.20355  Biso   1.000  C
  C285     1.0000 0.02643  0.11042  0.23024  Biso   1.000  C
  H312     1.0000 0.52107  0.08781  0.22081  Biso   1.000  H
  C286     1.0000 0.53279  0.15647  0.18501  Biso   1.000  C
  H313     1.0000 0.70748  0.57170  0.23070  Biso   1.000  H
  C287     1.0000 0.71540  0.69730  0.21847  Biso   1.000  C
  C288     1.0000 0.69969  0.79901  0.25441  Biso   1.000  C
  H314     1.0000 0.67812  0.74297  0.29110  Biso   1.000  H
  C289     1.0000 0.97690  0.18017  0.18143  Biso   1.000  C
  H315     1.0000 0.86972  0.22500  0.20180  Biso   1.000  H
  H316     1.0000 0.04361  0.08640  0.24699  Biso   1.000  H
  C290     1.0000 0.07869  0.09800  0.20866  Biso   1.000  C
  C291     1.0000 0.52540  0.08890  0.16695  Biso   1.000  C
  C292     1.0000 0.54118  0.23967  0.17403  Biso   1.000  C
  H317     1.0000 0.72359  0.68539  0.19989  Biso   1.000  H
  C293     1.0000 0.71347  0.78249  0.22726  Biso   1.000  C
  H318     1.0000 0.69802  0.85640  0.26071  Biso   1.000  H
  H319     1.0000 0.95992  0.20489  0.16470  Biso   1.000  H
  C294     1.0000 0.05552  0.13258  0.18272  Biso   1.000  C
  H320     1.0000 0.13202  0.06591  0.21049  Biso   1.000  H
  H321     1.0000 0.51887  0.03228  0.17371  Biso   1.000  H
  C295     1.0000 0.52733  0.10120  0.13931  Biso   1.000  C
  C296     1.0000 0.54510  0.25280  0.14647  Biso   1.000  C
  H322     1.0000 0.54430  0.28752  0.18579  Biso   1.000  H
  B19      1.0000 0.72732  0.85890  0.20699  Biso   1.000  B
  B20      1.0000 0.11750  0.11811  0.15840  Biso   1.000  B
  H323     1.0000 0.52180  0.05348  0.12761  Biso   1.000  H
  C297     1.0000 0.53731  0.18369  0.12855  Biso   1.000  C
  H324     1.0000 0.55303  0.30910  0.13970  Biso   1.000  H
  O37      1.0000 0.73650  0.94031  0.21763  Biso   1.000  O
  O38      1.0000 0.72672  0.84302  0.17986  Biso   1.000  O
  O39      1.0000 0.09107  0.14597  0.13350  Biso   1.000  O
  O40      1.0000 0.19779  0.07942  0.16252  Biso   1.000  O
  B21      1.0000 0.53851  0.20009  0.09670  Biso   1.000  B
  C298     1.0000 0.75201  0.01351  0.20001  Biso   1.000  C
  C299     1.0000 0.73231  0.91667  0.16144  Biso   1.000  C
  C300     1.0000 0.14759  0.13463  0.11049  Biso   1.000  C
  C301     1.0000 0.26117  0.07001  0.14092  Biso   1.000  C
  O41      1.0000 0.54890  0.28252  0.08823  Biso   1.000  O
  O42      1.0000 0.53019  0.13117  0.08027  Biso   1.000  O
  C302     1.0000 0.79043  0.98738  0.17280  Biso   1.000  C
  H325     1.0000 0.79369  0.05361  0.20890  Biso   1.000  H
  H326     1.0000 0.69509  0.04413  0.19710  Biso   1.000  H
  H327     1.0000 0.67179  0.93941  0.15810  Biso   1.000  H
  H328     1.0000 0.75707  0.89759  0.14400  Biso   1.000  H
  H329     1.0000 0.13521  0.17998  0.09710  Biso   1.000  H
  H330     1.0000 0.13481  0.07852  0.10201  Biso   1.000  H
  C303     1.0000 0.24799  0.13822  0.11888  Biso   1.000  C
  H331     1.0000 0.25491  0.01243  0.13290  Biso   1.000  H
  H332     1.0000 0.32228  0.07487  0.14830  Biso   1.000  H
  C304     1.0000 0.55209  0.30052  0.05961  Biso   1.000  C
  C305     1.0000 0.52460  0.14699  0.05145  Biso   1.000  C
  C306     1.0000 0.88709  0.95933  0.17485  Biso   1.000  C
  C307     1.0000 0.78317  0.06840  0.15520  Biso   1.000  C
  C308     1.0000 0.27422  0.22590  0.12974  Biso   1.000  C
  C309     1.0000 0.30797  0.11490  0.09529  Biso   1.000  C
  H333     1.0000 0.59450  0.34779  0.05629  Biso   1.000  H
  H334     1.0000 0.49251  0.31941  0.05350  Biso   1.000  H
  C310     1.0000 0.58019  0.22321  0.04354  Biso   1.000  C
  H335     1.0000 0.46169  0.15737  0.04640  Biso   1.000  H
  H336     1.0000 0.54550  0.09569  0.04159  Biso   1.000  H
  O43      1.0000 0.92717  0.94991  0.14863  Biso   1.000  O
  H337     1.0000 0.89029  0.90393  0.18451  Biso   1.000  H
  H338     1.0000 0.92098  0.00211  0.18539  Biso   1.000  H
  O44      1.0000 0.83530  0.06168  0.13063  Biso   1.000  O
  H339     1.0000 0.71999  0.07808  0.15050  Biso   1.000  H
  H340     1.0000 0.80407  0.11849  0.16560  Biso   1.000  H
  O45      1.0000 0.27162  0.28912  0.10846  Biso   1.000  O
  H341     1.0000 0.23281  0.24281  0.14430  Biso   1.000  H
  H342     1.0000 0.33500  0.22308  0.13740  Biso   1.000  H
  O46      1.0000 0.31609  0.18299  0.07640  Biso   1.000  O
  H343     1.0000 0.36788  0.09992  0.10221  Biso   1.000  H
  H344     1.0000 0.28347  0.06392  0.08610  Biso   1.000  H
  C311     1.0000 0.56707  0.23910  0.01354  Biso   1.000  C
  C312     1.0000 0.67832  0.20252  0.04781  Biso   1.000  C
  B22      1.0000 0.90127  0.00231  0.12799  Biso   1.000  B
  B23      1.0000 0.29492  0.26363  0.08320  Biso   1.000  B
  O47      1.0000 0.62539  0.30609  0.00324  Biso   1.000  O
  H345     1.0000 0.57892  0.18529  0.00360  Biso   1.000  H
  H346     1.0000 0.50443  0.25549  0.01020  Biso   1.000  H
  O48      1.0000 0.73590  0.26817  0.03594  Biso   1.000  O
  H347     1.0000 0.69050  0.19842  0.06729  Biso   1.000  H
  H348     1.0000 0.69190  0.14629  0.03960  Biso   1.000  H
  C313     1.0000 0.94841  0.99270  0.09990  Biso   1.000  C
  C314     1.0000 0.29838  0.33210  0.05979  Biso   1.000  C
  B24      1.0000 0.70661  0.31570  0.01420  Biso   1.000  B
  C315     1.0000 0.93389  0.05361  0.07988  Biso   1.000  C
  C316     1.0000 0.00300  0.92500  0.09328  Biso   1.000  C
  C317     1.0000 0.31443  0.30641  0.03397  Biso   1.000  C
  C318     1.0000 0.28939  0.41997  0.06379  Biso   1.000  C
  C319     1.0000 0.77092  0.38558  0.00215  Biso   1.000  C
  C320     1.0000 0.97177  0.04362  0.05438  Biso   1.000  C
  H349     1.0000 0.89788  0.10229  0.08360  Biso   1.000  H
  H350     1.0000 0.01571  0.88349  0.10669  Biso   1.000  H
  C321     1.0000 0.03968  0.91462  0.06844  Biso   1.000  C
  H351     1.0000 0.32461  0.24723  0.03089  Biso   1.000  H
  C322     1.0000 0.31662  0.35989  0.01211  Biso   1.000  C
  C323     1.0000 0.29093  0.47653  0.04159  Biso   1.000  C
  H352     1.0000 0.28207  0.44200  0.08149  Biso   1.000  H
  C324     1.0000 0.85321  0.40428  0.01366  Biso   1.000  C
  C325     1.0000 0.74462  0.42939  0.97904  Biso   1.000  C
  H353     1.0000 0.96192  0.08621  0.04111  Biso   1.000  H
  C326     1.0000 0.02250  0.97432  0.04833  Biso   1.000  C
  H354     1.0000 0.07689  0.86678  0.06490  Biso   1.000  H
  H355     1.0000 0.32688  0.33760  0.99461  Biso   1.000  H
  C327     1.0000 0.30431  0.44341  0.01571  Biso   1.000  C
  H356     1.0000 0.28287  0.53622  0.04421  Biso   1.000  H
  H357     1.0000 0.87171  0.37430  0.02930  Biso   1.000  H
  C328     1.0000 0.90899  0.46679  0.00243  Biso   1.000  C
  C329     1.0000 0.79981  0.49279  0.96812  Biso   1.000  C
  H358     1.0000 0.68930  0.41632  0.97070  Biso   1.000  H
  C330     1.0000 0.05812  0.96170  0.01985  Biso   1.000  C
  C331     1.0000 0.30750  0.50477  0.99091  Biso   1.000  C
  H359     1.0000 0.96512  0.47890  0.01040  Biso   1.000  H
  C332     1.0000 0.88110  0.51182  0.97906  Biso   1.000  C
  H360     1.0000 0.78017  0.52341  0.95270  Biso   1.000  H
  N22      1.0000 0.10871  0.90239  0.01323  Biso   1.000  N
  H361     1.0000 0.04061  0.00147  0.00640  Biso   1.000  H
  N23      1.0000 0.30131  0.58099  0.99167  Biso   1.000  N
  H362     1.0000 0.31509  0.47922  0.97369  Biso   1.000  H
  C333     1.0000 0.93948  0.57567  0.96682  Biso   1.000  C
  C334     1.0000 0.13901  0.90329  0.98518  Biso   1.000  C
  C335     1.0000 0.30238  0.62461  0.96519  Biso   1.000  C
  N24      1.0000 0.92291  0.60962  0.94435  Biso   1.000  N
  H363     1.0000 0.99188  0.59239  0.97611  Biso   1.000  H
  C336     1.0000 0.14100  0.81227  0.97267  Biso   1.000  C
  H364     1.0000 0.19939  0.92839  0.98429  Biso   1.000  H
  H365     1.0000 0.09880  0.94011  0.97450  Biso   1.000  H
  C337     1.0000 0.21983  0.68078  0.96277  Biso   1.000  C
  H366     1.0000 0.30291  0.58150  0.95061  Biso   1.000  H
  H367     1.0000 0.35657  0.66022  0.96360  Biso   1.000  H
  C338     1.0000 0.98708  0.66912  0.93116  Biso   1.000  C
  C339     1.0000 0.06538  0.78230  0.95998  Biso   1.000  C
  C340     1.0000 0.21803  0.76353  0.97438  Biso   1.000  C
  C341     1.0000 0.14420  0.64978  0.94904  Biso   1.000  C
  H368     1.0000 0.95360  0.72030  0.92520  Biso   1.000  H
  H369     1.0000 0.01012  0.64049  0.91481  Biso   1.000  H
  C342     1.0000 0.06731  0.69993  0.94763  Biso   1.000  C
  C343     1.0000 0.98009  0.83693  0.95775  Biso   1.000  C
  C344     1.0000 0.30171  0.79677  0.98825  Biso   1.000  C
  C345     1.0000 0.14620  0.55998  0.93653  Biso   1.000  C
  H370     1.0000 0.92790  0.79831  0.95720  Biso   1.000  H
  H371     1.0000 0.97477  0.87293  0.97410  Biso   1.000  H
  C346     1.0000 0.97810  0.89502  0.93291  Biso   1.000  C
  H372     1.0000 0.33320  0.74867  0.99710  Biso   1.000  H
  C347     1.0000 0.36322  0.83911  0.96790  Biso   1.000  C
  H373     1.0000 0.28507  0.83879  0.00229  Biso   1.000  H
  H374     1.0000 0.08521  0.53609  0.93641  Biso   1.000  H
  H375     1.0000 0.18388  0.52213  0.94771  Biso   1.000  H
  C348     1.0000 0.18301  0.56152  0.90741  Biso   1.000  C
  H376     1.0000 0.92171  0.92660  0.93250  Biso   1.000  H
  H377     1.0000 0.98342  0.85999  0.91670  Biso   1.000  H
  H378     1.0000 0.02783  0.93563  0.93379  Biso   1.000  H
  H379     1.0000 0.37820  0.79792  0.95370  Biso   1.000  H
  H380     1.0000 0.41768  0.85800  0.97689  Biso   1.000  H
  H381     1.0000 0.33307  0.88862  0.95990  Biso   1.000  H
  H382     1.0000 0.14773  0.60123  0.89650  Biso   1.000  H
  H383     1.0000 0.17922  0.50381  0.89970  Biso   1.000  H
  H384     1.0000 0.24519  0.58022  0.90761  Biso   1.000  H
  Ne1      1.0000 0.89500  0.47650  0.11802  Biso   1.000  Ne
  He1      1.0000 0.99282  0.54640  0.13989  Biso   1.000  He
  He2      1.0000 0.67204  0.66366  0.07546  Biso   1.000  He
  He3      1.0000 0.05428  0.24650  0.03601  Biso   1.000  He
  Ar1      1.0000 0.95559  0.53972  0.12516  Biso   1.000  Ar
  Ne2      1.0000 0.10500  0.97650  0.38198  Biso   1.000  Ne
  He4      1.0000 0.22688  0.09607  0.39483  Biso   1.000  He
  He5      1.0000 0.94589  0.74523  0.46417  Biso   1.000  He
  He6      1.0000 0.99373  0.05085  0.35522  Biso   1.000  He
  Ar2      1.0000 0.04330  0.03813  0.37407  Biso   1.000  Ar
  Ne3      1.0000 0.60500  0.52350  0.61802  Biso   1.000  Ne
  He7      1.0000 0.48825  0.44736  0.64676  Biso   1.000  He
  He8      1.0000 0.73008  0.40405  0.60498  Biso   1.000  He
  He9      1.0000 0.60444  0.78171  0.59206  Biso   1.000  He
  Ar3      1.0000 0.54524  0.46165  0.62606  Biso   1.000  Ar
  Ne4      1.0000 0.39500  0.02350  0.88198  Biso   1.000  Ne
  He10     1.0000 0.16950  0.83402  0.92553  Biso   1.000  He
  He11     1.0000 0.57168  0.29230  0.05868  Biso   1.000  He
  He12     1.0000 0.50930  0.94814  0.85414  Biso   1.000  He
  Ar4      1.0000 0.45482  0.96162  0.87395  Biso   1.000  Ar
