data_image0
_cell_length_a       28.32
_cell_length_b       10.976
_cell_length_c       36.46
_cell_angle_alpha    90
_cell_angle_beta     93.27
_cell_angle_gamma    90

_symmetry_space_group_name_H-M    "P 1"
_symmetry_int_tables_number       1

loop_
  _symmetry_equiv_pos_as_xyz
  'x, y, z'

loop_
  _atom_site_label
  _atom_site_occupancy
  _atom_site_fract_x
  _atom_site_fract_y
  _atom_site_fract_z
  _atom_site_thermal_displace_type
  _atom_site_B_iso_or_equiv
  _atom_site_type_symbol
  N1       1.0000 0.41976  0.51294  0.50760  Biso   1.000  N
  C1       1.0000 0.43866  0.44069  0.53169  Biso   1.000  C
  C2       1.0000 0.44047  0.63110  0.50109  Biso   1.000  C
  C3       1.0000 0.42127  0.32088  0.54021  Biso   1.000  C
  H1       1.0000 0.46648  0.46811  0.54510  Biso   1.000  H
  H2       1.0000 0.46887  0.64204  0.51801  Biso   1.000  H
  H3       1.0000 0.45064  0.63457  0.47560  Biso   1.000  H
  C4       1.0000 0.40626  0.73278  0.50691  Biso   1.000  C
  C5       1.0000 0.37777  0.27970  0.52389  Biso   1.000  C
  C6       1.0000 0.44667  0.23934  0.56430  Biso   1.000  C
  N2       1.0000 0.39687  0.74353  0.54639  Biso   1.000  N
  H4       1.0000 0.37624  0.71693  0.49249  Biso   1.000  H
  H5       1.0000 0.41946  0.81040  0.49821  Biso   1.000  H
  C7       1.0000 0.35925  0.16828  0.53029  Biso   1.000  C
  H6       1.0000 0.36057  0.33291  0.50749  Biso   1.000  H
  C8       1.0000 0.42946  0.12218  0.57090  Biso   1.000  C
  H7       1.0000 0.47578  0.26458  0.57612  Biso   1.000  H
  C9       1.0000 0.35476  0.75374  0.55389  Biso   1.000  C
  C10      1.0000 0.31387  0.12764  0.51150  Biso   1.000  C
  C11      1.0000 0.38547  0.08856  0.55370  Biso   1.000  C
  C12      1.0000 0.45748  0.03808  0.59521  Biso   1.000  C
  C13      1.0000 0.33995  0.75920  0.59309  Biso   1.000  C
  H8       1.0000 0.33116  0.75811  0.53441  Biso   1.000  H
  N3       1.0000 0.29905  0.01840  0.51161  Biso   1.000  N
  H9       1.0000 0.29484  0.18677  0.49859  Biso   1.000  H
  H10      1.0000 0.37315  0.00957  0.55801  Biso   1.000  H
  N4       1.0000 0.49797  0.05986  0.60949  Biso   1.000  N
  H11      1.0000 0.44367  0.96137  0.60040  Biso   1.000  H
  C14      1.0000 0.29316  0.76266  0.60112  Biso   1.000  C
  C15      1.0000 0.37468  0.75938  0.62221  Biso   1.000  C
  C16      1.0000 0.25387  0.99909  0.49120  Biso   1.000  C
  C17      1.0000 0.51926  0.95736  0.63150  Biso   1.000  C
  H12      1.0000 0.26978  0.76230  0.58139  Biso   1.000  H
  C18      1.0000 0.27858  0.76685  0.63680  Biso   1.000  C
  C19      1.0000 0.36169  0.76522  0.65831  Biso   1.000  C
  H13      1.0000 0.40718  0.75547  0.61710  Biso   1.000  H
  H14      1.0000 0.24475  0.07434  0.47760  Biso   1.000  H
  H15      1.0000 0.25737  0.93313  0.47301  Biso   1.000  H
  C20      1.0000 0.21534  0.96556  0.51620  Biso   1.000  C
  C21      1.0000 0.53346  0.00784  0.67010  Biso   1.000  C
  H16      1.0000 0.49616  0.89040  0.63331  Biso   1.000  H
  H17      1.0000 0.54746  0.92556  0.61980  Biso   1.000  H
  C22      1.0000 0.31308  0.77223  0.66620  Biso   1.000  C
  C23      1.0000 0.22836  0.76922  0.64581  Biso   1.000  C
  C24      1.0000 0.40037  0.76522  0.68831  Biso   1.000  C
  N5       1.0000 0.20547  0.06970  0.53999  Biso   1.000  N
  H18      1.0000 0.22547  0.89468  0.53150  Biso   1.000  H
  H19      1.0000 0.18636  0.94269  0.50139  Biso   1.000  H
  N6       1.0000 0.49147  0.03544  0.69120  Biso   1.000  N
  H20      1.0000 0.55239  0.08300  0.66771  Biso   1.000  H
  H21      1.0000 0.55357  0.94734  0.68381  Biso   1.000  H
  H22      1.0000 0.30409  0.78034  0.69081  Biso   1.000  H
  N7       1.0000 0.19698  0.77132  0.61960  Biso   1.000  N
  H23      1.0000 0.21977  0.76913  0.67070  Biso   1.000  H
  N8       1.0000 0.39130  0.77651  0.72199  Biso   1.000  N
  H24      1.0000 0.43239  0.75674  0.68199  Biso   1.000  H
  C25      1.0000 0.20868  0.04938  0.57499  Biso   1.000  C
  C26      1.0000 0.48717  0.14769  0.69892  Biso   1.000  C
  C27      1.0000 0.14698  0.76859  0.62911  Biso   1.000  C
  C28      1.0000 0.43428  0.77387  0.74850  Biso   1.000  C
  C29      1.0000 0.19878  0.14532  0.60180  Biso   1.000  C
  H25      1.0000 0.21775  0.97066  0.58362  Biso   1.000  H
  C30      1.0000 0.44577  0.18786  0.72142  Biso   1.000  C
  H26      1.0000 0.50928  0.20572  0.69081  Biso   1.000  H
  C31      1.0000 0.12246  0.66163  0.60971  Biso   1.000  C
  H27      1.0000 0.14507  0.76020  0.65601  Biso   1.000  H
  H28      1.0000 0.13108  0.84557  0.62131  Biso   1.000  H
  C32      1.0000 0.43189  0.67474  0.77521  Biso   1.000  C
  H29      1.0000 0.43687  0.85259  0.76172  Biso   1.000  H
  H30      1.0000 0.46298  0.76376  0.73449  Biso   1.000  H
  C33      1.0000 0.18257  0.26057  0.59211  Biso   1.000  C
  C34      1.0000 0.20177  0.11461  0.63960  Biso   1.000  C
  C35      1.0000 0.41068  0.10514  0.72919  Biso   1.000  C
  C36      1.0000 0.44459  0.30658  0.73320  Biso   1.000  C
  N9       1.0000 0.13746  0.54647  0.62650  Biso   1.000  N
  H31      1.0000 0.12996  0.66153  0.58351  Biso   1.000  H
  H32      1.0000 0.08776  0.67037  0.61090  Biso   1.000  H
  N10      1.0000 0.43670  0.55548  0.75941  Biso   1.000  N
  H33      1.0000 0.40118  0.67921  0.78691  Biso   1.000  H
  H34      1.0000 0.45730  0.68632  0.79471  Biso   1.000  H
  C37      1.0000 0.17097  0.34767  0.61639  Biso   1.000  C
  H35      1.0000 0.17936  0.28007  0.56669  Biso   1.000  H
  C38      1.0000 0.19147  0.20517  0.66570  Biso   1.000  C
  H36      1.0000 0.21056  0.03471  0.64730  Biso   1.000  H
  C39      1.0000 0.37148  0.14969  0.74881  Biso   1.000  C
  H37      1.0000 0.41248  0.02223  0.72191  Biso   1.000  H
  H38      1.0000 0.46907  0.36051  0.72699  Biso   1.000  H
  C40      1.0000 0.40760  0.35131  0.75449  Biso   1.000  C
  C41      1.0000 0.15538  0.46911  0.60601  Biso   1.000  C
  C42      1.0000 0.40788  0.47440  0.76751  Biso   1.000  C
  C43      1.0000 0.17488  0.31587  0.65471  Biso   1.000  C
  C44      1.0000 0.19569  0.16828  0.70589  Biso   1.000  C
  C45      1.0000 0.37229  0.26640  0.76131  Biso   1.000  C
  C46      1.0000 0.33267  0.06077  0.75411  Biso   1.000  C
  H39      1.0000 0.15918  0.49271  0.58131  Biso   1.000  H
  H40      1.0000 0.38418  0.49663  0.78370  Biso   1.000  H
  H41      1.0000 0.16577  0.37318  0.67252  Biso   1.000  H
  N11      1.0000 0.20890  0.06232  0.71642  Biso   1.000  N
  H42      1.0000 0.18819  0.22659  0.72392  Biso   1.000  H
  H43      1.0000 0.34718  0.29218  0.77559  Biso   1.000  H
  N12      1.0000 0.29489  0.09612  0.76949  Biso   1.000  N
  H44      1.0000 0.33567  0.97868  0.74631  Biso   1.000  H
  C47      1.0000 0.20919  0.04419  0.75699  Biso   1.000  C
  C48      1.0000 0.25858  0.99727  0.77131  Biso   1.000  C
  H45      1.0000 0.20210  0.12208  0.76911  Biso   1.000  H
  H46      1.0000 0.18459  0.98433  0.76282  Biso   1.000  H
  H47      1.0000 0.26789  0.92720  0.75620  Biso   1.000  H
  H48      1.0000 0.25697  0.96911  0.79699  Biso   1.000  H
  C49      1.0000 0.56144  0.55931  0.46832  Biso   1.000  C
  N13      1.0000 0.58037  0.48706  0.49241  Biso   1.000  N
  C50      1.0000 0.57886  0.67912  0.45980  Biso   1.000  C
  H49      1.0000 0.53365  0.53189  0.45491  Biso   1.000  H
  C51      1.0000 0.55966  0.36890  0.49889  Biso   1.000  C
  C52      1.0000 0.55347  0.76066  0.43571  Biso   1.000  C
  C53      1.0000 0.62236  0.72030  0.47609  Biso   1.000  C
  C54      1.0000 0.59384  0.26722  0.49310  Biso   1.000  C
  H50      1.0000 0.53126  0.35796  0.48200  Biso   1.000  H
  H51      1.0000 0.54946  0.36543  0.52441  Biso   1.000  H
  C55      1.0000 0.57064  0.87782  0.42911  Biso   1.000  C
  H52      1.0000 0.52435  0.73542  0.42389  Biso   1.000  H
  C56      1.0000 0.64085  0.83172  0.46969  Biso   1.000  C
  H53      1.0000 0.63956  0.66709  0.49249  Biso   1.000  H
  N14      1.0000 0.60326  0.25647  0.45359  Biso   1.000  N
  H54      1.0000 0.62385  0.28307  0.50749  Biso   1.000  H
  H55      1.0000 0.58067  0.18960  0.50180  Biso   1.000  H
  C57      1.0000 0.54265  0.96192  0.40480  Biso   1.000  C
  C58      1.0000 0.61466  0.91144  0.44631  Biso   1.000  C
  C59      1.0000 0.68626  0.87236  0.48851  Biso   1.000  C
  C60      1.0000 0.64537  0.24626  0.44609  Biso   1.000  C
  N15      1.0000 0.50216  0.94014  0.39052  Biso   1.000  N
  H56      1.0000 0.55643  0.03863  0.39961  Biso   1.000  H
  H57      1.0000 0.62695  0.99043  0.44200  Biso   1.000  H
  N16      1.0000 0.70105  0.98160  0.48840  Biso   1.000  N
  H58      1.0000 0.70525  0.81323  0.50139  Biso   1.000  H
  C61      1.0000 0.66014  0.24080  0.40689  Biso   1.000  C
  H59      1.0000 0.66894  0.24189  0.46560  Biso   1.000  H
  C62      1.0000 0.48084  0.04264  0.36851  Biso   1.000  C
  C63      1.0000 0.74626  0.00091  0.50881  Biso   1.000  C
  C64      1.0000 0.62545  0.24062  0.37780  Biso   1.000  C
  C65      1.0000 0.70694  0.23734  0.39889  Biso   1.000  C
  C66      1.0000 0.46664  0.99216  0.32991  Biso   1.000  C
  H60      1.0000 0.50394  0.10960  0.36670  Biso   1.000  H
  H61      1.0000 0.45264  0.07444  0.38021  Biso   1.000  H
  C67      1.0000 0.78475  0.03444  0.48381  Biso   1.000  C
  H62      1.0000 0.75535  0.92566  0.52241  Biso   1.000  H
  H63      1.0000 0.74276  0.06687  0.52700  Biso   1.000  H
  C68      1.0000 0.63844  0.23478  0.34170  Biso   1.000  C
  H64      1.0000 0.59295  0.24453  0.38291  Biso   1.000  H
  C69      1.0000 0.72155  0.23315  0.36321  Biso   1.000  C
  H65      1.0000 0.73035  0.23770  0.41859  Biso   1.000  H
  N17      1.0000 0.50862  0.96456  0.30881  Biso   1.000  N
  H66      1.0000 0.44774  0.91700  0.33230  Biso   1.000  H
  H67      1.0000 0.44653  0.05266  0.31620  Biso   1.000  H
  N18      1.0000 0.79466  0.93030  0.45999  Biso   1.000  N
  H68      1.0000 0.77466  0.10532  0.46851  Biso   1.000  H
  H69      1.0000 0.81377  0.05731  0.49859  Biso   1.000  H
  C70      1.0000 0.59973  0.23478  0.31170  Biso   1.000  C
  C71      1.0000 0.68705  0.22777  0.33381  Biso   1.000  C
  C72      1.0000 0.77174  0.23078  0.35420  Biso   1.000  C
  C73      1.0000 0.51293  0.85231  0.30109  Biso   1.000  C
  C74      1.0000 0.79145  0.95062  0.42499  Biso   1.000  C
  N19      1.0000 0.60883  0.22349  0.27799  Biso   1.000  N
  H70      1.0000 0.56774  0.24326  0.31799  Biso   1.000  H
  H71      1.0000 0.69605  0.21966  0.30920  Biso   1.000  H
  N20      1.0000 0.80315  0.22868  0.38041  Biso   1.000  N
  H72      1.0000 0.78033  0.23087  0.32931  Biso   1.000  H
  C75      1.0000 0.55432  0.81214  0.27859  Biso   1.000  C
  H73      1.0000 0.49082  0.79428  0.30920  Biso   1.000  H
  C76      1.0000 0.80135  0.85468  0.39821  Biso   1.000  C
  H74      1.0000 0.78234  0.02934  0.41639  Biso   1.000  H
  C77      1.0000 0.56582  0.22613  0.25151  Biso   1.000  C
  C78      1.0000 0.85316  0.23141  0.37090  Biso   1.000  C
  C79      1.0000 0.55554  0.69342  0.26681  Biso   1.000  C
  C80      1.0000 0.58941  0.89486  0.27079  Biso   1.000  C
  C81      1.0000 0.81756  0.73943  0.40790  Biso   1.000  C
  C82      1.0000 0.79832  0.88539  0.36041  Biso   1.000  C
  H75      1.0000 0.56323  0.14741  0.23829  Biso   1.000  H
  H76      1.0000 0.53712  0.23624  0.26549  Biso   1.000  H
  C83      1.0000 0.56824  0.32526  0.22480  Biso   1.000  C
  H77      1.0000 0.85503  0.23980  0.34400  Biso   1.000  H
  H78      1.0000 0.86905  0.15443  0.37870  Biso   1.000  H
  C84      1.0000 0.87764  0.33837  0.39030  Biso   1.000  C
  C85      1.0000 0.59253  0.64869  0.24549  Biso   1.000  C
  H79      1.0000 0.53103  0.63949  0.27299  Biso   1.000  H
  C86      1.0000 0.62862  0.85031  0.25120  Biso   1.000  C
  H80      1.0000 0.58762  0.97777  0.27810  Biso   1.000  H
  C87      1.0000 0.82916  0.65233  0.38359  Biso   1.000  C
  H81      1.0000 0.82073  0.71993  0.43329  Biso   1.000  H
  C88      1.0000 0.80863  0.79483  0.33431  Biso   1.000  C
  H82      1.0000 0.78953  0.96529  0.35271  Biso   1.000  H
  N21      1.0000 0.56343  0.44452  0.24060  Biso   1.000  N
  H83      1.0000 0.59891  0.32079  0.21310  Biso   1.000  H
  H84      1.0000 0.54283  0.31368  0.20530  Biso   1.000  H
  N22      1.0000 0.86263  0.45353  0.37351  Biso   1.000  N
  H85      1.0000 0.87013  0.33847  0.41650  Biso   1.000  H
  H86      1.0000 0.91233  0.32963  0.38911  Biso   1.000  H
  C89      1.0000 0.59221  0.52560  0.23250  Biso   1.000  C
  C90      1.0000 0.62784  0.73360  0.23870  Biso   1.000  C
  C91      1.0000 0.66742  0.93923  0.24590  Biso   1.000  C
  C92      1.0000 0.84475  0.53089  0.39400  Biso   1.000  C
  C93      1.0000 0.82525  0.68413  0.34530  Biso   1.000  C
  C94      1.0000 0.80444  0.83172  0.29409  Biso   1.000  C
  H87      1.0000 0.61592  0.50337  0.21629  Biso   1.000  H
  H88      1.0000 0.65292  0.70782  0.22439  Biso   1.000  H
  N23      1.0000 0.70524  0.90388  0.23049  Biso   1.000  N
  H89      1.0000 0.66443  0.02132  0.25370  Biso   1.000  H
  H90      1.0000 0.84095  0.50729  0.41870  Biso   1.000  H
  H91      1.0000 0.83433  0.62682  0.32749  Biso   1.000  H
  N24      1.0000 0.79124  0.93768  0.28359  Biso   1.000  N
  H92      1.0000 0.81194  0.77341  0.27609  Biso   1.000  H
  C95      1.0000 0.74151  0.00273  0.22870  Biso   1.000  C
  C96      1.0000 0.79094  0.95581  0.24299  Biso   1.000  C
  H93      1.0000 0.73224  0.07280  0.24381  Biso   1.000  H
  H94      1.0000 0.74312  0.03089  0.20299  Biso   1.000  H
  H95      1.0000 0.79803  0.87792  0.23090  Biso   1.000  H
  H96      1.0000 0.81551  0.01567  0.23719  Biso   1.000  H
  N25      1.0000 0.29466  0.43030  0.45999  Biso   1.000  N
  C97      1.0000 0.29145  0.45062  0.42499  Biso   1.000  C
  C98      1.0000 0.28475  0.53444  0.48381  Biso   1.000  C
  C99      1.0000 0.30135  0.35468  0.39821  Biso   1.000  C
  H97      1.0000 0.28234  0.52934  0.41639  Biso   1.000  H
  C100     1.0000 0.24626  0.50091  0.50881  Biso   1.000  C
  H98      1.0000 0.27466  0.60532  0.46851  Biso   1.000  H
  H99      1.0000 0.31377  0.55731  0.49859  Biso   1.000  H
  C101     1.0000 0.29832  0.38539  0.36041  Biso   1.000  C
  C102     1.0000 0.31756  0.23943  0.40790  Biso   1.000  C
  N26      1.0000 0.20105  0.48160  0.48840  Biso   1.000  N
  H100     1.0000 0.25535  0.42566  0.52241  Biso   1.000  H
  H101     1.0000 0.24276  0.56687  0.52700  Biso   1.000  H
  C103     1.0000 0.30863  0.29483  0.33431  Biso   1.000  C
  H102     1.0000 0.28953  0.46529  0.35271  Biso   1.000  H
  C104     1.0000 0.32916  0.15233  0.38359  Biso   1.000  C
  H103     1.0000 0.32073  0.21993  0.43329  Biso   1.000  H
  C105     1.0000 0.18626  0.37236  0.48851  Biso   1.000  C
  C106     1.0000 0.30444  0.33172  0.29409  Biso   1.000  C
  C107     1.0000 0.32525  0.18413  0.34530  Biso   1.000  C
  C108     1.0000 0.34475  0.03089  0.39400  Biso   1.000  C
  C109     1.0000 0.14085  0.33172  0.46969  Biso   1.000  C
  H104     1.0000 0.20525  0.31323  0.50139  Biso   1.000  H
  N27      1.0000 0.29124  0.43768  0.28359  Biso   1.000  N
  H105     1.0000 0.31194  0.27341  0.27609  Biso   1.000  H
  H106     1.0000 0.33433  0.12682  0.32749  Biso   1.000  H
  H107     1.0000 0.34095  0.00729  0.41870  Biso   1.000  H
  N28      1.0000 0.36263  0.95353  0.37351  Biso   1.000  N
  C110     1.0000 0.11466  0.41144  0.44631  Biso   1.000  C
  C111     1.0000 0.12236  0.22030  0.47609  Biso   1.000  C
  C112     1.0000 0.29094  0.45581  0.24299  Biso   1.000  C
  C113     1.0000 0.37764  0.83837  0.39030  Biso   1.000  C
  C114     1.0000 0.07064  0.37782  0.42911  Biso   1.000  C
  H108     1.0000 0.12695  0.49043  0.44200  Biso   1.000  H
  C115     1.0000 0.07886  0.17912  0.45980  Biso   1.000  C
  H109     1.0000 0.13956  0.16709  0.49249  Biso   1.000  H
  C116     1.0000 0.24151  0.50273  0.22870  Biso   1.000  C
  H110     1.0000 0.29803  0.37792  0.23090  Biso   1.000  H
  H111     1.0000 0.31551  0.51567  0.23719  Biso   1.000  H
  C117     1.0000 0.35316  0.73141  0.37090  Biso   1.000  C
  H112     1.0000 0.37013  0.83847  0.41650  Biso   1.000  H
  H113     1.0000 0.41233  0.82963  0.38911  Biso   1.000  H
  C118     1.0000 0.05347  0.26066  0.43571  Biso   1.000  C
  C119     1.0000 0.04265  0.46192  0.40480  Biso   1.000  C
  C120     1.0000 0.06144  0.05931  0.46832  Biso   1.000  C
  N29      1.0000 0.20524  0.40388  0.23049  Biso   1.000  N
  H114     1.0000 0.23224  0.57280  0.24381  Biso   1.000  H
  H115     1.0000 0.24312  0.53089  0.20299  Biso   1.000  H
  N30      1.0000 0.30315  0.72868  0.38041  Biso   1.000  N
  H116     1.0000 0.35503  0.73980  0.34400  Biso   1.000  H
  H117     1.0000 0.36905  0.65443  0.37870  Biso   1.000  H
  H118     1.0000 0.02435  0.23542  0.42389  Biso   1.000  H
  N31      1.0000 0.00216  0.44014  0.39052  Biso   1.000  N
  H119     1.0000 0.05643  0.53863  0.39961  Biso   1.000  H
  H120     1.0000 0.03365  0.03189  0.45491  Biso   1.000  H
  N32      1.0000 0.08037  0.98706  0.49241  Biso   1.000  N
  C121     1.0000 0.16742  0.43923  0.24590  Biso   1.000  C
  C122     1.0000 0.27174  0.73078  0.35420  Biso   1.000  C
  C123     1.0000 0.98084  0.54264  0.36851  Biso   1.000  C
  C124     1.0000 0.05966  0.86890  0.49889  Biso   1.000  C
  C125     1.0000 0.12862  0.35031  0.25120  Biso   1.000  C
  H121     1.0000 0.16443  0.52132  0.25370  Biso   1.000  H
  C126     1.0000 0.22155  0.73315  0.36321  Biso   1.000  C
  H122     1.0000 0.28033  0.73087  0.32931  Biso   1.000  H
  C127     1.0000 0.96664  0.49216  0.32991  Biso   1.000  C
  H123     1.0000 0.00394  0.60960  0.36670  Biso   1.000  H
  H124     1.0000 0.95264  0.57444  0.38021  Biso   1.000  H
  C128     1.0000 0.09384  0.76722  0.49310  Biso   1.000  C
  H125     1.0000 0.03126  0.85796  0.48200  Biso   1.000  H
  H126     1.0000 0.04946  0.86543  0.52441  Biso   1.000  H
  C129     1.0000 0.08941  0.39486  0.27079  Biso   1.000  C
  C130     1.0000 0.12784  0.23360  0.23870  Biso   1.000  C
  C131     1.0000 0.20694  0.73734  0.39889  Biso   1.000  C
  C132     1.0000 0.18705  0.72777  0.33381  Biso   1.000  C
  N33      1.0000 0.00862  0.46456  0.30881  Biso   1.000  N
  H127     1.0000 0.94774  0.41700  0.33230  Biso   1.000  H
  H128     1.0000 0.94653  0.55266  0.31620  Biso   1.000  H
  N34      1.0000 0.10326  0.75647  0.45359  Biso   1.000  N
  H129     1.0000 0.12385  0.78307  0.50749  Biso   1.000  H
  H130     1.0000 0.08067  0.68960  0.50180  Biso   1.000  H
  H131     1.0000 0.08762  0.47777  0.27810  Biso   1.000  H
  C133     1.0000 0.05432  0.31214  0.27859  Biso   1.000  C
  C134     1.0000 0.09253  0.14869  0.24549  Biso   1.000  C
  H132     1.0000 0.15292  0.20782  0.22439  Biso   1.000  H
  C135     1.0000 0.16014  0.74080  0.40689  Biso   1.000  C
  H133     1.0000 0.23035  0.73770  0.41859  Biso   1.000  H
  H134     1.0000 0.19605  0.71966  0.30920  Biso   1.000  H
  C136     1.0000 0.13844  0.73478  0.34170  Biso   1.000  C
  C137     1.0000 0.01293  0.35231  0.30109  Biso   1.000  C
  C138     1.0000 0.14537  0.74626  0.44609  Biso   1.000  C
  C139     1.0000 0.05554  0.19342  0.26681  Biso   1.000  C
  C140     1.0000 0.09221  0.02560  0.23250  Biso   1.000  C
  C141     1.0000 0.12545  0.74062  0.37780  Biso   1.000  C
  C142     1.0000 0.09973  0.73478  0.31170  Biso   1.000  C
  H135     1.0000 0.99082  0.29428  0.30920  Biso   1.000  H
  H136     1.0000 0.16894  0.74189  0.46560  Biso   1.000  H
  H137     1.0000 0.03103  0.13949  0.27299  Biso   1.000  H
  H138     1.0000 0.11592  0.00337  0.21629  Biso   1.000  H
  N35      1.0000 0.06343  0.94452  0.24060  Biso   1.000  N
  H139     1.0000 0.09295  0.74453  0.38291  Biso   1.000  H
  N36      1.0000 0.10883  0.72349  0.27799  Biso   1.000  N
  H140     1.0000 0.06774  0.74326  0.31799  Biso   1.000  H
  C143     1.0000 0.06824  0.82526  0.22480  Biso   1.000  C
  C144     1.0000 0.06582  0.72613  0.25151  Biso   1.000  C
  H141     1.0000 0.09891  0.82079  0.21310  Biso   1.000  H
  H142     1.0000 0.04283  0.81368  0.20530  Biso   1.000  H
  H143     1.0000 0.06323  0.64741  0.23829  Biso   1.000  H
  H144     1.0000 0.03712  0.73624  0.26549  Biso   1.000  H
  N37      1.0000 0.70547  0.56970  0.53999  Biso   1.000  N
  C145     1.0000 0.71534  0.46556  0.51620  Biso   1.000  C
  C146     1.0000 0.70868  0.54938  0.57499  Biso   1.000  C
  C147     1.0000 0.75387  0.49909  0.49120  Biso   1.000  C
  H145     1.0000 0.72547  0.39468  0.53150  Biso   1.000  H
  H146     1.0000 0.68636  0.44269  0.50139  Biso   1.000  H
  C148     1.0000 0.69878  0.64532  0.60180  Biso   1.000  C
  H147     1.0000 0.71775  0.47066  0.58362  Biso   1.000  H
  N38      1.0000 0.79905  0.51840  0.51161  Biso   1.000  N
  H148     1.0000 0.74475  0.57434  0.47760  Biso   1.000  H
  H149     1.0000 0.75737  0.43313  0.47301  Biso   1.000  H
  C149     1.0000 0.68257  0.76057  0.59211  Biso   1.000  C
  C150     1.0000 0.70177  0.61461  0.63960  Biso   1.000  C
  C151     1.0000 0.81387  0.62764  0.51150  Biso   1.000  C
  C152     1.0000 0.67097  0.84767  0.61639  Biso   1.000  C
  H150     1.0000 0.67936  0.78007  0.56669  Biso   1.000  H
  C153     1.0000 0.69147  0.70517  0.66570  Biso   1.000  C
  H151     1.0000 0.71056  0.53471  0.64730  Biso   1.000  H
  C154     1.0000 0.85925  0.66828  0.53029  Biso   1.000  C
  H152     1.0000 0.79484  0.68677  0.49859  Biso   1.000  H
  C155     1.0000 0.67488  0.81587  0.65471  Biso   1.000  C
  C156     1.0000 0.65538  0.96911  0.60601  Biso   1.000  C
  C157     1.0000 0.69569  0.66828  0.70589  Biso   1.000  C
  C158     1.0000 0.88547  0.58856  0.55370  Biso   1.000  C
  C159     1.0000 0.87777  0.77970  0.52389  Biso   1.000  C
  H153     1.0000 0.66577  0.87318  0.67252  Biso   1.000  H
  H154     1.0000 0.65918  0.99271  0.58131  Biso   1.000  H
  N39      1.0000 0.63746  0.04647  0.62650  Biso   1.000  N
  N40      1.0000 0.70890  0.56232  0.71642  Biso   1.000  N
  H155     1.0000 0.68819  0.72659  0.72392  Biso   1.000  H
  C160     1.0000 0.92946  0.62218  0.57090  Biso   1.000  C
  H156     1.0000 0.87315  0.50957  0.55801  Biso   1.000  H
  C161     1.0000 0.92127  0.82088  0.54021  Biso   1.000  C
  H157     1.0000 0.86057  0.83291  0.50749  Biso   1.000  H
  C162     1.0000 0.62246  0.16163  0.60971  Biso   1.000  C
  C163     1.0000 0.70919  0.54419  0.75699  Biso   1.000  C
  C164     1.0000 0.94667  0.73934  0.56430  Biso   1.000  C
  C165     1.0000 0.95748  0.53808  0.59521  Biso   1.000  C
  C166     1.0000 0.93866  0.94069  0.53169  Biso   1.000  C
  C167     1.0000 0.64698  0.26859  0.62911  Biso   1.000  C
  H158     1.0000 0.62996  0.16153  0.58351  Biso   1.000  H
  H159     1.0000 0.58776  0.17037  0.61090  Biso   1.000  H
  C168     1.0000 0.75858  0.49727  0.77131  Biso   1.000  C
  H160     1.0000 0.70210  0.62208  0.76911  Biso   1.000  H
  H161     1.0000 0.68459  0.48433  0.76282  Biso   1.000  H
  H162     1.0000 0.97578  0.76458  0.57612  Biso   1.000  H
  N41      1.0000 0.99797  0.55986  0.60949  Biso   1.000  N
  H163     1.0000 0.94367  0.46137  0.60040  Biso   1.000  H
  H164     1.0000 0.96648  0.96811  0.54510  Biso   1.000  H
  N42      1.0000 0.91976  0.01294  0.50760  Biso   1.000  N
  N43      1.0000 0.69698  0.27132  0.61960  Biso   1.000  N
  H165     1.0000 0.64507  0.26020  0.65601  Biso   1.000  H
  H166     1.0000 0.63108  0.34557  0.62131  Biso   1.000  H
  N44      1.0000 0.79489  0.59612  0.76949  Biso   1.000  N
  H167     1.0000 0.76789  0.42720  0.75620  Biso   1.000  H
  H168     1.0000 0.75697  0.46911  0.79699  Biso   1.000  H
  C169     1.0000 0.01926  0.45736  0.63150  Biso   1.000  C
  C170     1.0000 0.94047  0.13110  0.50109  Biso   1.000  C
  C171     1.0000 0.72836  0.26922  0.64581  Biso   1.000  C
  C172     1.0000 0.83267  0.56077  0.75411  Biso   1.000  C
  H169     1.0000 0.99616  0.39040  0.63331  Biso   1.000  H
  H170     1.0000 0.04746  0.42556  0.61980  Biso   1.000  H
  C173     1.0000 0.03346  0.50784  0.67010  Biso   1.000  C
  H171     1.0000 0.96887  0.14204  0.51801  Biso   1.000  H
  H172     1.0000 0.95064  0.13457  0.47560  Biso   1.000  H
  C174     1.0000 0.90626  0.23278  0.50691  Biso   1.000  C
  C175     1.0000 0.77858  0.26685  0.63680  Biso   1.000  C
  H173     1.0000 0.71977  0.26913  0.67070  Biso   1.000  H
  C176     1.0000 0.87148  0.64969  0.74881  Biso   1.000  C
  H174     1.0000 0.83567  0.47868  0.74631  Biso   1.000  H
  N45      1.0000 0.99147  0.53544  0.69120  Biso   1.000  N
  H175     1.0000 0.05239  0.58300  0.66771  Biso   1.000  H
  H176     1.0000 0.05357  0.44734  0.68381  Biso   1.000  H
  N46      1.0000 0.89687  0.24353  0.54639  Biso   1.000  N
  H177     1.0000 0.87624  0.21693  0.49249  Biso   1.000  H
  H178     1.0000 0.91946  0.31040  0.49821  Biso   1.000  H
  C177     1.0000 0.79316  0.26266  0.60112  Biso   1.000  C
  C178     1.0000 0.81308  0.27223  0.66620  Biso   1.000  C
  C179     1.0000 0.91068  0.60514  0.72919  Biso   1.000  C
  C180     1.0000 0.87229  0.76640  0.76131  Biso   1.000  C
  C181     1.0000 0.98717  0.64769  0.69892  Biso   1.000  C
  C182     1.0000 0.85476  0.25374  0.55389  Biso   1.000  C
  C183     1.0000 0.83995  0.25920  0.59309  Biso   1.000  C
  H179     1.0000 0.76978  0.26230  0.58139  Biso   1.000  H
  H180     1.0000 0.80409  0.28034  0.69081  Biso   1.000  H
  C184     1.0000 0.86169  0.26522  0.65831  Biso   1.000  C
  C185     1.0000 0.94577  0.68786  0.72142  Biso   1.000  C
  H181     1.0000 0.91248  0.52223  0.72191  Biso   1.000  H
  C186     1.0000 0.90760  0.85131  0.75449  Biso   1.000  C
  H182     1.0000 0.84718  0.79218  0.77559  Biso   1.000  H
  H183     1.0000 0.00928  0.70572  0.69081  Biso   1.000  H
  H184     1.0000 0.83116  0.25811  0.53441  Biso   1.000  H
  C187     1.0000 0.87468  0.25938  0.62221  Biso   1.000  C
  C188     1.0000 0.90037  0.26522  0.68831  Biso   1.000  C
  C189     1.0000 0.94459  0.80658  0.73320  Biso   1.000  C
  C190     1.0000 0.90788  0.97440  0.76751  Biso   1.000  C
  H185     1.0000 0.90718  0.25547  0.61710  Biso   1.000  H
  N47      1.0000 0.89130  0.27651  0.72199  Biso   1.000  N
  H186     1.0000 0.93239  0.25674  0.68199  Biso   1.000  H
  H187     1.0000 0.96907  0.86051  0.72699  Biso   1.000  H
  H188     1.0000 0.88418  0.99663  0.78370  Biso   1.000  H
  N48      1.0000 0.93670  0.05548  0.75941  Biso   1.000  N
  C191     1.0000 0.93428  0.27387  0.74850  Biso   1.000  C
  C192     1.0000 0.93189  0.17474  0.77521  Biso   1.000  C
  H189     1.0000 0.93687  0.35259  0.76172  Biso   1.000  H
  H190     1.0000 0.96298  0.26376  0.73449  Biso   1.000  H
  H191     1.0000 0.90118  0.17921  0.78691  Biso   1.000  H
  H192     1.0000 0.95730  0.18632  0.79471  Biso   1.000  H
  C193     1.0000 0.43183  0.32526  0.27521  Biso   1.000  C
  C194     1.0000 0.43425  0.22613  0.24851  Biso   1.000  C
  N49      1.0000 0.43663  0.44452  0.25939  Biso   1.000  N
  H193     1.0000 0.40112  0.32079  0.28689  Biso   1.000  H
  H194     1.0000 0.45723  0.31368  0.29469  Biso   1.000  H
  N50      1.0000 0.39123  0.22349  0.22200  Biso   1.000  N
  H195     1.0000 0.43684  0.14741  0.26170  Biso   1.000  H
  H196     1.0000 0.46291  0.23624  0.23450  Biso   1.000  H
  C195     1.0000 0.40781  0.52560  0.26750  Biso   1.000  C
  C196     1.0000 0.40030  0.23478  0.18829  Biso   1.000  C
  C197     1.0000 0.40753  0.64869  0.25450  Biso   1.000  C
  H197     1.0000 0.38415  0.50337  0.28370  Biso   1.000  H
  C198     1.0000 0.36162  0.23478  0.15829  Biso   1.000  C
  H198     1.0000 0.43233  0.24326  0.18200  Biso   1.000  H
  C199     1.0000 0.44453  0.69342  0.23321  Biso   1.000  C
  C200     1.0000 0.37223  0.73360  0.26131  Biso   1.000  C
  C201     1.0000 0.31302  0.22777  0.16621  Biso   1.000  C
  C202     1.0000 0.37462  0.24062  0.12220  Biso   1.000  C
  C203     1.0000 0.44571  0.81214  0.22140  Biso   1.000  C
  H199     1.0000 0.46904  0.63949  0.22700  Biso   1.000  H
  C204     1.0000 0.37141  0.85031  0.24881  Biso   1.000  C
  H200     1.0000 0.34715  0.70782  0.27560  Biso   1.000  H
  C205     1.0000 0.27851  0.23315  0.13681  Biso   1.000  C
  H201     1.0000 0.30402  0.21966  0.19079  Biso   1.000  H
  C206     1.0000 0.33992  0.24080  0.09310  Biso   1.000  C
  H202     1.0000 0.40712  0.24453  0.11711  Biso   1.000  H
  C207     1.0000 0.41062  0.89486  0.22920  Biso   1.000  C
  C208     1.0000 0.48713  0.85231  0.19890  Biso   1.000  C
  C209     1.0000 0.33264  0.93923  0.25409  Biso   1.000  C
  C210     1.0000 0.29312  0.23734  0.10110  Biso   1.000  C
  C211     1.0000 0.22833  0.23078  0.14579  Biso   1.000  C
  C212     1.0000 0.35470  0.24626  0.05390  Biso   1.000  C
  H203     1.0000 0.41241  0.97777  0.22189  Biso   1.000  H
  N51      1.0000 0.49141  0.96456  0.19121  Biso   1.000  N
  H204     1.0000 0.50921  0.79428  0.19079  Biso   1.000  H
  N52      1.0000 0.29483  0.90388  0.26950  Biso   1.000  N
  H205     1.0000 0.33564  0.02132  0.24631  Biso   1.000  H
  H206     1.0000 0.26971  0.23770  0.08140  Biso   1.000  H
  N53      1.0000 0.19692  0.22868  0.11961  Biso   1.000  N
  H207     1.0000 0.21970  0.23087  0.17071  Biso   1.000  H
  N54      1.0000 0.39680  0.25647  0.04640  Biso   1.000  N
  H208     1.0000 0.33109  0.24189  0.03440  Biso   1.000  H
  C213     1.0000 0.53343  0.99216  0.17011  Biso   1.000  C
  C214     1.0000 0.25852  0.00273  0.27131  Biso   1.000  C
  C215     1.0000 0.14691  0.23141  0.12909  Biso   1.000  C
  C216     1.0000 0.40619  0.26722  0.00690  Biso   1.000  C
  H209     1.0000 0.55232  0.91700  0.16769  Biso   1.000  H
  C217     1.0000 0.51923  0.04264  0.13151  Biso   1.000  C
  H210     1.0000 0.55350  0.05266  0.18379  Biso   1.000  H
  C218     1.0000 0.20913  0.95581  0.25700  Biso   1.000  C
  H211     1.0000 0.26783  0.07280  0.25620  Biso   1.000  H
  H212     1.0000 0.25694  0.03089  0.29700  Biso   1.000  H
  H213     1.0000 0.14500  0.23980  0.15601  Biso   1.000  H
  H214     1.0000 0.13101  0.15443  0.12129  Biso   1.000  H
  C219     1.0000 0.12243  0.33837  0.10970  Biso   1.000  C
  C220     1.0000 0.44041  0.36890  0.00110  Biso   1.000  C
  H215     1.0000 0.37632  0.28307  0.99250  Biso   1.000  H
  H216     1.0000 0.41953  0.18960  0.99819  Biso   1.000  H
  N55      1.0000 0.49791  0.94014  0.10950  Biso   1.000  N
  H217     1.0000 0.49612  0.10960  0.13329  Biso   1.000  H
  H218     1.0000 0.54743  0.07444  0.11981  Biso   1.000  H
  N56      1.0000 0.20883  0.93768  0.21640  Biso   1.000  N
  H219     1.0000 0.20203  0.87792  0.26909  Biso   1.000  H
  H220     1.0000 0.18452  0.01567  0.26280  Biso   1.000  H
  N57      1.0000 0.13740  0.45353  0.12651  Biso   1.000  N
  H221     1.0000 0.12990  0.33847  0.08349  Biso   1.000  H
  H222     1.0000 0.08770  0.32963  0.11090  Biso   1.000  H
  N58      1.0000 0.41970  0.48706  0.00761  Biso   1.000  N
  H223     1.0000 0.46880  0.35796  0.01799  Biso   1.000  H
  H224     1.0000 0.45072  0.36543  0.97560  Biso   1.000  H
  C221     1.0000 0.45741  0.96192  0.09519  Biso   1.000  C
  C222     1.0000 0.19563  0.83172  0.20590  Biso   1.000  C
  C223     1.0000 0.15531  0.53089  0.10599  Biso   1.000  C
  C224     1.0000 0.43859  0.55931  0.03170  Biso   1.000  C
  C225     1.0000 0.42939  0.87782  0.07091  Biso   1.000  C
  H225     1.0000 0.44360  0.03863  0.10041  Biso   1.000  H
  C226     1.0000 0.19141  0.79483  0.16571  Biso   1.000  C
  H226     1.0000 0.18812  0.77341  0.22390  Biso   1.000  H
  C227     1.0000 0.17091  0.65233  0.11640  Biso   1.000  C
  H227     1.0000 0.15911  0.50729  0.08129  Biso   1.000  H
  C228     1.0000 0.42121  0.67912  0.04019  Biso   1.000  C
  H228     1.0000 0.46641  0.53189  0.04511  Biso   1.000  H
  C229     1.0000 0.44660  0.76066  0.06431  Biso   1.000  C
  C230     1.0000 0.38541  0.91144  0.05371  Biso   1.000  C
  C231     1.0000 0.17481  0.68413  0.15470  Biso   1.000  C
  C232     1.0000 0.20171  0.88539  0.13961  Biso   1.000  C
  C233     1.0000 0.18251  0.73943  0.09211  Biso   1.000  C
  C234     1.0000 0.37771  0.72030  0.02390  Biso   1.000  C
  H229     1.0000 0.47572  0.73542  0.07610  Biso   1.000  H
  C235     1.0000 0.35922  0.83172  0.03030  Biso   1.000  C
  H230     1.0000 0.37311  0.99043  0.05799  Biso   1.000  H
  H231     1.0000 0.16570  0.62682  0.17250  Biso   1.000  H
  C236     1.0000 0.19872  0.85468  0.10181  Biso   1.000  C
  H232     1.0000 0.21050  0.96529  0.14731  Biso   1.000  H
  H233     1.0000 0.17930  0.71993  0.06670  Biso   1.000  H
  H234     1.0000 0.36051  0.66709  0.00750  Biso   1.000  H
  C237     1.0000 0.31380  0.87236  0.01151  Biso   1.000  C
  C238     1.0000 0.20861  0.95062  0.07500  Biso   1.000  C
  N59      1.0000 0.29902  0.98160  0.01159  Biso   1.000  N
  H235     1.0000 0.29492  0.81323  0.99860  Biso   1.000  H
  N60      1.0000 0.20541  0.93030  0.04000  Biso   1.000  N
  H236     1.0000 0.21772  0.02934  0.08360  Biso   1.000  H
  C239     1.0000 0.25391  0.00091  0.99118  Biso   1.000  C
  C240     1.0000 0.21531  0.03444  0.01621  Biso   1.000  C
  H237     1.0000 0.24482  0.92566  0.97758  Biso   1.000  H
  H238     1.0000 0.25741  0.06687  0.97299  Biso   1.000  H
  H239     1.0000 0.22541  0.10532  0.03151  Biso   1.000  H
  H240     1.0000 0.18630  0.05731  0.00140  Biso   1.000  H
  C241     1.0000 0.56827  0.67474  0.72480  Biso   1.000  C
  N61      1.0000 0.56350  0.55548  0.74059  Biso   1.000  N
  C242     1.0000 0.56589  0.77387  0.75150  Biso   1.000  C
  H241     1.0000 0.59898  0.67921  0.71309  Biso   1.000  H
  H242     1.0000 0.54290  0.68632  0.70529  Biso   1.000  H
  C243     1.0000 0.59228  0.47440  0.73251  Biso   1.000  C
  N62      1.0000 0.60890  0.77651  0.77801  Biso   1.000  N
  H243     1.0000 0.56329  0.85259  0.73831  Biso   1.000  H
  H244     1.0000 0.53718  0.76376  0.76551  Biso   1.000  H
  C244     1.0000 0.59260  0.35131  0.74551  Biso   1.000  C
  H245     1.0000 0.61599  0.49663  0.71631  Biso   1.000  H
  C245     1.0000 0.59979  0.76522  0.81172  Biso   1.000  C
  C246     1.0000 0.55557  0.30658  0.76680  Biso   1.000  C
  C247     1.0000 0.62787  0.26640  0.73870  Biso   1.000  C
  C248     1.0000 0.63851  0.76522  0.84172  Biso   1.000  C
  H246     1.0000 0.56780  0.75674  0.81801  Biso   1.000  H
  C249     1.0000 0.55439  0.18786  0.77861  Biso   1.000  C
  H247     1.0000 0.53110  0.36051  0.77301  Biso   1.000  H
  C250     1.0000 0.62868  0.14969  0.75120  Biso   1.000  C
  H248     1.0000 0.65299  0.29218  0.72441  Biso   1.000  H
  C251     1.0000 0.68708  0.77223  0.83380  Biso   1.000  C
  C252     1.0000 0.62552  0.75938  0.87781  Biso   1.000  C
  C253     1.0000 0.58948  0.10514  0.77081  Biso   1.000  C
  C254     1.0000 0.51300  0.14769  0.80111  Biso   1.000  C
  C255     1.0000 0.66749  0.06077  0.74589  Biso   1.000  C
  C256     1.0000 0.72158  0.76685  0.86320  Biso   1.000  C
  H249     1.0000 0.69608  0.78034  0.80922  Biso   1.000  H
  C257     1.0000 0.66021  0.75920  0.90691  Biso   1.000  C
  H250     1.0000 0.59301  0.75547  0.88290  Biso   1.000  H
  H251     1.0000 0.58768  0.02223  0.77809  Biso   1.000  H
  N63      1.0000 0.50869  0.03544  0.80880  Biso   1.000  N
  H252     1.0000 0.49089  0.20572  0.80922  Biso   1.000  H
  N64      1.0000 0.70527  0.09612  0.73051  Biso   1.000  N
  H253     1.0000 0.66449  0.97868  0.75370  Biso   1.000  H
  C258     1.0000 0.70701  0.76266  0.89891  Biso   1.000  C
  C259     1.0000 0.77181  0.76922  0.85422  Biso   1.000  C
  C260     1.0000 0.64540  0.75374  0.94611  Biso   1.000  C
  C261     1.0000 0.46670  0.00784  0.82990  Biso   1.000  C
  C262     1.0000 0.74158  0.99727  0.72870  Biso   1.000  C
  H254     1.0000 0.73042  0.76230  0.91861  Biso   1.000  H
  N65      1.0000 0.80321  0.77132  0.88040  Biso   1.000  N
  H255     1.0000 0.78039  0.76913  0.82930  Biso   1.000  H
  N66      1.0000 0.60329  0.74353  0.95361  Biso   1.000  N
  H256     1.0000 0.66900  0.75811  0.96561  Biso   1.000  H
  H257     1.0000 0.44781  0.08300  0.83229  Biso   1.000  H
  C263     1.0000 0.48091  0.95736  0.86850  Biso   1.000  C
  H258     1.0000 0.44659  0.94734  0.81619  Biso   1.000  H
  C264     1.0000 0.79097  0.04419  0.74301  Biso   1.000  C
  H259     1.0000 0.73227  0.92720  0.74381  Biso   1.000  H
  H260     1.0000 0.74319  0.96911  0.70301  Biso   1.000  H
  C265     1.0000 0.85319  0.76859  0.87089  Biso   1.000  C
  C266     1.0000 0.59391  0.73278  0.99311  Biso   1.000  C
  N67      1.0000 0.50219  0.05986  0.89051  Biso   1.000  N
  H261     1.0000 0.50401  0.89040  0.86672  Biso   1.000  H
  H262     1.0000 0.45270  0.92556  0.88020  Biso   1.000  H
  N68      1.0000 0.79130  0.06232  0.78361  Biso   1.000  N
  H263     1.0000 0.79810  0.12208  0.73089  Biso   1.000  H
  H264     1.0000 0.81558  0.98433  0.73721  Biso   1.000  H
  H265     1.0000 0.85509  0.76020  0.84400  Biso   1.000  H
  H266     1.0000 0.86908  0.84557  0.87869  Biso   1.000  H
  C267     1.0000 0.87771  0.66163  0.89031  Biso   1.000  C
  C268     1.0000 0.55973  0.63110  0.99891  Biso   1.000  C
  H267     1.0000 0.62378  0.71693  0.00751  Biso   1.000  H
  H268     1.0000 0.58060  0.81040  0.00182  Biso   1.000  H
  C269     1.0000 0.54272  0.03808  0.90479  Biso   1.000  C
  C270     1.0000 0.80450  0.16828  0.79411  Biso   1.000  C
  N69      1.0000 0.86270  0.54647  0.87350  Biso   1.000  N
  H269     1.0000 0.87020  0.66153  0.91649  Biso   1.000  H
  H270     1.0000 0.91240  0.67037  0.88911  Biso   1.000  H
  N70      1.0000 0.58040  0.51294  0.99240  Biso   1.000  N
  H271     1.0000 0.53130  0.64204  0.98202  Biso   1.000  H
  H272     1.0000 0.54938  0.63457  0.02441  Biso   1.000  H
  C271     1.0000 0.57070  0.12218  0.92910  Biso   1.000  C
  H273     1.0000 0.55649  0.96137  0.89960  Biso   1.000  H
  C272     1.0000 0.80869  0.20517  0.83430  Biso   1.000  C
  H274     1.0000 0.81197  0.22659  0.77611  Biso   1.000  H
  C273     1.0000 0.84478  0.46911  0.89400  Biso   1.000  C
  C274     1.0000 0.56150  0.44069  0.96831  Biso   1.000  C
  C275     1.0000 0.55350  0.23934  0.93570  Biso   1.000  C
  C276     1.0000 0.61469  0.08856  0.94630  Biso   1.000  C
  C277     1.0000 0.82528  0.31587  0.84531  Biso   1.000  C
  C278     1.0000 0.79839  0.11461  0.86040  Biso   1.000  C
  C279     1.0000 0.82919  0.34767  0.88361  Biso   1.000  C
  H275     1.0000 0.84102  0.49271  0.91869  Biso   1.000  H
  C280     1.0000 0.57893  0.32088  0.95982  Biso   1.000  C
  H276     1.0000 0.53372  0.46811  0.95490  Biso   1.000  H
  H277     1.0000 0.52442  0.26458  0.92391  Biso   1.000  H
  H278     1.0000 0.62702  0.00957  0.94202  Biso   1.000  H
  C281     1.0000 0.64092  0.16828  0.96971  Biso   1.000  C
  H279     1.0000 0.83439  0.37318  0.82751  Biso   1.000  H
  C282     1.0000 0.80141  0.14532  0.89820  Biso   1.000  C
  H280     1.0000 0.78960  0.03471  0.85270  Biso   1.000  H
  C283     1.0000 0.81759  0.26057  0.90790  Biso   1.000  C
  C284     1.0000 0.62242  0.27970  0.97611  Biso   1.000  C
  C285     1.0000 0.68633  0.12764  0.98850  Biso   1.000  C
  C286     1.0000 0.79152  0.04938  0.92501  Biso   1.000  C
  H281     1.0000 0.82080  0.28007  0.93331  Biso   1.000  H
  H282     1.0000 0.63962  0.33291  0.99251  Biso   1.000  H
  N71      1.0000 0.70112  0.01840  0.98842  Biso   1.000  N
  H283     1.0000 0.70518  0.18677  0.00141  Biso   1.000  H
  N72      1.0000 0.79472  0.06970  0.96001  Biso   1.000  N
  H284     1.0000 0.78241  0.97066  0.91641  Biso   1.000  H
  C287     1.0000 0.74619  0.99909  0.00880  Biso   1.000  C
  C288     1.0000 0.78482  0.96556  0.98380  Biso   1.000  C
  H285     1.0000 0.74269  0.93313  0.02702  Biso   1.000  H
  H286     1.0000 0.75531  0.07434  0.02240  Biso   1.000  H
  H287     1.0000 0.77473  0.89468  0.96850  Biso   1.000  H
  H288     1.0000 0.81380  0.94269  0.99861  Biso   1.000  H
  C289     1.0000 0.70913  0.45581  0.25700  Biso   1.000  C
  N73      1.0000 0.70883  0.43768  0.21640  Biso   1.000  N
  C290     1.0000 0.75852  0.50273  0.27131  Biso   1.000  C
  H289     1.0000 0.70203  0.37792  0.26909  Biso   1.000  H
  H290     1.0000 0.68452  0.51567  0.26280  Biso   1.000  H
  C291     1.0000 0.69563  0.33172  0.20590  Biso   1.000  C
  N74      1.0000 0.79483  0.40388  0.26950  Biso   1.000  N
  H291     1.0000 0.76783  0.57280  0.25620  Biso   1.000  H
  H292     1.0000 0.75694  0.53089  0.29700  Biso   1.000  H
  C292     1.0000 0.69141  0.29483  0.16571  Biso   1.000  C
  H293     1.0000 0.68812  0.27341  0.22390  Biso   1.000  H
  C293     1.0000 0.83264  0.43923  0.25409  Biso   1.000  C
  C294     1.0000 0.67481  0.18413  0.15470  Biso   1.000  C
  C295     1.0000 0.70171  0.38539  0.13961  Biso   1.000  C
  C296     1.0000 0.87141  0.35031  0.24881  Biso   1.000  C
  H294     1.0000 0.83564  0.52132  0.24631  Biso   1.000  H
  H295     1.0000 0.66570  0.12682  0.17250  Biso   1.000  H
  C297     1.0000 0.67091  0.15233  0.11640  Biso   1.000  C
  C298     1.0000 0.69872  0.35468  0.10181  Biso   1.000  C
  H296     1.0000 0.71050  0.46529  0.14731  Biso   1.000  H
  C299     1.0000 0.91062  0.39486  0.22920  Biso   1.000  C
  C300     1.0000 0.87223  0.23360  0.26131  Biso   1.000  C
  C301     1.0000 0.68251  0.23943  0.09211  Biso   1.000  C
  C302     1.0000 0.65531  0.03089  0.10599  Biso   1.000  C
  C303     1.0000 0.70861  0.45062  0.07500  Biso   1.000  C
  H297     1.0000 0.91241  0.47777  0.22189  Biso   1.000  H
  C304     1.0000 0.94571  0.31214  0.22140  Biso   1.000  C
  C305     1.0000 0.90753  0.14869  0.25450  Biso   1.000  C
  H298     1.0000 0.84715  0.20782  0.27560  Biso   1.000  H
  H299     1.0000 0.67930  0.21993  0.06670  Biso   1.000  H
  H300     1.0000 0.65911  0.00729  0.08129  Biso   1.000  H
  N75      1.0000 0.63740  0.95353  0.12651  Biso   1.000  N
  N76      1.0000 0.70541  0.43030  0.04000  Biso   1.000  N
  H301     1.0000 0.71772  0.52934  0.08360  Biso   1.000  H
  C306     1.0000 0.94453  0.19342  0.23321  Biso   1.000  C
  C307     1.0000 0.98713  0.35231  0.19890  Biso   1.000  C
  C308     1.0000 0.90781  0.02560  0.26750  Biso   1.000  C
  C309     1.0000 0.62243  0.83837  0.10970  Biso   1.000  C
  C310     1.0000 0.71531  0.53444  0.01621  Biso   1.000  C
  H302     1.0000 0.96904  0.13949  0.22700  Biso   1.000  H
  N77      1.0000 0.99141  0.46456  0.19121  Biso   1.000  N
  H303     1.0000 0.00921  0.29428  0.19079  Biso   1.000  H
  H304     1.0000 0.88415  0.00337  0.28370  Biso   1.000  H
  N78      1.0000 0.93663  0.94452  0.25939  Biso   1.000  N
  C311     1.0000 0.64691  0.73141  0.12909  Biso   1.000  C
  H305     1.0000 0.62990  0.83847  0.08349  Biso   1.000  H
  H306     1.0000 0.58770  0.82963  0.11090  Biso   1.000  H
  H307     1.0000 0.72541  0.60532  0.03151  Biso   1.000  H
  H308     1.0000 0.68630  0.55731  0.00140  Biso   1.000  H
  C312     1.0000 0.75391  0.50091  0.99118  Biso   1.000  C
  C313     1.0000 0.03343  0.49216  0.17011  Biso   1.000  C
  C314     1.0000 0.93183  0.82526  0.27521  Biso   1.000  C
  N79      1.0000 0.69692  0.72868  0.11961  Biso   1.000  N
  H309     1.0000 0.64500  0.73980  0.15601  Biso   1.000  H
  H310     1.0000 0.63101  0.65443  0.12129  Biso   1.000  H
  N80      1.0000 0.79902  0.48160  0.01159  Biso   1.000  N
  H311     1.0000 0.74482  0.42566  0.97758  Biso   1.000  H
  H312     1.0000 0.75741  0.56687  0.97299  Biso   1.000  H
  C315     1.0000 0.01923  0.54264  0.13151  Biso   1.000  C
  H313     1.0000 0.05232  0.41700  0.16769  Biso   1.000  H
  H314     1.0000 0.05350  0.55266  0.18379  Biso   1.000  H
  C316     1.0000 0.93425  0.72613  0.24851  Biso   1.000  C
  H315     1.0000 0.90112  0.82079  0.28689  Biso   1.000  H
  H316     1.0000 0.95723  0.81368  0.29469  Biso   1.000  H
  C317     1.0000 0.72833  0.73078  0.14579  Biso   1.000  C
  C318     1.0000 0.81380  0.37236  0.01151  Biso   1.000  C
  N81      1.0000 0.99791  0.44014  0.10950  Biso   1.000  N
  H317     1.0000 0.99612  0.60960  0.13329  Biso   1.000  H
  H318     1.0000 0.04743  0.57444  0.11981  Biso   1.000  H
  N82      1.0000 0.89123  0.72349  0.22200  Biso   1.000  N
  H319     1.0000 0.93684  0.64741  0.26170  Biso   1.000  H
  H320     1.0000 0.96291  0.73624  0.23450  Biso   1.000  H
  C319     1.0000 0.77851  0.73315  0.13681  Biso   1.000  C
  H321     1.0000 0.71970  0.73087  0.17071  Biso   1.000  H
  C320     1.0000 0.85922  0.33172  0.03030  Biso   1.000  C
  H322     1.0000 0.79492  0.31323  0.99860  Biso   1.000  H
  C321     1.0000 0.95741  0.46192  0.09519  Biso   1.000  C
  C322     1.0000 0.90030  0.73478  0.18829  Biso   1.000  C
  C323     1.0000 0.79312  0.73734  0.10110  Biso   1.000  C
  C324     1.0000 0.81302  0.72777  0.16621  Biso   1.000  C
  C325     1.0000 0.88541  0.41144  0.05371  Biso   1.000  C
  C326     1.0000 0.87771  0.22030  0.02390  Biso   1.000  C
  C327     1.0000 0.92939  0.37782  0.07091  Biso   1.000  C
  H323     1.0000 0.94360  0.53863  0.10041  Biso   1.000  H
  C328     1.0000 0.86162  0.73478  0.15829  Biso   1.000  C
  H324     1.0000 0.93233  0.74326  0.18200  Biso   1.000  H
  C329     1.0000 0.83992  0.74080  0.09310  Biso   1.000  C
  H325     1.0000 0.76971  0.73770  0.08140  Biso   1.000  H
  H326     1.0000 0.80402  0.71966  0.19079  Biso   1.000  H
  H327     1.0000 0.87311  0.49043  0.05799  Biso   1.000  H
  C330     1.0000 0.92121  0.17912  0.04019  Biso   1.000  C
  H328     1.0000 0.86051  0.16709  0.00750  Biso   1.000  H
  C331     1.0000 0.94660  0.26066  0.06431  Biso   1.000  C
  C332     1.0000 0.87462  0.74062  0.12220  Biso   1.000  C
  C333     1.0000 0.85470  0.74626  0.05390  Biso   1.000  C
  C334     1.0000 0.93859  0.05931  0.03170  Biso   1.000  C
  H329     1.0000 0.97572  0.23542  0.07610  Biso   1.000  H
  H330     1.0000 0.90712  0.74453  0.11711  Biso   1.000  H
  N83      1.0000 0.89680  0.75647  0.04640  Biso   1.000  N
  H331     1.0000 0.83109  0.74189  0.03440  Biso   1.000  H
  H332     1.0000 0.96641  0.03189  0.04511  Biso   1.000  H
  N84      1.0000 0.91970  0.98706  0.00761  Biso   1.000  N
  C335     1.0000 0.90619  0.76722  0.00690  Biso   1.000  C
  C336     1.0000 0.94041  0.86890  0.00110  Biso   1.000  C
  H333     1.0000 0.87632  0.78307  0.99250  Biso   1.000  H
  H334     1.0000 0.91953  0.68960  0.99819  Biso   1.000  H
  H335     1.0000 0.95072  0.86543  0.97560  Biso   1.000  H
  H336     1.0000 0.96880  0.85796  0.01799  Biso   1.000  H
  C337     1.0000 0.29097  0.54419  0.74301  Biso   1.000  C
  C338     1.0000 0.24158  0.49727  0.72870  Biso   1.000  C
  N85      1.0000 0.29130  0.56232  0.78361  Biso   1.000  N
  H337     1.0000 0.29810  0.62208  0.73089  Biso   1.000  H
  H338     1.0000 0.31558  0.48433  0.73721  Biso   1.000  H
  N86      1.0000 0.20527  0.59612  0.73051  Biso   1.000  N
  H339     1.0000 0.23227  0.42720  0.74381  Biso   1.000  H
  H340     1.0000 0.24319  0.46911  0.70301  Biso   1.000  H
  C339     1.0000 0.30450  0.66828  0.79411  Biso   1.000  C
  C340     1.0000 0.16749  0.56077  0.74589  Biso   1.000  C
  C341     1.0000 0.30869  0.70517  0.83430  Biso   1.000  C
  H341     1.0000 0.31197  0.72659  0.77611  Biso   1.000  H
  C342     1.0000 0.12868  0.64969  0.75120  Biso   1.000  C
  H342     1.0000 0.16449  0.47868  0.75370  Biso   1.000  H
  C343     1.0000 0.32528  0.81587  0.84531  Biso   1.000  C
  C344     1.0000 0.29839  0.61461  0.86040  Biso   1.000  C
  C345     1.0000 0.08948  0.60514  0.77081  Biso   1.000  C
  C346     1.0000 0.12787  0.76640  0.73870  Biso   1.000  C
  H343     1.0000 0.33439  0.87318  0.82751  Biso   1.000  H
  C347     1.0000 0.32919  0.84767  0.88361  Biso   1.000  C
  C348     1.0000 0.30141  0.64532  0.89820  Biso   1.000  C
  H344     1.0000 0.28960  0.53471  0.85270  Biso   1.000  H
  H345     1.0000 0.08768  0.52223  0.77809  Biso   1.000  H
  C349     1.0000 0.05439  0.68786  0.77861  Biso   1.000  C
  C350     1.0000 0.09260  0.85131  0.74551  Biso   1.000  C
  H346     1.0000 0.15299  0.79218  0.72441  Biso   1.000  H
  C351     1.0000 0.31759  0.76057  0.90790  Biso   1.000  C
  C352     1.0000 0.34478  0.96911  0.89400  Biso   1.000  C
  C353     1.0000 0.29152  0.54938  0.92501  Biso   1.000  C
  C354     1.0000 0.05557  0.80658  0.76680  Biso   1.000  C
  C355     1.0000 0.01300  0.64769  0.80111  Biso   1.000  C
  C356     1.0000 0.09228  0.97440  0.73251  Biso   1.000  C
  H347     1.0000 0.32080  0.78007  0.93331  Biso   1.000  H
  H348     1.0000 0.34102  0.99271  0.91869  Biso   1.000  H
  N87      1.0000 0.36270  0.04647  0.87350  Biso   1.000  N
  N88      1.0000 0.29472  0.56970  0.96001  Biso   1.000  N
  H349     1.0000 0.28241  0.47066  0.91641  Biso   1.000  H
  H350     1.0000 0.03110  0.86051  0.77301  Biso   1.000  H
  N89      1.0000 0.00869  0.53544  0.80880  Biso   1.000  N
  H351     1.0000 0.99089  0.70572  0.80922  Biso   1.000  H
  H352     1.0000 0.11599  0.99663  0.71631  Biso   1.000  H
  N90      1.0000 0.06350  0.05548  0.74059  Biso   1.000  N
  C357     1.0000 0.37771  0.16163  0.89031  Biso   1.000  C
  C358     1.0000 0.28482  0.46556  0.98380  Biso   1.000  C
  C359     1.0000 0.96670  0.50784  0.82990  Biso   1.000  C
  C360     1.0000 0.06827  0.17474  0.72480  Biso   1.000  C
  C361     1.0000 0.35319  0.26859  0.87089  Biso   1.000  C
  H353     1.0000 0.37020  0.16153  0.91649  Biso   1.000  H
  H354     1.0000 0.41240  0.17037  0.88911  Biso   1.000  H
  H355     1.0000 0.27473  0.39468  0.96850  Biso   1.000  H
  H356     1.0000 0.31380  0.44269  0.99861  Biso   1.000  H
  C362     1.0000 0.24619  0.49909  0.00880  Biso   1.000  C
  C363     1.0000 0.98091  0.45736  0.86850  Biso   1.000  C
  H357     1.0000 0.94781  0.58300  0.83229  Biso   1.000  H
  H358     1.0000 0.94659  0.44734  0.81619  Biso   1.000  H
  C364     1.0000 0.06589  0.27387  0.75150  Biso   1.000  C
  H359     1.0000 0.09898  0.17921  0.71309  Biso   1.000  H
  H360     1.0000 0.04290  0.18632  0.70529  Biso   1.000  H
  N91      1.0000 0.30321  0.27132  0.88040  Biso   1.000  N
  H361     1.0000 0.35509  0.26020  0.84400  Biso   1.000  H
  H362     1.0000 0.36908  0.34557  0.87869  Biso   1.000  H
  N92      1.0000 0.20112  0.51840  0.98842  Biso   1.000  N
  H363     1.0000 0.25531  0.57434  0.02240  Biso   1.000  H
  H364     1.0000 0.24269  0.43313  0.02702  Biso   1.000  H
  N93      1.0000 0.00219  0.55986  0.89051  Biso   1.000  N
  H365     1.0000 0.00401  0.39040  0.86672  Biso   1.000  H
  H366     1.0000 0.95270  0.42556  0.88020  Biso   1.000  H
  N94      1.0000 0.10890  0.27651  0.77801  Biso   1.000  N
  H367     1.0000 0.06329  0.35259  0.73831  Biso   1.000  H
  H368     1.0000 0.03718  0.26376  0.76551  Biso   1.000  H
  C365     1.0000 0.27181  0.26922  0.85422  Biso   1.000  C
  C366     1.0000 0.18633  0.62764  0.98850  Biso   1.000  C
  C367     1.0000 0.04272  0.53808  0.90479  Biso   1.000  C
  C368     1.0000 0.09979  0.26522  0.81172  Biso   1.000  C
  C369     1.0000 0.22158  0.26685  0.86320  Biso   1.000  C
  H369     1.0000 0.28039  0.26913  0.82930  Biso   1.000  H
  C370     1.0000 0.14092  0.66828  0.96971  Biso   1.000  C
  H370     1.0000 0.20518  0.68677  0.00141  Biso   1.000  H
  C371     1.0000 0.07070  0.62218  0.92910  Biso   1.000  C
  H371     1.0000 0.05649  0.46137  0.89960  Biso   1.000  H
  C372     1.0000 0.13851  0.26522  0.84172  Biso   1.000  C
  H372     1.0000 0.06780  0.25674  0.81801  Biso   1.000  H
  C373     1.0000 0.18708  0.27223  0.83380  Biso   1.000  C
  C374     1.0000 0.20701  0.26266  0.89891  Biso   1.000  C
  C375     1.0000 0.11469  0.58856  0.94630  Biso   1.000  C
  C376     1.0000 0.12242  0.77970  0.97611  Biso   1.000  C
  C377     1.0000 0.05350  0.73934  0.93570  Biso   1.000  C
  C378     1.0000 0.12552  0.25938  0.87781  Biso   1.000  C
  H373     1.0000 0.19608  0.28034  0.80922  Biso   1.000  H
  C379     1.0000 0.16021  0.25920  0.90691  Biso   1.000  C
  H374     1.0000 0.23042  0.26230  0.91861  Biso   1.000  H
  H375     1.0000 0.12702  0.50957  0.94202  Biso   1.000  H
  C380     1.0000 0.07893  0.82088  0.95982  Biso   1.000  C
  H376     1.0000 0.13962  0.83291  0.99251  Biso   1.000  H
  H377     1.0000 0.02442  0.76458  0.92391  Biso   1.000  H
  H378     1.0000 0.09301  0.25547  0.88290  Biso   1.000  H
  C381     1.0000 0.14540  0.25374  0.94611  Biso   1.000  C
  C382     1.0000 0.06150  0.94069  0.96831  Biso   1.000  C
  N95      1.0000 0.10329  0.24353  0.95361  Biso   1.000  N
  H379     1.0000 0.16900  0.25811  0.96561  Biso   1.000  H
  H380     1.0000 0.03372  0.96811  0.95490  Biso   1.000  H
  N96      1.0000 0.08040  0.01294  0.99240  Biso   1.000  N
  C383     1.0000 0.09391  0.23278  0.99311  Biso   1.000  C
  C384     1.0000 0.05973  0.13110  0.99891  Biso   1.000  C
  H381     1.0000 0.12378  0.21693  0.00751  Biso   1.000  H
  H382     1.0000 0.08060  0.31040  0.00182  Biso   1.000  H
  H383     1.0000 0.03130  0.14204  0.98202  Biso   1.000  H
  H384     1.0000 0.04938  0.13457  0.02441  Biso   1.000  H
