data_image0
_cell_length_a       24.8
_cell_length_b       24.8
_cell_length_c       24.8
_cell_angle_alpha    90
_cell_angle_beta     90
_cell_angle_gamma    90

_symmetry_space_group_name_H-M    "P 1"
_symmetry_int_tables_number       1

loop_
  _symmetry_equiv_pos_as_xyz
  'x, y, z'

loop_
  _atom_site_label
  _atom_site_occupancy
  _atom_site_fract_x
  _atom_site_fract_y
  _atom_site_fract_z
  _atom_site_thermal_displace_type
  _atom_site_B_iso_or_equiv
  _atom_site_type_symbol
  C1       1.0000 0.44633  0.38980  0.37181  Biso   1.000  C
  C2       1.0000 0.41548  0.43440  0.35827  Biso   1.000  C
  C3       1.0000 0.43440  0.35827  0.41548  Biso   1.000  C
  H1       1.0000 0.47601  0.38101  0.35060  Biso   1.000  H
  C4       1.0000 0.37181  0.44633  0.38980  Biso   1.000  C
  C5       1.0000 0.42851  0.46726  0.31109  Biso   1.000  C
  C6       1.0000 0.38980  0.37181  0.44633  Biso   1.000  C
  C7       1.0000 0.46726  0.31109  0.42851  Biso   1.000  C
  C8       1.0000 0.35827  0.41548  0.43440  Biso   1.000  C
  H2       1.0000 0.35060  0.47601  0.38101  Biso   1.000  H
  N1       1.0000 0.46355  0.45504  0.27782  Biso   1.000  N
  H3       1.0000 0.40940  0.49911  0.30589  Biso   1.000  H
  H4       1.0000 0.38101  0.35060  0.47601  Biso   1.000  H
  N2       1.0000 0.45504  0.27782  0.46355  Biso   1.000  N
  H5       1.0000 0.49911  0.30589  0.40940  Biso   1.000  H
  C9       1.0000 0.31109  0.42851  0.46726  Biso   1.000  C
  C10      1.0000 0.47149  0.49000  0.23141  Biso   1.000  C
  C11      1.0000 0.49000  0.23141  0.47149  Biso   1.000  C
  N3       1.0000 0.27782  0.46355  0.45504  Biso   1.000  N
  H6       1.0000 0.30589  0.40940  0.49911  Biso   1.000  H
  C12      1.0000 0.52851  0.51000  0.23141  Biso   1.000  C
  C13      1.0000 0.46060  0.45742  0.18060  Biso   1.000  C
  H7       1.0000 0.44661  0.52060  0.23331  Biso   1.000  H
  C14      1.0000 0.51000  0.23141  0.52851  Biso   1.000  C
  C15      1.0000 0.45742  0.18060  0.46060  Biso   1.000  C
  H8       1.0000 0.52060  0.23331  0.44661  Biso   1.000  H
  C16      1.0000 0.23141  0.47149  0.49000  Biso   1.000  C
  N4       1.0000 0.53645  0.54496  0.27782  Biso   1.000  N
  C17      1.0000 0.53940  0.54258  0.18060  Biso   1.000  C
  H9       1.0000 0.55339  0.47940  0.23331  Biso   1.000  H
  C18      1.0000 0.47161  0.49129  0.13060  Biso   1.000  C
  H10      1.0000 0.42331  0.44548  0.18040  Biso   1.000  H
  H11      1.0000 0.48351  0.42569  0.18020  Biso   1.000  H
  N5       1.0000 0.54496  0.27782  0.53645  Biso   1.000  N
  C19      1.0000 0.54258  0.18060  0.53940  Biso   1.000  C
  H12      1.0000 0.47940  0.23331  0.55339  Biso   1.000  H
  C20      1.0000 0.49129  0.13060  0.47161  Biso   1.000  C
  H13      1.0000 0.44548  0.18040  0.42331  Biso   1.000  H
  H14      1.0000 0.42569  0.18020  0.48351  Biso   1.000  H
  C21      1.0000 0.23141  0.52851  0.51000  Biso   1.000  C
  C22      1.0000 0.18060  0.46060  0.45742  Biso   1.000  C
  H15      1.0000 0.23331  0.44661  0.52060  Biso   1.000  H
  C23      1.0000 0.57149  0.53274  0.31109  Biso   1.000  C
  C24      1.0000 0.52839  0.50871  0.13060  Biso   1.000  C
  H16      1.0000 0.57669  0.55452  0.18040  Biso   1.000  H
  H17      1.0000 0.51649  0.57431  0.18020  Biso   1.000  H
  H18      1.0000 0.46411  0.47040  0.09839  Biso   1.000  H
  H19      1.0000 0.44819  0.52270  0.13040  Biso   1.000  H
  C25      1.0000 0.53274  0.31109  0.57149  Biso   1.000  C
  C26      1.0000 0.50871  0.13060  0.52839  Biso   1.000  C
  H20      1.0000 0.55452  0.18040  0.57669  Biso   1.000  H
  H21      1.0000 0.57431  0.18020  0.51649  Biso   1.000  H
  H22      1.0000 0.47040  0.09839  0.46411  Biso   1.000  H
  H23      1.0000 0.52270  0.13040  0.44819  Biso   1.000  H
  N6       1.0000 0.27782  0.53645  0.54496  Biso   1.000  N
  C27      1.0000 0.18060  0.53940  0.54258  Biso   1.000  C
  H24      1.0000 0.23331  0.55339  0.47940  Biso   1.000  H
  C28      1.0000 0.13060  0.47161  0.49129  Biso   1.000  C
  H25      1.0000 0.18040  0.42331  0.44548  Biso   1.000  H
  H26      1.0000 0.18020  0.48351  0.42569  Biso   1.000  H
  C29      1.0000 0.58452  0.56560  0.35827  Biso   1.000  C
  H27      1.0000 0.59060  0.50089  0.30589  Biso   1.000  H
  H28      1.0000 0.53589  0.52960  0.09839  Biso   1.000  H
  H29      1.0000 0.55181  0.47730  0.13040  Biso   1.000  H
  C30      1.0000 0.56560  0.35827  0.58452  Biso   1.000  C
  H30      1.0000 0.50089  0.30589  0.59060  Biso   1.000  H
  H31      1.0000 0.52960  0.09839  0.53589  Biso   1.000  H
  H32      1.0000 0.47730  0.13040  0.55181  Biso   1.000  H
  C31      1.0000 0.31109  0.57149  0.53274  Biso   1.000  C
  C32      1.0000 0.13060  0.52839  0.50871  Biso   1.000  C
  H33      1.0000 0.18040  0.57669  0.55452  Biso   1.000  H
  H34      1.0000 0.18020  0.51649  0.57431  Biso   1.000  H
  H35      1.0000 0.09839  0.46411  0.47040  Biso   1.000  H
  H36      1.0000 0.13040  0.44819  0.52270  Biso   1.000  H
  C33      1.0000 0.55367  0.61020  0.37181  Biso   1.000  C
  C34      1.0000 0.62819  0.55367  0.38980  Biso   1.000  C
  C35      1.0000 0.61020  0.37181  0.55367  Biso   1.000  C
  C36      1.0000 0.55367  0.38980  0.62819  Biso   1.000  C
  C37      1.0000 0.35827  0.58452  0.56560  Biso   1.000  C
  H37      1.0000 0.30589  0.59060  0.50089  Biso   1.000  H
  H38      1.0000 0.09839  0.53589  0.52960  Biso   1.000  H
  H39      1.0000 0.13040  0.55181  0.47730  Biso   1.000  H
  C38      1.0000 0.56560  0.64173  0.41548  Biso   1.000  C
  H40      1.0000 0.52399  0.61899  0.35060  Biso   1.000  H
  C39      1.0000 0.64173  0.58452  0.43440  Biso   1.000  C
  H41      1.0000 0.64940  0.52399  0.38101  Biso   1.000  H
  C40      1.0000 0.64173  0.41548  0.56560  Biso   1.000  C
  H42      1.0000 0.61899  0.35060  0.52399  Biso   1.000  H
  C41      1.0000 0.58452  0.43440  0.64173  Biso   1.000  C
  H43      1.0000 0.52399  0.38101  0.64940  Biso   1.000  H
  C42      1.0000 0.38980  0.62819  0.55367  Biso   1.000  C
  C43      1.0000 0.37181  0.55367  0.61020  Biso   1.000  C
  C44      1.0000 0.61020  0.62819  0.44633  Biso   1.000  C
  C45      1.0000 0.53274  0.68891  0.42851  Biso   1.000  C
  C46      1.0000 0.68891  0.57149  0.46726  Biso   1.000  C
  C47      1.0000 0.62819  0.44633  0.61020  Biso   1.000  C
  C48      1.0000 0.68891  0.42851  0.53274  Biso   1.000  C
  C49      1.0000 0.57149  0.46726  0.68891  Biso   1.000  C
  C50      1.0000 0.43440  0.64173  0.58452  Biso   1.000  C
  H44      1.0000 0.38101  0.64940  0.52399  Biso   1.000  H
  C51      1.0000 0.41548  0.56560  0.64173  Biso   1.000  C
  H45      1.0000 0.35060  0.52399  0.61899  Biso   1.000  H
  H46      1.0000 0.61899  0.64940  0.47601  Biso   1.000  H
  N7       1.0000 0.54496  0.72218  0.46355  Biso   1.000  N
  H47      1.0000 0.50089  0.69411  0.40940  Biso   1.000  H
  N8       1.0000 0.72218  0.53645  0.45504  Biso   1.000  N
  H48      1.0000 0.69411  0.59060  0.49911  Biso   1.000  H
  H49      1.0000 0.64940  0.47601  0.61899  Biso   1.000  H
  N9       1.0000 0.72218  0.46355  0.54496  Biso   1.000  N
  H50      1.0000 0.69411  0.40940  0.50089  Biso   1.000  H
  N10      1.0000 0.53645  0.45504  0.72218  Biso   1.000  N
  H51      1.0000 0.59060  0.49911  0.69411  Biso   1.000  H
  C52      1.0000 0.44633  0.61020  0.62819  Biso   1.000  C
  C53      1.0000 0.46726  0.68891  0.57149  Biso   1.000  C
  C54      1.0000 0.42851  0.53274  0.68891  Biso   1.000  C
  C55      1.0000 0.51000  0.76859  0.47149  Biso   1.000  C
  C56      1.0000 0.76859  0.52851  0.49000  Biso   1.000  C
  C57      1.0000 0.76859  0.47149  0.51000  Biso   1.000  C
  C58      1.0000 0.52851  0.49000  0.76859  Biso   1.000  C
  H52      1.0000 0.47601  0.61899  0.64940  Biso   1.000  H
  N11      1.0000 0.45504  0.72218  0.53645  Biso   1.000  N
  H53      1.0000 0.49911  0.69411  0.59060  Biso   1.000  H
  N12      1.0000 0.46355  0.54496  0.72218  Biso   1.000  N
  H54      1.0000 0.40940  0.50089  0.69411  Biso   1.000  H
  C59      1.0000 0.49000  0.76859  0.52851  Biso   1.000  C
  C60      1.0000 0.54258  0.81940  0.46060  Biso   1.000  C
  H55      1.0000 0.47940  0.76669  0.44661  Biso   1.000  H
  C61      1.0000 0.81940  0.53940  0.45742  Biso   1.000  C
  H56      1.0000 0.76669  0.55339  0.52060  Biso   1.000  H
  C62      1.0000 0.81940  0.46060  0.54258  Biso   1.000  C
  H57      1.0000 0.76669  0.44661  0.47940  Biso   1.000  H
  C63      1.0000 0.47149  0.51000  0.76859  Biso   1.000  C
  C64      1.0000 0.53940  0.45742  0.81940  Biso   1.000  C
  H58      1.0000 0.55339  0.52060  0.76669  Biso   1.000  H
  C65      1.0000 0.45742  0.81940  0.53940  Biso   1.000  C
  H59      1.0000 0.52060  0.76669  0.55339  Biso   1.000  H
  C66      1.0000 0.50871  0.86940  0.47161  Biso   1.000  C
  H60      1.0000 0.55452  0.81960  0.42331  Biso   1.000  H
  H61      1.0000 0.57431  0.81980  0.48351  Biso   1.000  H
  C67      1.0000 0.86940  0.52839  0.49129  Biso   1.000  C
  H62      1.0000 0.81960  0.57669  0.44548  Biso   1.000  H
  H63      1.0000 0.81980  0.51649  0.42569  Biso   1.000  H
  C68      1.0000 0.86940  0.47161  0.50871  Biso   1.000  C
  H64      1.0000 0.81960  0.42331  0.55452  Biso   1.000  H
  H65      1.0000 0.81980  0.48351  0.57431  Biso   1.000  H
  C69      1.0000 0.46060  0.54258  0.81940  Biso   1.000  C
  H66      1.0000 0.44661  0.47940  0.76669  Biso   1.000  H
  C70      1.0000 0.52839  0.49129  0.86940  Biso   1.000  C
  H67      1.0000 0.57669  0.44548  0.81960  Biso   1.000  H
  H68      1.0000 0.51649  0.42569  0.81980  Biso   1.000  H
  C71      1.0000 0.49129  0.86940  0.52839  Biso   1.000  C
  H69      1.0000 0.44548  0.81960  0.57669  Biso   1.000  H
  H70      1.0000 0.42569  0.81980  0.51649  Biso   1.000  H
  H71      1.0000 0.52960  0.90161  0.46411  Biso   1.000  H
  H72      1.0000 0.47730  0.86960  0.44819  Biso   1.000  H
  H73      1.0000 0.90161  0.53589  0.47040  Biso   1.000  H
  H74      1.0000 0.86960  0.55181  0.52270  Biso   1.000  H
  H75      1.0000 0.90161  0.46411  0.52960  Biso   1.000  H
  H76      1.0000 0.86960  0.44819  0.47730  Biso   1.000  H
  C72      1.0000 0.47161  0.50871  0.86940  Biso   1.000  C
  H77      1.0000 0.42331  0.55452  0.81960  Biso   1.000  H
  H78      1.0000 0.48351  0.57431  0.81980  Biso   1.000  H
  H79      1.0000 0.53589  0.47040  0.90161  Biso   1.000  H
  H80      1.0000 0.55181  0.52270  0.86960  Biso   1.000  H
  H81      1.0000 0.47040  0.90161  0.53589  Biso   1.000  H
  H82      1.0000 0.52270  0.86960  0.55181  Biso   1.000  H
  H83      1.0000 0.46411  0.52960  0.90161  Biso   1.000  H
  H84      1.0000 0.44819  0.47730  0.86960  Biso   1.000  H
  C73      1.0000 0.38060  0.24129  0.27839  Biso   1.000  C
  C74      1.0000 0.43060  0.20742  0.28940  Biso   1.000  C
  C75      1.0000 0.38060  0.25871  0.22161  Biso   1.000  C
  H85      1.0000 0.34839  0.22040  0.28589  Biso   1.000  H
  H86      1.0000 0.38040  0.27270  0.30181  Biso   1.000  H
  C76      1.0000 0.48141  0.24000  0.27851  Biso   1.000  C
  H87      1.0000 0.43040  0.19548  0.32669  Biso   1.000  H
  H88      1.0000 0.43020  0.17569  0.26649  Biso   1.000  H
  C77      1.0000 0.43060  0.29258  0.21060  Biso   1.000  C
  H89      1.0000 0.34839  0.27960  0.21411  Biso   1.000  H
  H90      1.0000 0.38040  0.22730  0.19819  Biso   1.000  H
  N13      1.0000 0.52782  0.20504  0.28645  Biso   1.000  N
  C78      1.0000 0.48141  0.26000  0.22149  Biso   1.000  C
  H91      1.0000 0.48331  0.27060  0.30339  Biso   1.000  H
  H92      1.0000 0.43040  0.30452  0.17331  Biso   1.000  H
  H93      1.0000 0.43020  0.32431  0.23351  Biso   1.000  H
  C79      1.0000 0.56109  0.21726  0.32149  Biso   1.000  C
  N14      1.0000 0.52782  0.29496  0.21355  Biso   1.000  N
  H94      1.0000 0.48331  0.22940  0.19661  Biso   1.000  H
  C80      1.0000 0.60827  0.18440  0.33452  Biso   1.000  C
  H95      1.0000 0.55589  0.24911  0.34060  Biso   1.000  H
  C81      1.0000 0.56109  0.28274  0.17851  Biso   1.000  C
  C82      1.0000 0.63980  0.19633  0.37819  Biso   1.000  C
  C83      1.0000 0.62181  0.13980  0.30367  Biso   1.000  C
  C84      1.0000 0.60827  0.31560  0.16548  Biso   1.000  C
  H96      1.0000 0.55589  0.25089  0.15940  Biso   1.000  H
  C85      1.0000 0.68440  0.16548  0.39173  Biso   1.000  C
  H97      1.0000 0.63101  0.22601  0.39940  Biso   1.000  H
  C86      1.0000 0.66548  0.10827  0.31560  Biso   1.000  C
  H98      1.0000 0.60060  0.13101  0.27399  Biso   1.000  H
  C87      1.0000 0.63980  0.30367  0.12181  Biso   1.000  C
  C88      1.0000 0.62181  0.36020  0.19633  Biso   1.000  C
  C89      1.0000 0.69633  0.12181  0.36020  Biso   1.000  C
  C90      1.0000 0.71726  0.17851  0.43891  Biso   1.000  C
  C91      1.0000 0.67851  0.06109  0.28274  Biso   1.000  C
  C92      1.0000 0.68440  0.33452  0.10827  Biso   1.000  C
  H99      1.0000 0.63101  0.27399  0.10060  Biso   1.000  H
  C93      1.0000 0.66548  0.39173  0.18440  Biso   1.000  C
  H100     1.0000 0.60060  0.36899  0.22601  Biso   1.000  H
  H101     1.0000 0.72601  0.10060  0.36899  Biso   1.000  H
  N15      1.0000 0.70504  0.21355  0.47218  Biso   1.000  N
  H102     1.0000 0.74911  0.15940  0.44411  Biso   1.000  H
  N16      1.0000 0.71355  0.02782  0.29496  Biso   1.000  N
  H103     1.0000 0.65940  0.05589  0.25089  Biso   1.000  H
  C94      1.0000 0.69633  0.37819  0.13980  Biso   1.000  C
  C95      1.0000 0.71726  0.32149  0.06109  Biso   1.000  C
  C96      1.0000 0.67851  0.43891  0.21726  Biso   1.000  C
  C97      1.0000 0.74000  0.22149  0.51859  Biso   1.000  C
  C98      1.0000 0.72149  0.98141  0.26000  Biso   1.000  C
  H104     1.0000 0.72601  0.39940  0.13101  Biso   1.000  H
  N17      1.0000 0.70504  0.28645  0.02782  Biso   1.000  N
  H105     1.0000 0.74911  0.34060  0.05589  Biso   1.000  H
  N18      1.0000 0.71355  0.47218  0.20504  Biso   1.000  N
  H106     1.0000 0.65940  0.44411  0.24911  Biso   1.000  H
  C99      1.0000 0.76000  0.27851  0.51859  Biso   1.000  C
  C100     1.0000 0.70742  0.21060  0.56940  Biso   1.000  C
  H107     1.0000 0.77060  0.19661  0.51669  Biso   1.000  H
  C101     1.0000 0.77851  0.98141  0.24000  Biso   1.000  C
  C102     1.0000 0.71060  0.93060  0.29258  Biso   1.000  C
  H108     1.0000 0.69661  0.98331  0.22940  Biso   1.000  H
  C103     1.0000 0.74000  0.27851  0.98141  Biso   1.000  C
  C104     1.0000 0.72149  0.51859  0.24000  Biso   1.000  C
  N19      1.0000 0.79496  0.28645  0.47218  Biso   1.000  N
  C105     1.0000 0.79258  0.28940  0.56940  Biso   1.000  C
  H109     1.0000 0.72940  0.30339  0.51669  Biso   1.000  H
  C106     1.0000 0.74129  0.22161  0.61940  Biso   1.000  C
  H110     1.0000 0.69548  0.17331  0.56960  Biso   1.000  H
  H111     1.0000 0.67569  0.23351  0.56980  Biso   1.000  H
  N20      1.0000 0.78645  0.02782  0.20504  Biso   1.000  N
  C107     1.0000 0.78940  0.93060  0.20742  Biso   1.000  C
  H112     1.0000 0.80339  0.98331  0.27060  Biso   1.000  H
  C108     1.0000 0.72161  0.88060  0.25871  Biso   1.000  C
  H113     1.0000 0.67331  0.93040  0.30452  Biso   1.000  H
  H114     1.0000 0.73351  0.93020  0.32431  Biso   1.000  H
  C109     1.0000 0.76000  0.22149  0.98141  Biso   1.000  C
  C110     1.0000 0.70742  0.28940  0.93060  Biso   1.000  C
  H115     1.0000 0.77060  0.30339  0.98331  Biso   1.000  H
  C111     1.0000 0.77851  0.51859  0.26000  Biso   1.000  C
  C112     1.0000 0.71060  0.56940  0.20742  Biso   1.000  C
  H116     1.0000 0.69661  0.51669  0.27060  Biso   1.000  H
  C113     1.0000 0.78274  0.32149  0.43891  Biso   1.000  C
  C114     1.0000 0.75871  0.27839  0.61940  Biso   1.000  C
  H117     1.0000 0.80452  0.32669  0.56960  Biso   1.000  H
  H118     1.0000 0.82431  0.26649  0.56980  Biso   1.000  H
  H119     1.0000 0.72040  0.21411  0.65161  Biso   1.000  H
  H120     1.0000 0.77270  0.19819  0.61960  Biso   1.000  H
  C115     1.0000 0.82149  0.06109  0.21726  Biso   1.000  C
  C116     1.0000 0.77839  0.88060  0.24129  Biso   1.000  C
  H121     1.0000 0.82669  0.93040  0.19548  Biso   1.000  H
  H122     1.0000 0.76649  0.93020  0.17569  Biso   1.000  H
  H123     1.0000 0.71411  0.84839  0.27960  Biso   1.000  H
  H124     1.0000 0.69819  0.88040  0.22730  Biso   1.000  H
  N21      1.0000 0.79496  0.21355  0.02782  Biso   1.000  N
  C117     1.0000 0.79258  0.21060  0.93060  Biso   1.000  C
  H125     1.0000 0.72940  0.19661  0.98331  Biso   1.000  H
  C118     1.0000 0.74129  0.27839  0.88060  Biso   1.000  C
  H126     1.0000 0.69548  0.32669  0.93040  Biso   1.000  H
  H127     1.0000 0.67569  0.26649  0.93020  Biso   1.000  H
  N22      1.0000 0.78645  0.47218  0.29496  Biso   1.000  N
  C119     1.0000 0.78940  0.56940  0.29258  Biso   1.000  C
  H128     1.0000 0.80339  0.51669  0.22940  Biso   1.000  H
  C120     1.0000 0.72161  0.61940  0.24129  Biso   1.000  C
  H129     1.0000 0.67331  0.56960  0.19548  Biso   1.000  H
  H130     1.0000 0.73351  0.56980  0.17569  Biso   1.000  H
  C121     1.0000 0.81560  0.33452  0.39173  Biso   1.000  C
  H131     1.0000 0.75089  0.34060  0.44411  Biso   1.000  H
  H132     1.0000 0.77960  0.28589  0.65161  Biso   1.000  H
  H133     1.0000 0.72730  0.30181  0.61960  Biso   1.000  H
  C122     1.0000 0.83452  0.10827  0.18440  Biso   1.000  C
  H134     1.0000 0.84060  0.05589  0.24911  Biso   1.000  H
  H135     1.0000 0.78589  0.84839  0.22040  Biso   1.000  H
  H136     1.0000 0.80181  0.88040  0.27270  Biso   1.000  H
  C123     1.0000 0.78274  0.17851  0.06109  Biso   1.000  C
  C124     1.0000 0.75871  0.22161  0.88060  Biso   1.000  C
  H137     1.0000 0.80452  0.17331  0.93040  Biso   1.000  H
  H138     1.0000 0.82431  0.23351  0.93020  Biso   1.000  H
  H139     1.0000 0.72040  0.28589  0.84839  Biso   1.000  H
  H140     1.0000 0.77270  0.30181  0.88040  Biso   1.000  H
  C125     1.0000 0.82149  0.43891  0.28274  Biso   1.000  C
  C126     1.0000 0.77839  0.61940  0.25871  Biso   1.000  C
  H141     1.0000 0.82669  0.56960  0.30452  Biso   1.000  H
  H142     1.0000 0.76649  0.56980  0.32431  Biso   1.000  H
  H143     1.0000 0.71411  0.65161  0.22040  Biso   1.000  H
  H144     1.0000 0.69819  0.61960  0.27270  Biso   1.000  H
  C127     1.0000 0.86020  0.30367  0.37819  Biso   1.000  C
  C128     1.0000 0.80367  0.37819  0.36020  Biso   1.000  C
  C129     1.0000 0.80367  0.12181  0.13980  Biso   1.000  C
  C130     1.0000 0.87819  0.13980  0.19633  Biso   1.000  C
  C131     1.0000 0.81560  0.16548  0.10827  Biso   1.000  C
  H145     1.0000 0.75089  0.15940  0.05589  Biso   1.000  H
  H146     1.0000 0.77960  0.21411  0.84839  Biso   1.000  H
  H147     1.0000 0.72730  0.19819  0.88040  Biso   1.000  H
  C132     1.0000 0.83452  0.39173  0.31560  Biso   1.000  C
  H148     1.0000 0.84060  0.44411  0.25089  Biso   1.000  H
  H149     1.0000 0.78589  0.65161  0.27960  Biso   1.000  H
  H150     1.0000 0.80181  0.61960  0.22730  Biso   1.000  H
  C133     1.0000 0.89173  0.31560  0.33452  Biso   1.000  C
  H151     1.0000 0.86899  0.27399  0.39940  Biso   1.000  H
  H152     1.0000 0.77399  0.39940  0.36899  Biso   1.000  H
  H153     1.0000 0.77399  0.10060  0.13101  Biso   1.000  H
  C134     1.0000 0.89173  0.18440  0.16548  Biso   1.000  C
  H154     1.0000 0.89940  0.13101  0.22601  Biso   1.000  H
  C135     1.0000 0.86020  0.19633  0.12181  Biso   1.000  C
  C136     1.0000 0.87819  0.36020  0.30367  Biso   1.000  C
  C137     1.0000 0.93891  0.28274  0.32149  Biso   1.000  C
  C138     1.0000 0.93891  0.21726  0.17851  Biso   1.000  C
  H155     1.0000 0.86899  0.22601  0.10060  Biso   1.000  H
  H156     1.0000 0.89940  0.36899  0.27399  Biso   1.000  H
  N23      1.0000 0.97218  0.29496  0.28645  Biso   1.000  N
  H157     1.0000 0.94411  0.25089  0.34060  Biso   1.000  H
  N24      1.0000 0.97218  0.20504  0.21355  Biso   1.000  N
  H158     1.0000 0.94411  0.24911  0.15940  Biso   1.000  H
  C139     1.0000 0.01859  0.26000  0.27851  Biso   1.000  C
  C140     1.0000 0.01859  0.24000  0.22149  Biso   1.000  C
  C141     1.0000 0.06940  0.29258  0.28940  Biso   1.000  C
  H159     1.0000 0.01669  0.22940  0.30339  Biso   1.000  H
  C142     1.0000 0.06940  0.20742  0.21060  Biso   1.000  C
  H160     1.0000 0.01669  0.27060  0.19661  Biso   1.000  H
  C143     1.0000 0.11940  0.25871  0.27839  Biso   1.000  C
  H161     1.0000 0.06960  0.30452  0.32669  Biso   1.000  H
  H162     1.0000 0.06980  0.32431  0.26649  Biso   1.000  H
  C144     1.0000 0.11940  0.24129  0.22161  Biso   1.000  C
  H163     1.0000 0.06960  0.19548  0.17331  Biso   1.000  H
  H164     1.0000 0.06980  0.17569  0.23351  Biso   1.000  H
  H165     1.0000 0.15161  0.27960  0.28589  Biso   1.000  H
  H166     1.0000 0.11960  0.22730  0.30181  Biso   1.000  H
  H167     1.0000 0.15161  0.22040  0.21411  Biso   1.000  H
  H168     1.0000 0.11960  0.27270  0.19819  Biso   1.000  H
  C145     1.0000 0.27839  0.38060  0.24129  Biso   1.000  C
  C146     1.0000 0.28940  0.43060  0.20742  Biso   1.000  C
  C147     1.0000 0.22161  0.38060  0.25871  Biso   1.000  C
  H169     1.0000 0.28589  0.34839  0.22040  Biso   1.000  H
  H170     1.0000 0.30181  0.38040  0.27270  Biso   1.000  H
  C148     1.0000 0.27851  0.48141  0.24000  Biso   1.000  C
  H171     1.0000 0.32669  0.43040  0.19548  Biso   1.000  H
  H172     1.0000 0.26649  0.43020  0.17569  Biso   1.000  H
  C149     1.0000 0.21060  0.43060  0.29258  Biso   1.000  C
  H173     1.0000 0.21411  0.34839  0.27960  Biso   1.000  H
  H174     1.0000 0.19819  0.38040  0.22730  Biso   1.000  H
  N25      1.0000 0.28645  0.52782  0.20504  Biso   1.000  N
  C150     1.0000 0.22149  0.48141  0.26000  Biso   1.000  C
  H175     1.0000 0.30339  0.48331  0.27060  Biso   1.000  H
  H176     1.0000 0.17331  0.43040  0.30452  Biso   1.000  H
  H177     1.0000 0.23351  0.43020  0.32431  Biso   1.000  H
  C151     1.0000 0.32149  0.56109  0.21726  Biso   1.000  C
  N26      1.0000 0.21355  0.52782  0.29496  Biso   1.000  N
  H178     1.0000 0.19661  0.48331  0.22940  Biso   1.000  H
  C152     1.0000 0.33452  0.60827  0.18440  Biso   1.000  C
  H179     1.0000 0.34060  0.55589  0.24911  Biso   1.000  H
  C153     1.0000 0.17851  0.56109  0.28274  Biso   1.000  C
  C154     1.0000 0.30367  0.62181  0.13980  Biso   1.000  C
  C155     1.0000 0.37819  0.63980  0.19633  Biso   1.000  C
  C156     1.0000 0.16548  0.60827  0.31560  Biso   1.000  C
  H180     1.0000 0.15940  0.55589  0.25089  Biso   1.000  H
  C157     1.0000 0.31560  0.66548  0.10827  Biso   1.000  C
  H181     1.0000 0.27399  0.60060  0.13101  Biso   1.000  H
  C158     1.0000 0.39173  0.68440  0.16548  Biso   1.000  C
  H182     1.0000 0.39940  0.63101  0.22601  Biso   1.000  H
  C159     1.0000 0.19633  0.62181  0.36020  Biso   1.000  C
  C160     1.0000 0.12181  0.63980  0.30367  Biso   1.000  C
  C161     1.0000 0.36020  0.69633  0.12181  Biso   1.000  C
  C162     1.0000 0.28274  0.67851  0.06109  Biso   1.000  C
  C163     1.0000 0.43891  0.71726  0.17851  Biso   1.000  C
  C164     1.0000 0.18440  0.66548  0.39173  Biso   1.000  C
  H183     1.0000 0.22601  0.60060  0.36899  Biso   1.000  H
  C165     1.0000 0.10827  0.68440  0.33452  Biso   1.000  C
  H184     1.0000 0.10060  0.63101  0.27399  Biso   1.000  H
  H185     1.0000 0.36899  0.72601  0.10060  Biso   1.000  H
  N27      1.0000 0.29496  0.71355  0.02782  Biso   1.000  N
  H186     1.0000 0.25089  0.65940  0.05589  Biso   1.000  H
  N28      1.0000 0.47218  0.70504  0.21355  Biso   1.000  N
  H187     1.0000 0.44411  0.74911  0.15940  Biso   1.000  H
  C166     1.0000 0.13980  0.69633  0.37819  Biso   1.000  C
  C167     1.0000 0.21726  0.67851  0.43891  Biso   1.000  C
  C168     1.0000 0.06109  0.71726  0.32149  Biso   1.000  C
  C169     1.0000 0.26000  0.72149  0.98141  Biso   1.000  C
  C170     1.0000 0.51859  0.74000  0.22149  Biso   1.000  C
  H188     1.0000 0.13101  0.72601  0.39940  Biso   1.000  H
  N29      1.0000 0.20504  0.71355  0.47218  Biso   1.000  N
  H189     1.0000 0.24911  0.65940  0.44411  Biso   1.000  H
  N30      1.0000 0.02782  0.70504  0.28645  Biso   1.000  N
  H190     1.0000 0.05589  0.74911  0.34060  Biso   1.000  H
  C171     1.0000 0.24000  0.77851  0.98141  Biso   1.000  C
  C172     1.0000 0.29258  0.71060  0.93060  Biso   1.000  C
  H191     1.0000 0.22940  0.69661  0.98331  Biso   1.000  H
  C173     1.0000 0.51859  0.76000  0.27851  Biso   1.000  C
  C174     1.0000 0.56940  0.70742  0.21060  Biso   1.000  C
  H192     1.0000 0.51669  0.77060  0.19661  Biso   1.000  H
  C175     1.0000 0.24000  0.72149  0.51859  Biso   1.000  C
  C176     1.0000 0.98141  0.74000  0.27851  Biso   1.000  C
  N31      1.0000 0.20504  0.78645  0.02782  Biso   1.000  N
  C177     1.0000 0.20742  0.78940  0.93060  Biso   1.000  C
  H193     1.0000 0.27060  0.80339  0.98331  Biso   1.000  H
  C178     1.0000 0.25871  0.72161  0.88060  Biso   1.000  C
  H194     1.0000 0.30452  0.67331  0.93040  Biso   1.000  H
  H195     1.0000 0.32431  0.73351  0.93020  Biso   1.000  H
  N32      1.0000 0.47218  0.79496  0.28645  Biso   1.000  N
  C179     1.0000 0.56940  0.79258  0.28940  Biso   1.000  C
  H196     1.0000 0.51669  0.72940  0.30339  Biso   1.000  H
  C180     1.0000 0.61940  0.74129  0.22161  Biso   1.000  C
  H197     1.0000 0.56960  0.69548  0.17331  Biso   1.000  H
  H198     1.0000 0.56980  0.67569  0.23351  Biso   1.000  H
  C181     1.0000 0.26000  0.77851  0.51859  Biso   1.000  C
  C182     1.0000 0.20742  0.71060  0.56940  Biso   1.000  C
  H199     1.0000 0.27060  0.69661  0.51669  Biso   1.000  H
  C183     1.0000 0.98141  0.76000  0.22149  Biso   1.000  C
  C184     1.0000 0.93060  0.70742  0.28940  Biso   1.000  C
  H200     1.0000 0.98331  0.77060  0.30339  Biso   1.000  H
  C185     1.0000 0.21726  0.82149  0.06109  Biso   1.000  C
  C186     1.0000 0.24129  0.77839  0.88060  Biso   1.000  C
  H201     1.0000 0.19548  0.82669  0.93040  Biso   1.000  H
  H202     1.0000 0.17569  0.76649  0.93020  Biso   1.000  H
  H203     1.0000 0.27960  0.71411  0.84839  Biso   1.000  H
  H204     1.0000 0.22730  0.69819  0.88040  Biso   1.000  H
  C187     1.0000 0.43891  0.78274  0.32149  Biso   1.000  C
  C188     1.0000 0.61940  0.75871  0.27839  Biso   1.000  C
  H205     1.0000 0.56960  0.80452  0.32669  Biso   1.000  H
  H206     1.0000 0.56980  0.82431  0.26649  Biso   1.000  H
  H207     1.0000 0.65161  0.72040  0.21411  Biso   1.000  H
  H208     1.0000 0.61960  0.77270  0.19819  Biso   1.000  H
  N33      1.0000 0.29496  0.78645  0.47218  Biso   1.000  N
  C189     1.0000 0.29258  0.78940  0.56940  Biso   1.000  C
  H209     1.0000 0.22940  0.80339  0.51669  Biso   1.000  H
  C190     1.0000 0.24129  0.72161  0.61940  Biso   1.000  C
  H210     1.0000 0.19548  0.67331  0.56960  Biso   1.000  H
  H211     1.0000 0.17569  0.73351  0.56980  Biso   1.000  H
  N34      1.0000 0.02782  0.79496  0.21355  Biso   1.000  N
  C191     1.0000 0.93060  0.79258  0.21060  Biso   1.000  C
  H212     1.0000 0.98331  0.72940  0.19661  Biso   1.000  H
  C192     1.0000 0.88060  0.74129  0.27839  Biso   1.000  C
  H213     1.0000 0.93040  0.69548  0.32669  Biso   1.000  H
  H214     1.0000 0.93020  0.67569  0.26649  Biso   1.000  H
  C193     1.0000 0.18440  0.83452  0.10827  Biso   1.000  C
  H215     1.0000 0.24911  0.84060  0.05589  Biso   1.000  H
  H216     1.0000 0.22040  0.78589  0.84839  Biso   1.000  H
  H217     1.0000 0.27270  0.80181  0.88040  Biso   1.000  H
  C194     1.0000 0.39173  0.81560  0.33452  Biso   1.000  C
  H218     1.0000 0.44411  0.75089  0.34060  Biso   1.000  H
  H219     1.0000 0.65161  0.77960  0.28589  Biso   1.000  H
  H220     1.0000 0.61960  0.72730  0.30181  Biso   1.000  H
  C195     1.0000 0.28274  0.82149  0.43891  Biso   1.000  C
  C196     1.0000 0.25871  0.77839  0.61940  Biso   1.000  C
  H221     1.0000 0.30452  0.82669  0.56960  Biso   1.000  H
  H222     1.0000 0.32431  0.76649  0.56980  Biso   1.000  H
  H223     1.0000 0.22040  0.71411  0.65161  Biso   1.000  H
  H224     1.0000 0.27270  0.69819  0.61960  Biso   1.000  H
  C197     1.0000 0.06109  0.78274  0.17851  Biso   1.000  C
  C198     1.0000 0.88060  0.75871  0.22161  Biso   1.000  C
  H225     1.0000 0.93040  0.80452  0.17331  Biso   1.000  H
  H226     1.0000 0.93020  0.82431  0.23351  Biso   1.000  H
  H227     1.0000 0.84839  0.72040  0.28589  Biso   1.000  H
  H228     1.0000 0.88040  0.77270  0.30181  Biso   1.000  H
  C199     1.0000 0.13980  0.80367  0.12181  Biso   1.000  C
  C200     1.0000 0.19633  0.87819  0.13980  Biso   1.000  C
  C201     1.0000 0.36020  0.80367  0.37819  Biso   1.000  C
  C202     1.0000 0.37819  0.86020  0.30367  Biso   1.000  C
  C203     1.0000 0.31560  0.83452  0.39173  Biso   1.000  C
  H229     1.0000 0.25089  0.84060  0.44411  Biso   1.000  H
  H230     1.0000 0.27960  0.78589  0.65161  Biso   1.000  H
  H231     1.0000 0.22730  0.80181  0.61960  Biso   1.000  H
  C204     1.0000 0.10827  0.81560  0.16548  Biso   1.000  C
  H232     1.0000 0.05589  0.75089  0.15940  Biso   1.000  H
  H233     1.0000 0.84839  0.77960  0.21411  Biso   1.000  H
  H234     1.0000 0.88040  0.72730  0.19819  Biso   1.000  H
  H235     1.0000 0.13101  0.77399  0.10060  Biso   1.000  H
  C205     1.0000 0.16548  0.89173  0.18440  Biso   1.000  C
  H236     1.0000 0.22601  0.89940  0.13101  Biso   1.000  H
  H237     1.0000 0.36899  0.77399  0.39940  Biso   1.000  H
  C206     1.0000 0.33452  0.89173  0.31560  Biso   1.000  C
  H238     1.0000 0.39940  0.86899  0.27399  Biso   1.000  H
  C207     1.0000 0.30367  0.87819  0.36020  Biso   1.000  C
  C208     1.0000 0.12181  0.86020  0.19633  Biso   1.000  C
  C209     1.0000 0.17851  0.93891  0.21726  Biso   1.000  C
  C210     1.0000 0.32149  0.93891  0.28274  Biso   1.000  C
  H239     1.0000 0.27399  0.89940  0.36899  Biso   1.000  H
  H240     1.0000 0.10060  0.86899  0.22601  Biso   1.000  H
  N35      1.0000 0.21355  0.97218  0.20504  Biso   1.000  N
  H241     1.0000 0.15940  0.94411  0.24911  Biso   1.000  H
  N36      1.0000 0.28645  0.97218  0.29496  Biso   1.000  N
  H242     1.0000 0.34060  0.94411  0.25089  Biso   1.000  H
  C211     1.0000 0.22149  0.01859  0.24000  Biso   1.000  C
  C212     1.0000 0.27851  0.01859  0.26000  Biso   1.000  C
  C213     1.0000 0.21060  0.06940  0.20742  Biso   1.000  C
  H243     1.0000 0.19661  0.01669  0.27060  Biso   1.000  H
  C214     1.0000 0.28940  0.06940  0.29258  Biso   1.000  C
  H244     1.0000 0.30339  0.01669  0.22940  Biso   1.000  H
  C215     1.0000 0.22161  0.11940  0.24129  Biso   1.000  C
  H245     1.0000 0.17331  0.06960  0.19548  Biso   1.000  H
  H246     1.0000 0.23351  0.06980  0.17569  Biso   1.000  H
  C216     1.0000 0.27839  0.11940  0.25871  Biso   1.000  C
  H247     1.0000 0.32669  0.06960  0.30452  Biso   1.000  H
  H248     1.0000 0.26649  0.06980  0.32431  Biso   1.000  H
  H249     1.0000 0.21411  0.15161  0.22040  Biso   1.000  H
  H250     1.0000 0.19819  0.11960  0.27270  Biso   1.000  H
  H251     1.0000 0.28589  0.15161  0.27960  Biso   1.000  H
  H252     1.0000 0.30181  0.11960  0.22730  Biso   1.000  H
  C217     1.0000 0.24129  0.27839  0.38060  Biso   1.000  C
  C218     1.0000 0.25871  0.22161  0.38060  Biso   1.000  C
  C219     1.0000 0.20742  0.28940  0.43060  Biso   1.000  C
  H253     1.0000 0.22040  0.28589  0.34839  Biso   1.000  H
  H254     1.0000 0.27270  0.30181  0.38040  Biso   1.000  H
  C220     1.0000 0.29258  0.21060  0.43060  Biso   1.000  C
  H255     1.0000 0.27960  0.21411  0.34839  Biso   1.000  H
  H256     1.0000 0.22730  0.19819  0.38040  Biso   1.000  H
  C221     1.0000 0.24000  0.27851  0.48141  Biso   1.000  C
  H257     1.0000 0.19548  0.32669  0.43040  Biso   1.000  H
  H258     1.0000 0.17569  0.26649  0.43020  Biso   1.000  H
  C222     1.0000 0.26000  0.22149  0.48141  Biso   1.000  C
  H259     1.0000 0.30452  0.17331  0.43040  Biso   1.000  H
  H260     1.0000 0.32431  0.23351  0.43020  Biso   1.000  H
  N37      1.0000 0.20504  0.28645  0.52782  Biso   1.000  N
  H261     1.0000 0.27060  0.30339  0.48331  Biso   1.000  H
  N38      1.0000 0.29496  0.21355  0.52782  Biso   1.000  N
  H262     1.0000 0.22940  0.19661  0.48331  Biso   1.000  H
  C223     1.0000 0.21726  0.32149  0.56109  Biso   1.000  C
  C224     1.0000 0.28274  0.17851  0.56109  Biso   1.000  C
  C225     1.0000 0.18440  0.33452  0.60827  Biso   1.000  C
  H263     1.0000 0.24911  0.34060  0.55589  Biso   1.000  H
  C226     1.0000 0.31560  0.16548  0.60827  Biso   1.000  C
  H264     1.0000 0.25089  0.15940  0.55589  Biso   1.000  H
  C227     1.0000 0.13980  0.30367  0.62181  Biso   1.000  C
  C228     1.0000 0.19633  0.37819  0.63980  Biso   1.000  C
  C229     1.0000 0.36020  0.19633  0.62181  Biso   1.000  C
  C230     1.0000 0.30367  0.12181  0.63980  Biso   1.000  C
  C231     1.0000 0.10827  0.31560  0.66548  Biso   1.000  C
  H265     1.0000 0.13101  0.27399  0.60060  Biso   1.000  H
  C232     1.0000 0.16548  0.39173  0.68440  Biso   1.000  C
  H266     1.0000 0.22601  0.39940  0.63101  Biso   1.000  H
  C233     1.0000 0.39173  0.18440  0.66548  Biso   1.000  C
  H267     1.0000 0.36899  0.22601  0.60060  Biso   1.000  H
  C234     1.0000 0.33452  0.10827  0.68440  Biso   1.000  C
  H268     1.0000 0.27399  0.10060  0.63101  Biso   1.000  H
  C235     1.0000 0.12181  0.36020  0.69633  Biso   1.000  C
  C236     1.0000 0.06109  0.28274  0.67851  Biso   1.000  C
  C237     1.0000 0.17851  0.43891  0.71726  Biso   1.000  C
  C238     1.0000 0.37819  0.13980  0.69633  Biso   1.000  C
  C239     1.0000 0.43891  0.21726  0.67851  Biso   1.000  C
  C240     1.0000 0.32149  0.06109  0.71726  Biso   1.000  C
  H269     1.0000 0.10060  0.36899  0.72601  Biso   1.000  H
  N39      1.0000 0.02782  0.29496  0.71355  Biso   1.000  N
  H270     1.0000 0.05589  0.25089  0.65940  Biso   1.000  H
  N40      1.0000 0.21355  0.47218  0.70504  Biso   1.000  N
  H271     1.0000 0.15940  0.44411  0.74911  Biso   1.000  H
  H272     1.0000 0.39940  0.13101  0.72601  Biso   1.000  H
  N41      1.0000 0.47218  0.20504  0.71355  Biso   1.000  N
  H273     1.0000 0.44411  0.24911  0.65940  Biso   1.000  H
  N42      1.0000 0.28645  0.02782  0.70504  Biso   1.000  N
  H274     1.0000 0.34060  0.05589  0.74911  Biso   1.000  H
  C241     1.0000 0.98141  0.26000  0.72149  Biso   1.000  C
  C242     1.0000 0.22149  0.51859  0.74000  Biso   1.000  C
  C243     1.0000 0.51859  0.24000  0.72149  Biso   1.000  C
  C244     1.0000 0.27851  0.98141  0.74000  Biso   1.000  C
  C245     1.0000 0.98141  0.24000  0.77851  Biso   1.000  C
  C246     1.0000 0.93060  0.29258  0.71060  Biso   1.000  C
  H275     1.0000 0.98331  0.22940  0.69661  Biso   1.000  H
  C247     1.0000 0.27851  0.51859  0.76000  Biso   1.000  C
  C248     1.0000 0.21060  0.56940  0.70742  Biso   1.000  C
  H276     1.0000 0.19661  0.51669  0.77060  Biso   1.000  H
  C249     1.0000 0.51859  0.26000  0.77851  Biso   1.000  C
  C250     1.0000 0.56940  0.20742  0.71060  Biso   1.000  C
  H277     1.0000 0.51669  0.27060  0.69661  Biso   1.000  H
  C251     1.0000 0.22149  0.98141  0.76000  Biso   1.000  C
  C252     1.0000 0.28940  0.93060  0.70742  Biso   1.000  C
  H278     1.0000 0.30339  0.98331  0.77060  Biso   1.000  H
  N43      1.0000 0.02782  0.20504  0.78645  Biso   1.000  N
  C253     1.0000 0.93060  0.20742  0.78940  Biso   1.000  C
  H279     1.0000 0.98331  0.27060  0.80339  Biso   1.000  H
  C254     1.0000 0.88060  0.25871  0.72161  Biso   1.000  C
  H280     1.0000 0.93040  0.30452  0.67331  Biso   1.000  H
  H281     1.0000 0.93020  0.32431  0.73351  Biso   1.000  H
  N44      1.0000 0.28645  0.47218  0.79496  Biso   1.000  N
  C255     1.0000 0.28940  0.56940  0.79258  Biso   1.000  C
  H282     1.0000 0.30339  0.51669  0.72940  Biso   1.000  H
  C256     1.0000 0.22161  0.61940  0.74129  Biso   1.000  C
  H283     1.0000 0.17331  0.56960  0.69548  Biso   1.000  H
  H284     1.0000 0.23351  0.56980  0.67569  Biso   1.000  H
  N45      1.0000 0.47218  0.29496  0.78645  Biso   1.000  N
  C257     1.0000 0.56940  0.29258  0.78940  Biso   1.000  C
  H285     1.0000 0.51669  0.22940  0.80339  Biso   1.000  H
  C258     1.0000 0.61940  0.24129  0.72161  Biso   1.000  C
  H286     1.0000 0.56960  0.19548  0.67331  Biso   1.000  H
  H287     1.0000 0.56980  0.17569  0.73351  Biso   1.000  H
  N46      1.0000 0.21355  0.02782  0.79496  Biso   1.000  N
  C259     1.0000 0.21060  0.93060  0.79258  Biso   1.000  C
  H288     1.0000 0.19661  0.98331  0.72940  Biso   1.000  H
  C260     1.0000 0.27839  0.88060  0.74129  Biso   1.000  C
  H289     1.0000 0.32669  0.93040  0.69548  Biso   1.000  H
  H290     1.0000 0.26649  0.93020  0.67569  Biso   1.000  H
  C261     1.0000 0.06109  0.21726  0.82149  Biso   1.000  C
  C262     1.0000 0.88060  0.24129  0.77839  Biso   1.000  C
  H291     1.0000 0.93040  0.19548  0.82669  Biso   1.000  H
  H292     1.0000 0.93020  0.17569  0.76649  Biso   1.000  H
  H293     1.0000 0.84839  0.27960  0.71411  Biso   1.000  H
  H294     1.0000 0.88040  0.22730  0.69819  Biso   1.000  H
  C263     1.0000 0.32149  0.43891  0.78274  Biso   1.000  C
  C264     1.0000 0.27839  0.61940  0.75871  Biso   1.000  C
  H295     1.0000 0.32669  0.56960  0.80452  Biso   1.000  H
  H296     1.0000 0.26649  0.56980  0.82431  Biso   1.000  H
  H297     1.0000 0.21411  0.65161  0.72040  Biso   1.000  H
  H298     1.0000 0.19819  0.61960  0.77270  Biso   1.000  H
  C265     1.0000 0.43891  0.28274  0.82149  Biso   1.000  C
  C266     1.0000 0.61940  0.25871  0.77839  Biso   1.000  C
  H299     1.0000 0.56960  0.30452  0.82669  Biso   1.000  H
  H300     1.0000 0.56980  0.32431  0.76649  Biso   1.000  H
  H301     1.0000 0.65161  0.22040  0.71411  Biso   1.000  H
  H302     1.0000 0.61960  0.27270  0.69819  Biso   1.000  H
  C267     1.0000 0.17851  0.06109  0.78274  Biso   1.000  C
  C268     1.0000 0.22161  0.88060  0.75871  Biso   1.000  C
  H303     1.0000 0.17331  0.93040  0.80452  Biso   1.000  H
  H304     1.0000 0.23351  0.93020  0.82431  Biso   1.000  H
  H305     1.0000 0.28589  0.84839  0.72040  Biso   1.000  H
  H306     1.0000 0.30181  0.88040  0.77270  Biso   1.000  H
  C269     1.0000 0.10827  0.18440  0.83452  Biso   1.000  C
  H307     1.0000 0.05589  0.24911  0.84060  Biso   1.000  H
  H308     1.0000 0.84839  0.22040  0.78589  Biso   1.000  H
  H309     1.0000 0.88040  0.27270  0.80181  Biso   1.000  H
  C270     1.0000 0.33452  0.39173  0.81560  Biso   1.000  C
  H310     1.0000 0.34060  0.44411  0.75089  Biso   1.000  H
  H311     1.0000 0.28589  0.65161  0.77960  Biso   1.000  H
  H312     1.0000 0.30181  0.61960  0.72730  Biso   1.000  H
  C271     1.0000 0.39173  0.31560  0.83452  Biso   1.000  C
  H313     1.0000 0.44411  0.25089  0.84060  Biso   1.000  H
  H314     1.0000 0.65161  0.27960  0.78589  Biso   1.000  H
  H315     1.0000 0.61960  0.22730  0.80181  Biso   1.000  H
  C272     1.0000 0.16548  0.10827  0.81560  Biso   1.000  C
  H316     1.0000 0.15940  0.05589  0.75089  Biso   1.000  H
  H317     1.0000 0.21411  0.84839  0.77960  Biso   1.000  H
  H318     1.0000 0.19819  0.88040  0.72730  Biso   1.000  H
  C273     1.0000 0.12181  0.13980  0.80367  Biso   1.000  C
  C274     1.0000 0.13980  0.19633  0.87819  Biso   1.000  C
  C275     1.0000 0.37819  0.36020  0.80367  Biso   1.000  C
  C276     1.0000 0.30367  0.37819  0.86020  Biso   1.000  C
  C277     1.0000 0.36020  0.30367  0.87819  Biso   1.000  C
  C278     1.0000 0.19633  0.12181  0.86020  Biso   1.000  C
  H319     1.0000 0.10060  0.13101  0.77399  Biso   1.000  H
  C279     1.0000 0.18440  0.16548  0.89173  Biso   1.000  C
  H320     1.0000 0.13101  0.22601  0.89940  Biso   1.000  H
  H321     1.0000 0.39940  0.36899  0.77399  Biso   1.000  H
  C280     1.0000 0.31560  0.33452  0.89173  Biso   1.000  C
  H322     1.0000 0.27399  0.39940  0.86899  Biso   1.000  H
  H323     1.0000 0.36899  0.27399  0.89940  Biso   1.000  H
  H324     1.0000 0.22601  0.10060  0.86899  Biso   1.000  H
  C281     1.0000 0.21726  0.17851  0.93891  Biso   1.000  C
  C282     1.0000 0.28274  0.32149  0.93891  Biso   1.000  C
  N47      1.0000 0.20504  0.21355  0.97218  Biso   1.000  N
  H325     1.0000 0.24911  0.15940  0.94411  Biso   1.000  H
  N48      1.0000 0.29496  0.28645  0.97218  Biso   1.000  N
  H326     1.0000 0.25089  0.34060  0.94411  Biso   1.000  H
  C283     1.0000 0.24000  0.22149  0.01859  Biso   1.000  C
  C284     1.0000 0.26000  0.27851  0.01859  Biso   1.000  C
  C285     1.0000 0.20742  0.21060  0.06940  Biso   1.000  C
  H327     1.0000 0.27060  0.19661  0.01669  Biso   1.000  H
  C286     1.0000 0.29258  0.28940  0.06940  Biso   1.000  C
  H328     1.0000 0.22940  0.30339  0.01669  Biso   1.000  H
  C287     1.0000 0.24129  0.22161  0.11940  Biso   1.000  C
  H329     1.0000 0.19548  0.17331  0.06960  Biso   1.000  H
  H330     1.0000 0.17569  0.23351  0.06980  Biso   1.000  H
  C288     1.0000 0.25871  0.27839  0.11940  Biso   1.000  C
  H331     1.0000 0.30452  0.32669  0.06960  Biso   1.000  H
  H332     1.0000 0.32431  0.26649  0.06980  Biso   1.000  H
  H333     1.0000 0.22040  0.21411  0.15161  Biso   1.000  H
  H334     1.0000 0.27270  0.19819  0.11960  Biso   1.000  H
  H335     1.0000 0.27960  0.28589  0.15161  Biso   1.000  H
  H336     1.0000 0.22730  0.30181  0.11960  Biso   1.000  H
  C289     1.0000 0.46060  0.04258  0.31940  Biso   1.000  C
  C290     1.0000 0.47149  0.01000  0.26859  Biso   1.000  C
  C291     1.0000 0.47161  0.00871  0.36940  Biso   1.000  C
  H337     1.0000 0.42331  0.05452  0.31960  Biso   1.000  H
  H338     1.0000 0.48351  0.07431  0.31980  Biso   1.000  H
  N49      1.0000 0.46355  0.04496  0.22218  Biso   1.000  N
  C292     1.0000 0.52851  0.99000  0.26859  Biso   1.000  C
  H339     1.0000 0.44661  0.97940  0.26669  Biso   1.000  H
  H340     1.0000 0.46411  0.02960  0.40161  Biso   1.000  H
  C293     1.0000 0.52839  0.99129  0.36940  Biso   1.000  C
  H341     1.0000 0.44819  0.97730  0.36960  Biso   1.000  H
  C294     1.0000 0.42851  0.03274  0.18891  Biso   1.000  C
  H342     1.0000 0.55339  0.02060  0.26669  Biso   1.000  H
  N50      1.0000 0.53645  0.95504  0.22218  Biso   1.000  N
  C295     1.0000 0.53940  0.95742  0.31940  Biso   1.000  C
  H343     1.0000 0.55181  0.02270  0.36960  Biso   1.000  H
  H344     1.0000 0.53589  0.97040  0.40161  Biso   1.000  H
  C296     1.0000 0.41548  0.06560  0.14173  Biso   1.000  C
  H345     1.0000 0.40940  0.00089  0.19411  Biso   1.000  H
  C297     1.0000 0.57149  0.96726  0.18891  Biso   1.000  C
  H346     1.0000 0.57669  0.94548  0.31960  Biso   1.000  H
  H347     1.0000 0.51649  0.92569  0.31980  Biso   1.000  H
  C298     1.0000 0.44633  0.11020  0.12819  Biso   1.000  C
  C299     1.0000 0.37181  0.05367  0.11020  Biso   1.000  C
  C300     1.0000 0.58452  0.93440  0.14173  Biso   1.000  C
  H348     1.0000 0.59060  0.99911  0.19411  Biso   1.000  H
  C301     1.0000 0.43440  0.14173  0.08452  Biso   1.000  C
  H349     1.0000 0.47601  0.11899  0.14940  Biso   1.000  H
  C302     1.0000 0.35827  0.08452  0.06560  Biso   1.000  C
  H350     1.0000 0.35060  0.02399  0.11899  Biso   1.000  H
  C303     1.0000 0.62819  0.94633  0.11020  Biso   1.000  C
  C304     1.0000 0.55367  0.88980  0.12819  Biso   1.000  C
  C305     1.0000 0.38980  0.12819  0.05367  Biso   1.000  C
  C306     1.0000 0.46726  0.18891  0.07149  Biso   1.000  C
  C307     1.0000 0.31109  0.07149  0.03274  Biso   1.000  C
  C308     1.0000 0.64173  0.91548  0.06560  Biso   1.000  C
  H351     1.0000 0.64940  0.97601  0.11899  Biso   1.000  H
  C309     1.0000 0.56560  0.85827  0.08452  Biso   1.000  C
  H352     1.0000 0.52399  0.88101  0.14940  Biso   1.000  H
  H353     1.0000 0.38101  0.14940  0.02399  Biso   1.000  H
  N51      1.0000 0.45504  0.22218  0.03645  Biso   1.000  N
  H354     1.0000 0.49911  0.19411  0.09060  Biso   1.000  H
  N52      1.0000 0.27782  0.03645  0.04496  Biso   1.000  N
  H355     1.0000 0.30589  0.09060  0.00089  Biso   1.000  H
  C310     1.0000 0.61020  0.87181  0.05367  Biso   1.000  C
  C311     1.0000 0.68891  0.92851  0.03274  Biso   1.000  C
  C312     1.0000 0.53274  0.81109  0.07149  Biso   1.000  C
  C313     1.0000 0.49000  0.26859  0.02851  Biso   1.000  C
  C314     1.0000 0.23141  0.02851  0.01000  Biso   1.000  C
  H356     1.0000 0.61899  0.85060  0.02399  Biso   1.000  H
  N53      1.0000 0.72218  0.96355  0.04496  Biso   1.000  N
  H357     1.0000 0.69411  0.90940  0.00089  Biso   1.000  H
  N54      1.0000 0.54496  0.77782  0.03645  Biso   1.000  N
  H358     1.0000 0.50089  0.80589  0.09060  Biso   1.000  H
  C315     1.0000 0.45742  0.31940  0.03940  Biso   1.000  C
  H359     1.0000 0.52060  0.26669  0.05339  Biso   1.000  H
  C316     1.0000 0.51000  0.26859  0.97149  Biso   1.000  C
  C317     1.0000 0.18060  0.03940  0.04258  Biso   1.000  C
  C318     1.0000 0.23141  0.97149  0.99000  Biso   1.000  C
  H360     1.0000 0.23331  0.05339  0.97940  Biso   1.000  H
  C319     1.0000 0.76859  0.97149  0.01000  Biso   1.000  C
  C320     1.0000 0.51000  0.73141  0.02851  Biso   1.000  C
  C321     1.0000 0.49129  0.36940  0.02839  Biso   1.000  C
  H361     1.0000 0.44548  0.31960  0.07669  Biso   1.000  H
  H362     1.0000 0.42569  0.31980  0.01649  Biso   1.000  H
  N55      1.0000 0.54496  0.22218  0.96355  Biso   1.000  N
  C322     1.0000 0.54258  0.31940  0.96060  Biso   1.000  C
  H363     1.0000 0.47940  0.26669  0.94661  Biso   1.000  H
  C323     1.0000 0.13060  0.02839  0.00871  Biso   1.000  C
  H364     1.0000 0.18040  0.07669  0.05452  Biso   1.000  H
  H365     1.0000 0.18020  0.01649  0.07431  Biso   1.000  H
  N56      1.0000 0.27782  0.96355  0.95504  Biso   1.000  N
  C324     1.0000 0.18060  0.96060  0.95742  Biso   1.000  C
  H366     1.0000 0.23331  0.94661  0.02060  Biso   1.000  H
  C325     1.0000 0.76859  0.02851  0.99000  Biso   1.000  C
  H367     1.0000 0.76669  0.94661  0.97940  Biso   1.000  H
  C326     1.0000 0.81940  0.96060  0.04258  Biso   1.000  C
  C327     1.0000 0.49000  0.73141  0.97149  Biso   1.000  C
  C328     1.0000 0.54258  0.68060  0.03940  Biso   1.000  C
  H368     1.0000 0.47940  0.73331  0.05339  Biso   1.000  H
  H369     1.0000 0.47040  0.40161  0.03589  Biso   1.000  H
  H370     1.0000 0.52270  0.36960  0.05181  Biso   1.000  H
  C329     1.0000 0.50871  0.36940  0.97161  Biso   1.000  C
  C330     1.0000 0.53274  0.18891  0.92851  Biso   1.000  C
  H371     1.0000 0.55452  0.31960  0.92331  Biso   1.000  H
  H372     1.0000 0.57431  0.31980  0.98351  Biso   1.000  H
  H373     1.0000 0.09839  0.03589  0.02960  Biso   1.000  H
  C331     1.0000 0.13060  0.97161  0.99129  Biso   1.000  C
  H374     1.0000 0.13040  0.05181  0.97730  Biso   1.000  H
  C332     1.0000 0.31109  0.92851  0.96726  Biso   1.000  C
  H375     1.0000 0.18040  0.92331  0.94548  Biso   1.000  H
  H376     1.0000 0.18020  0.98351  0.92569  Biso   1.000  H
  N57      1.0000 0.72218  0.03645  0.95504  Biso   1.000  N
  H377     1.0000 0.76669  0.05339  0.02060  Biso   1.000  H
  C333     1.0000 0.81940  0.03940  0.95742  Biso   1.000  C
  C334     1.0000 0.86940  0.97161  0.00871  Biso   1.000  C
  H378     1.0000 0.81960  0.92331  0.05452  Biso   1.000  H
  H379     1.0000 0.81980  0.98351  0.07431  Biso   1.000  H
  N58      1.0000 0.45504  0.77782  0.96355  Biso   1.000  N
  C335     1.0000 0.45742  0.68060  0.96060  Biso   1.000  C
  H380     1.0000 0.52060  0.73331  0.94661  Biso   1.000  H
  C336     1.0000 0.50871  0.63060  0.02839  Biso   1.000  C
  H381     1.0000 0.55452  0.68040  0.07669  Biso   1.000  H
  H382     1.0000 0.57431  0.68020  0.01649  Biso   1.000  H
  H383     1.0000 0.52960  0.40161  0.96411  Biso   1.000  H
  H384     1.0000 0.47730  0.36960  0.94819  Biso   1.000  H
  C337     1.0000 0.56560  0.14173  0.91548  Biso   1.000  C
  H385     1.0000 0.50089  0.19411  0.90940  Biso   1.000  H
  H386     1.0000 0.09839  0.96411  0.97040  Biso   1.000  H
  H387     1.0000 0.13040  0.94819  0.02270  Biso   1.000  H
  C338     1.0000 0.35827  0.91548  0.93440  Biso   1.000  C
  H388     1.0000 0.30589  0.90940  0.99911  Biso   1.000  H
  C339     1.0000 0.68891  0.07149  0.96726  Biso   1.000  C
  C340     1.0000 0.86940  0.02839  0.99129  Biso   1.000  C
  H389     1.0000 0.81960  0.07669  0.94548  Biso   1.000  H
  H390     1.0000 0.81980  0.01649  0.92569  Biso   1.000  H
  H391     1.0000 0.86960  0.94819  0.97730  Biso   1.000  H
  H392     1.0000 0.90161  0.96411  0.02960  Biso   1.000  H
  C341     1.0000 0.46726  0.81109  0.92851  Biso   1.000  C
  C342     1.0000 0.49129  0.63060  0.97161  Biso   1.000  C
  H393     1.0000 0.44548  0.68040  0.92331  Biso   1.000  H
  H394     1.0000 0.42569  0.68020  0.98351  Biso   1.000  H
  H395     1.0000 0.52960  0.59839  0.03589  Biso   1.000  H
  H396     1.0000 0.47730  0.63040  0.05181  Biso   1.000  H
  C343     1.0000 0.55367  0.11020  0.87181  Biso   1.000  C
  C344     1.0000 0.61020  0.12819  0.94633  Biso   1.000  C
  C345     1.0000 0.37181  0.94633  0.88980  Biso   1.000  C
  C346     1.0000 0.38980  0.87181  0.94633  Biso   1.000  C
  C347     1.0000 0.64173  0.08452  0.93440  Biso   1.000  C
  H397     1.0000 0.69411  0.09060  0.99911  Biso   1.000  H
  H398     1.0000 0.86960  0.05181  0.02270  Biso   1.000  H
  H399     1.0000 0.90161  0.03589  0.97040  Biso   1.000  H
  C348     1.0000 0.43440  0.85827  0.91548  Biso   1.000  C
  H400     1.0000 0.49911  0.80589  0.90940  Biso   1.000  H
  H401     1.0000 0.47040  0.59839  0.96411  Biso   1.000  H
  H402     1.0000 0.52270  0.63040  0.94819  Biso   1.000  H
  C349     1.0000 0.58452  0.06560  0.85827  Biso   1.000  C
  H403     1.0000 0.52399  0.11899  0.85060  Biso   1.000  H
  H404     1.0000 0.61899  0.14940  0.97601  Biso   1.000  H
  C350     1.0000 0.41548  0.93440  0.85827  Biso   1.000  C
  H405     1.0000 0.35060  0.97601  0.88101  Biso   1.000  H
  H406     1.0000 0.38101  0.85060  0.97601  Biso   1.000  H
  C351     1.0000 0.62819  0.05367  0.88980  Biso   1.000  C
  C352     1.0000 0.44633  0.88980  0.87181  Biso   1.000  C
  C353     1.0000 0.57149  0.03274  0.81109  Biso   1.000  C
  C354     1.0000 0.42851  0.96726  0.81109  Biso   1.000  C
  H407     1.0000 0.64940  0.02399  0.88101  Biso   1.000  H
  H408     1.0000 0.47601  0.88101  0.85060  Biso   1.000  H
  N59      1.0000 0.53645  0.04496  0.77782  Biso   1.000  N
  H409     1.0000 0.59060  0.00089  0.80589  Biso   1.000  H
  N60      1.0000 0.46355  0.95504  0.77782  Biso   1.000  N
  H410     1.0000 0.40940  0.99911  0.80589  Biso   1.000  H
  C355     1.0000 0.52851  0.01000  0.73141  Biso   1.000  C
  C356     1.0000 0.47149  0.99000  0.73141  Biso   1.000  C
  H411     1.0000 0.55339  0.97940  0.73331  Biso   1.000  H
  C357     1.0000 0.53940  0.04258  0.68060  Biso   1.000  C
  C358     1.0000 0.46060  0.95742  0.68060  Biso   1.000  C
  H412     1.0000 0.44661  0.02060  0.73331  Biso   1.000  H
  C359     1.0000 0.52839  0.00871  0.63060  Biso   1.000  C
  H413     1.0000 0.57669  0.05452  0.68040  Biso   1.000  H
  H414     1.0000 0.51649  0.07431  0.68020  Biso   1.000  H
  C360     1.0000 0.47161  0.99129  0.63060  Biso   1.000  C
  H415     1.0000 0.42331  0.94548  0.68040  Biso   1.000  H
  H416     1.0000 0.48351  0.92569  0.68020  Biso   1.000  H
  H417     1.0000 0.55181  0.97730  0.63040  Biso   1.000  H
  H418     1.0000 0.53589  0.02960  0.59839  Biso   1.000  H
  H419     1.0000 0.46411  0.97040  0.59839  Biso   1.000  H
  H420     1.0000 0.44819  0.02270  0.63040  Biso   1.000  H
  C361     1.0000 0.31940  0.46060  0.04258  Biso   1.000  C
  C362     1.0000 0.26859  0.47149  0.01000  Biso   1.000  C
  C363     1.0000 0.36940  0.47161  0.00871  Biso   1.000  C
  H421     1.0000 0.31960  0.42331  0.05452  Biso   1.000  H
  H422     1.0000 0.31980  0.48351  0.07431  Biso   1.000  H
  N61      1.0000 0.22218  0.46355  0.04496  Biso   1.000  N
  C364     1.0000 0.26859  0.52851  0.99000  Biso   1.000  C
  H423     1.0000 0.26669  0.44661  0.97940  Biso   1.000  H
  H424     1.0000 0.40161  0.46411  0.02960  Biso   1.000  H
  C365     1.0000 0.36940  0.52839  0.99129  Biso   1.000  C
  H425     1.0000 0.36960  0.44819  0.97730  Biso   1.000  H
  C366     1.0000 0.18891  0.42851  0.03274  Biso   1.000  C
  H426     1.0000 0.26669  0.55339  0.02060  Biso   1.000  H
  N62      1.0000 0.22218  0.53645  0.95504  Biso   1.000  N
  C367     1.0000 0.31940  0.53940  0.95742  Biso   1.000  C
  H427     1.0000 0.36960  0.55181  0.02270  Biso   1.000  H
  H428     1.0000 0.40161  0.53589  0.97040  Biso   1.000  H
  C368     1.0000 0.14173  0.41548  0.06560  Biso   1.000  C
  H429     1.0000 0.19411  0.40940  0.00089  Biso   1.000  H
  C369     1.0000 0.18891  0.57149  0.96726  Biso   1.000  C
  H430     1.0000 0.31960  0.57669  0.94548  Biso   1.000  H
  H431     1.0000 0.31980  0.51649  0.92569  Biso   1.000  H
  C370     1.0000 0.11020  0.37181  0.05367  Biso   1.000  C
  C371     1.0000 0.12819  0.44633  0.11020  Biso   1.000  C
  C372     1.0000 0.14173  0.58452  0.93440  Biso   1.000  C
  H432     1.0000 0.19411  0.59060  0.99911  Biso   1.000  H
  C373     1.0000 0.06560  0.35827  0.08452  Biso   1.000  C
  H433     1.0000 0.11899  0.35060  0.02399  Biso   1.000  H
  C374     1.0000 0.08452  0.43440  0.14173  Biso   1.000  C
  H434     1.0000 0.14940  0.47601  0.11899  Biso   1.000  H
  C375     1.0000 0.11020  0.62819  0.94633  Biso   1.000  C
  C376     1.0000 0.12819  0.55367  0.88980  Biso   1.000  C
  C377     1.0000 0.05367  0.38980  0.12819  Biso   1.000  C
  C378     1.0000 0.03274  0.31109  0.07149  Biso   1.000  C
  C379     1.0000 0.07149  0.46726  0.18891  Biso   1.000  C
  C380     1.0000 0.06560  0.64173  0.91548  Biso   1.000  C
  H435     1.0000 0.11899  0.64940  0.97601  Biso   1.000  H
  C381     1.0000 0.08452  0.56560  0.85827  Biso   1.000  C
  H436     1.0000 0.14940  0.52399  0.88101  Biso   1.000  H
  H437     1.0000 0.02399  0.38101  0.14940  Biso   1.000  H
  N63      1.0000 0.04496  0.27782  0.03645  Biso   1.000  N
  H438     1.0000 0.00089  0.30589  0.09060  Biso   1.000  H
  N64      1.0000 0.03645  0.45504  0.22218  Biso   1.000  N
  H439     1.0000 0.09060  0.49911  0.19411  Biso   1.000  H
  C382     1.0000 0.05367  0.61020  0.87181  Biso   1.000  C
  C383     1.0000 0.03274  0.68891  0.92851  Biso   1.000  C
  C384     1.0000 0.07149  0.53274  0.81109  Biso   1.000  C
  C385     1.0000 0.01000  0.23141  0.02851  Biso   1.000  C
  C386     1.0000 0.02851  0.49000  0.26859  Biso   1.000  C
  H440     1.0000 0.02399  0.61899  0.85060  Biso   1.000  H
  N65      1.0000 0.04496  0.72218  0.96355  Biso   1.000  N
  H441     1.0000 0.00089  0.69411  0.90940  Biso   1.000  H
  N66      1.0000 0.03645  0.54496  0.77782  Biso   1.000  N
  H442     1.0000 0.09060  0.50089  0.80589  Biso   1.000  H
  C387     1.0000 0.04258  0.18060  0.03940  Biso   1.000  C
  C388     1.0000 0.99000  0.23141  0.97149  Biso   1.000  C
  H443     1.0000 0.97940  0.23331  0.05339  Biso   1.000  H
  C389     1.0000 0.03940  0.45742  0.31940  Biso   1.000  C
  H444     1.0000 0.05339  0.52060  0.26669  Biso   1.000  H
  C390     1.0000 0.97149  0.51000  0.26859  Biso   1.000  C
  C391     1.0000 0.01000  0.76859  0.97149  Biso   1.000  C
  C392     1.0000 0.02851  0.51000  0.73141  Biso   1.000  C
  C393     1.0000 0.00871  0.13060  0.02839  Biso   1.000  C
  H445     1.0000 0.05452  0.18040  0.07669  Biso   1.000  H
  H446     1.0000 0.07431  0.18020  0.01649  Biso   1.000  H
  N67      1.0000 0.95504  0.27782  0.96355  Biso   1.000  N
  C394     1.0000 0.95742  0.18060  0.96060  Biso   1.000  C
  H447     1.0000 0.02060  0.23331  0.94661  Biso   1.000  H
  C395     1.0000 0.02839  0.49129  0.36940  Biso   1.000  C
  H448     1.0000 0.07669  0.44548  0.31960  Biso   1.000  H
  H449     1.0000 0.01649  0.42569  0.31980  Biso   1.000  H
  N68      1.0000 0.96355  0.54496  0.22218  Biso   1.000  N
  C396     1.0000 0.96060  0.54258  0.31940  Biso   1.000  C
  H450     1.0000 0.94661  0.47940  0.26669  Biso   1.000  H
  H451     1.0000 0.97940  0.76669  0.94661  Biso   1.000  H
  C397     1.0000 0.99000  0.76859  0.02851  Biso   1.000  C
  C398     1.0000 0.04258  0.81940  0.96060  Biso   1.000  C
  C399     1.0000 0.97149  0.49000  0.73141  Biso   1.000  C
  C400     1.0000 0.03940  0.54258  0.68060  Biso   1.000  C
  H452     1.0000 0.05339  0.47940  0.73331  Biso   1.000  H
  H453     1.0000 0.02960  0.09839  0.03589  Biso   1.000  H
  C401     1.0000 0.99129  0.13060  0.97161  Biso   1.000  C
  H454     1.0000 0.97730  0.13040  0.05181  Biso   1.000  H
  C402     1.0000 0.96726  0.31109  0.92851  Biso   1.000  C
  H455     1.0000 0.94548  0.18040  0.92331  Biso   1.000  H
  H456     1.0000 0.92569  0.18020  0.98351  Biso   1.000  H
  H457     1.0000 0.03589  0.47040  0.40161  Biso   1.000  H
  H458     1.0000 0.05181  0.52270  0.36960  Biso   1.000  H
  C403     1.0000 0.97161  0.50871  0.36940  Biso   1.000  C
  C404     1.0000 0.92851  0.53274  0.18891  Biso   1.000  C
  H459     1.0000 0.92331  0.55452  0.31960  Biso   1.000  H
  H460     1.0000 0.98351  0.57431  0.31980  Biso   1.000  H
  N69      1.0000 0.95504  0.72218  0.03645  Biso   1.000  N
  H461     1.0000 0.02060  0.76669  0.05339  Biso   1.000  H
  C405     1.0000 0.95742  0.81940  0.03940  Biso   1.000  C
  C406     1.0000 0.00871  0.86940  0.97161  Biso   1.000  C
  H462     1.0000 0.05452  0.81960  0.92331  Biso   1.000  H
  H463     1.0000 0.07431  0.81980  0.98351  Biso   1.000  H
  N70      1.0000 0.96355  0.45504  0.77782  Biso   1.000  N
  C407     1.0000 0.96060  0.45742  0.68060  Biso   1.000  C
  H464     1.0000 0.94661  0.52060  0.73331  Biso   1.000  H
  C408     1.0000 0.02839  0.50871  0.63060  Biso   1.000  C
  H465     1.0000 0.07669  0.55452  0.68040  Biso   1.000  H
  H466     1.0000 0.01649  0.57431  0.68020  Biso   1.000  H
  H467     1.0000 0.97040  0.09839  0.96411  Biso   1.000  H
  H468     1.0000 0.02270  0.13040  0.94819  Biso   1.000  H
  C409     1.0000 0.93440  0.35827  0.91548  Biso   1.000  C
  H469     1.0000 0.99911  0.30589  0.90940  Biso   1.000  H
  H470     1.0000 0.96411  0.52960  0.40161  Biso   1.000  H
  H471     1.0000 0.94819  0.47730  0.36960  Biso   1.000  H
  C410     1.0000 0.91548  0.56560  0.14173  Biso   1.000  C
  H472     1.0000 0.90940  0.50089  0.19411  Biso   1.000  H
  C411     1.0000 0.96726  0.68891  0.07149  Biso   1.000  C
  C412     1.0000 0.99129  0.86940  0.02839  Biso   1.000  C
  H473     1.0000 0.94548  0.81960  0.07669  Biso   1.000  H
  H474     1.0000 0.92569  0.81980  0.01649  Biso   1.000  H
  H475     1.0000 0.97730  0.86960  0.94819  Biso   1.000  H
  H476     1.0000 0.02960  0.90161  0.96411  Biso   1.000  H
  C413     1.0000 0.92851  0.46726  0.81109  Biso   1.000  C
  C414     1.0000 0.97161  0.49129  0.63060  Biso   1.000  C
  H477     1.0000 0.92331  0.44548  0.68040  Biso   1.000  H
  H478     1.0000 0.98351  0.42569  0.68020  Biso   1.000  H
  H479     1.0000 0.03589  0.52960  0.59839  Biso   1.000  H
  H480     1.0000 0.05181  0.47730  0.63040  Biso   1.000  H
  C415     1.0000 0.94633  0.38980  0.87181  Biso   1.000  C
  C416     1.0000 0.88980  0.37181  0.94633  Biso   1.000  C
  C417     1.0000 0.94633  0.61020  0.12819  Biso   1.000  C
  C418     1.0000 0.87181  0.55367  0.11020  Biso   1.000  C
  C419     1.0000 0.93440  0.64173  0.08452  Biso   1.000  C
  H481     1.0000 0.99911  0.69411  0.09060  Biso   1.000  H
  H482     1.0000 0.02270  0.86960  0.05181  Biso   1.000  H
  H483     1.0000 0.97040  0.90161  0.03589  Biso   1.000  H
  C420     1.0000 0.91548  0.43440  0.85827  Biso   1.000  C
  H484     1.0000 0.90940  0.49911  0.80589  Biso   1.000  H
  H485     1.0000 0.96411  0.47040  0.59839  Biso   1.000  H
  H486     1.0000 0.94819  0.52270  0.63040  Biso   1.000  H
  H487     1.0000 0.97601  0.38101  0.85060  Biso   1.000  H
  C421     1.0000 0.85827  0.41548  0.93440  Biso   1.000  C
  H488     1.0000 0.88101  0.35060  0.97601  Biso   1.000  H
  H489     1.0000 0.97601  0.61899  0.14940  Biso   1.000  H
  C422     1.0000 0.85827  0.58452  0.06560  Biso   1.000  C
  H490     1.0000 0.85060  0.52399  0.11899  Biso   1.000  H
  C423     1.0000 0.88980  0.62819  0.05367  Biso   1.000  C
  C424     1.0000 0.87181  0.44633  0.88980  Biso   1.000  C
  C425     1.0000 0.81109  0.42851  0.96726  Biso   1.000  C
  C426     1.0000 0.81109  0.57149  0.03274  Biso   1.000  C
  H491     1.0000 0.88101  0.64940  0.02399  Biso   1.000  H
  H492     1.0000 0.85060  0.47601  0.88101  Biso   1.000  H
  N71      1.0000 0.77782  0.46355  0.95504  Biso   1.000  N
  H493     1.0000 0.80589  0.40940  0.99911  Biso   1.000  H
  N72      1.0000 0.77782  0.53645  0.04496  Biso   1.000  N
  H494     1.0000 0.80589  0.59060  0.00089  Biso   1.000  H
  C427     1.0000 0.73141  0.47149  0.99000  Biso   1.000  C
  C428     1.0000 0.73141  0.52851  0.01000  Biso   1.000  C
  C429     1.0000 0.68060  0.46060  0.95742  Biso   1.000  C
  H495     1.0000 0.73331  0.44661  0.02060  Biso   1.000  H
  H496     1.0000 0.73331  0.55339  0.97940  Biso   1.000  H
  C430     1.0000 0.68060  0.53940  0.04258  Biso   1.000  C
  C431     1.0000 0.63060  0.47161  0.99129  Biso   1.000  C
  H497     1.0000 0.68040  0.42331  0.94548  Biso   1.000  H
  H498     1.0000 0.68020  0.48351  0.92569  Biso   1.000  H
  C432     1.0000 0.63060  0.52839  0.00871  Biso   1.000  C
  H499     1.0000 0.68040  0.57669  0.05452  Biso   1.000  H
  H500     1.0000 0.68020  0.51649  0.07431  Biso   1.000  H
  H501     1.0000 0.59839  0.46411  0.97040  Biso   1.000  H
  H502     1.0000 0.63040  0.44819  0.02270  Biso   1.000  H
  H503     1.0000 0.63040  0.55181  0.97730  Biso   1.000  H
  H504     1.0000 0.59839  0.53589  0.02960  Biso   1.000  H
  C433     1.0000 0.04258  0.31940  0.46060  Biso   1.000  C
  C434     1.0000 0.01000  0.26859  0.47149  Biso   1.000  C
  C435     1.0000 0.00871  0.36940  0.47161  Biso   1.000  C
  H505     1.0000 0.05452  0.31960  0.42331  Biso   1.000  H
  H506     1.0000 0.07431  0.31980  0.48351  Biso   1.000  H
  N73      1.0000 0.04496  0.22218  0.46355  Biso   1.000  N
  C436     1.0000 0.99000  0.26859  0.52851  Biso   1.000  C
  H507     1.0000 0.97940  0.26669  0.44661  Biso   1.000  H
  H508     1.0000 0.02960  0.40161  0.46411  Biso   1.000  H
  C437     1.0000 0.99129  0.36940  0.52839  Biso   1.000  C
  H509     1.0000 0.97730  0.36960  0.44819  Biso   1.000  H
  C438     1.0000 0.03274  0.18891  0.42851  Biso   1.000  C
  H510     1.0000 0.02060  0.26669  0.55339  Biso   1.000  H
  N74      1.0000 0.95504  0.22218  0.53645  Biso   1.000  N
  C439     1.0000 0.95742  0.31940  0.53940  Biso   1.000  C
  H511     1.0000 0.02270  0.36960  0.55181  Biso   1.000  H
  H512     1.0000 0.97040  0.40161  0.53589  Biso   1.000  H
  C440     1.0000 0.06560  0.14173  0.41548  Biso   1.000  C
  H513     1.0000 0.00089  0.19411  0.40940  Biso   1.000  H
  C441     1.0000 0.96726  0.18891  0.57149  Biso   1.000  C
  H514     1.0000 0.94548  0.31960  0.57669  Biso   1.000  H
  H515     1.0000 0.92569  0.31980  0.51649  Biso   1.000  H
  C442     1.0000 0.11020  0.12819  0.44633  Biso   1.000  C
  C443     1.0000 0.05367  0.11020  0.37181  Biso   1.000  C
  C444     1.0000 0.93440  0.14173  0.58452  Biso   1.000  C
  H516     1.0000 0.99911  0.19411  0.59060  Biso   1.000  H
  C445     1.0000 0.14173  0.08452  0.43440  Biso   1.000  C
  H517     1.0000 0.11899  0.14940  0.47601  Biso   1.000  H
  C446     1.0000 0.08452  0.06560  0.35827  Biso   1.000  C
  H518     1.0000 0.02399  0.11899  0.35060  Biso   1.000  H
  C447     1.0000 0.94633  0.11020  0.62819  Biso   1.000  C
  C448     1.0000 0.88980  0.12819  0.55367  Biso   1.000  C
  C449     1.0000 0.12819  0.05367  0.38980  Biso   1.000  C
  C450     1.0000 0.18891  0.07149  0.46726  Biso   1.000  C
  C451     1.0000 0.07149  0.03274  0.31109  Biso   1.000  C
  C452     1.0000 0.91548  0.06560  0.64173  Biso   1.000  C
  H519     1.0000 0.97601  0.11899  0.64940  Biso   1.000  H
  C453     1.0000 0.85827  0.08452  0.56560  Biso   1.000  C
  H520     1.0000 0.88101  0.14940  0.52399  Biso   1.000  H
  H521     1.0000 0.14940  0.02399  0.38101  Biso   1.000  H
  N75      1.0000 0.22218  0.03645  0.45504  Biso   1.000  N
  H522     1.0000 0.19411  0.09060  0.49911  Biso   1.000  H
  N76      1.0000 0.03645  0.04496  0.27782  Biso   1.000  N
  H523     1.0000 0.09060  0.00089  0.30589  Biso   1.000  H
  C454     1.0000 0.87181  0.05367  0.61020  Biso   1.000  C
  C455     1.0000 0.92851  0.03274  0.68891  Biso   1.000  C
  C456     1.0000 0.81109  0.07149  0.53274  Biso   1.000  C
  C457     1.0000 0.26859  0.02851  0.49000  Biso   1.000  C
  C458     1.0000 0.02851  0.01000  0.23141  Biso   1.000  C
  H524     1.0000 0.85060  0.02399  0.61899  Biso   1.000  H
  N77      1.0000 0.96355  0.04496  0.72218  Biso   1.000  N
  H525     1.0000 0.90940  0.00089  0.69411  Biso   1.000  H
  N78      1.0000 0.77782  0.03645  0.54496  Biso   1.000  N
  H526     1.0000 0.80589  0.09060  0.50089  Biso   1.000  H
  C459     1.0000 0.31940  0.03940  0.45742  Biso   1.000  C
  H527     1.0000 0.26669  0.05339  0.52060  Biso   1.000  H
  C460     1.0000 0.26859  0.97149  0.51000  Biso   1.000  C
  C461     1.0000 0.03940  0.04258  0.18060  Biso   1.000  C
  C462     1.0000 0.97149  0.99000  0.23141  Biso   1.000  C
  H528     1.0000 0.05339  0.97940  0.23331  Biso   1.000  H
  C463     1.0000 0.97149  0.01000  0.76859  Biso   1.000  C
  C464     1.0000 0.73141  0.02851  0.51000  Biso   1.000  C
  C465     1.0000 0.36940  0.02839  0.49129  Biso   1.000  C
  H529     1.0000 0.31960  0.07669  0.44548  Biso   1.000  H
  H530     1.0000 0.31980  0.01649  0.42569  Biso   1.000  H
  N79      1.0000 0.22218  0.96355  0.54496  Biso   1.000  N
  C466     1.0000 0.31940  0.96060  0.54258  Biso   1.000  C
  H531     1.0000 0.26669  0.94661  0.47940  Biso   1.000  H
  C467     1.0000 0.02839  0.00871  0.13060  Biso   1.000  C
  H532     1.0000 0.07669  0.05452  0.18040  Biso   1.000  H
  H533     1.0000 0.01649  0.07431  0.18020  Biso   1.000  H
  N80      1.0000 0.96355  0.95504  0.27782  Biso   1.000  N
  C468     1.0000 0.96060  0.95742  0.18060  Biso   1.000  C
  H534     1.0000 0.94661  0.02060  0.23331  Biso   1.000  H
  C469     1.0000 0.02851  0.99000  0.76859  Biso   1.000  C
  H535     1.0000 0.94661  0.97940  0.76669  Biso   1.000  H
  C470     1.0000 0.96060  0.04258  0.81940  Biso   1.000  C
  C471     1.0000 0.73141  0.97149  0.49000  Biso   1.000  C
  C472     1.0000 0.68060  0.03940  0.54258  Biso   1.000  C
  H536     1.0000 0.73331  0.05339  0.47940  Biso   1.000  H
  H537     1.0000 0.40161  0.03589  0.47040  Biso   1.000  H
  H538     1.0000 0.36960  0.05181  0.52270  Biso   1.000  H
  C473     1.0000 0.36940  0.97161  0.50871  Biso   1.000  C
  C474     1.0000 0.18891  0.92851  0.53274  Biso   1.000  C
  H539     1.0000 0.31960  0.92331  0.55452  Biso   1.000  H
  H540     1.0000 0.31980  0.98351  0.57431  Biso   1.000  H
  H541     1.0000 0.03589  0.02960  0.09839  Biso   1.000  H
  C475     1.0000 0.97161  0.99129  0.13060  Biso   1.000  C
  H542     1.0000 0.05181  0.97730  0.13040  Biso   1.000  H
  C476     1.0000 0.92851  0.96726  0.31109  Biso   1.000  C
  H543     1.0000 0.92331  0.94548  0.18040  Biso   1.000  H
  H544     1.0000 0.98351  0.92569  0.18020  Biso   1.000  H
  N81      1.0000 0.03645  0.95504  0.72218  Biso   1.000  N
  H545     1.0000 0.05339  0.02060  0.76669  Biso   1.000  H
  C477     1.0000 0.03940  0.95742  0.81940  Biso   1.000  C
  C478     1.0000 0.97161  0.00871  0.86940  Biso   1.000  C
  H546     1.0000 0.92331  0.05452  0.81960  Biso   1.000  H
  H547     1.0000 0.98351  0.07431  0.81980  Biso   1.000  H
  N82      1.0000 0.77782  0.96355  0.45504  Biso   1.000  N
  C479     1.0000 0.68060  0.96060  0.45742  Biso   1.000  C
  H548     1.0000 0.73331  0.94661  0.52060  Biso   1.000  H
  C480     1.0000 0.63060  0.02839  0.50871  Biso   1.000  C
  H549     1.0000 0.68040  0.07669  0.55452  Biso   1.000  H
  H550     1.0000 0.68020  0.01649  0.57431  Biso   1.000  H
  H551     1.0000 0.40161  0.96411  0.52960  Biso   1.000  H
  H552     1.0000 0.36960  0.94819  0.47730  Biso   1.000  H
  C481     1.0000 0.14173  0.91548  0.56560  Biso   1.000  C
  H553     1.0000 0.19411  0.90940  0.50089  Biso   1.000  H
  H554     1.0000 0.96411  0.97040  0.09839  Biso   1.000  H
  H555     1.0000 0.94819  0.02270  0.13040  Biso   1.000  H
  C482     1.0000 0.91548  0.93440  0.35827  Biso   1.000  C
  H556     1.0000 0.90940  0.99911  0.30589  Biso   1.000  H
  C483     1.0000 0.07149  0.96726  0.68891  Biso   1.000  C
  C484     1.0000 0.02839  0.99129  0.86940  Biso   1.000  C
  H557     1.0000 0.07669  0.94548  0.81960  Biso   1.000  H
  H558     1.0000 0.01649  0.92569  0.81980  Biso   1.000  H
  H559     1.0000 0.94819  0.97730  0.86960  Biso   1.000  H
  H560     1.0000 0.96411  0.02960  0.90161  Biso   1.000  H
  C485     1.0000 0.81109  0.92851  0.46726  Biso   1.000  C
  C486     1.0000 0.63060  0.97161  0.49129  Biso   1.000  C
  H561     1.0000 0.68040  0.92331  0.44548  Biso   1.000  H
  H562     1.0000 0.68020  0.98351  0.42569  Biso   1.000  H
  H563     1.0000 0.59839  0.03589  0.52960  Biso   1.000  H
  H564     1.0000 0.63040  0.05181  0.47730  Biso   1.000  H
  C487     1.0000 0.11020  0.87181  0.55367  Biso   1.000  C
  C488     1.0000 0.12819  0.94633  0.61020  Biso   1.000  C
  C489     1.0000 0.94633  0.88980  0.37181  Biso   1.000  C
  C490     1.0000 0.87181  0.94633  0.38980  Biso   1.000  C
  C491     1.0000 0.08452  0.93440  0.64173  Biso   1.000  C
  H565     1.0000 0.09060  0.99911  0.69411  Biso   1.000  H
  H566     1.0000 0.05181  0.02270  0.86960  Biso   1.000  H
  H567     1.0000 0.03589  0.97040  0.90161  Biso   1.000  H
  C492     1.0000 0.85827  0.91548  0.43440  Biso   1.000  C
  H568     1.0000 0.80589  0.90940  0.49911  Biso   1.000  H
  H569     1.0000 0.59839  0.96411  0.47040  Biso   1.000  H
  H570     1.0000 0.63040  0.94819  0.52270  Biso   1.000  H
  C493     1.0000 0.06560  0.85827  0.58452  Biso   1.000  C
  H571     1.0000 0.11899  0.85060  0.52399  Biso   1.000  H
  H572     1.0000 0.14940  0.97601  0.61899  Biso   1.000  H
  C494     1.0000 0.93440  0.85827  0.41548  Biso   1.000  C
  H573     1.0000 0.97601  0.88101  0.35060  Biso   1.000  H
  H574     1.0000 0.85060  0.97601  0.38101  Biso   1.000  H
  C495     1.0000 0.05367  0.88980  0.62819  Biso   1.000  C
  C496     1.0000 0.88980  0.87181  0.44633  Biso   1.000  C
  C497     1.0000 0.03274  0.81109  0.57149  Biso   1.000  C
  C498     1.0000 0.96726  0.81109  0.42851  Biso   1.000  C
  H575     1.0000 0.02399  0.88101  0.64940  Biso   1.000  H
  H576     1.0000 0.88101  0.85060  0.47601  Biso   1.000  H
  N83      1.0000 0.04496  0.77782  0.53645  Biso   1.000  N
  H577     1.0000 0.00089  0.80589  0.59060  Biso   1.000  H
  N84      1.0000 0.95504  0.77782  0.46355  Biso   1.000  N
  H578     1.0000 0.99911  0.80589  0.40940  Biso   1.000  H
  C499     1.0000 0.01000  0.73141  0.52851  Biso   1.000  C
  C500     1.0000 0.99000  0.73141  0.47149  Biso   1.000  C
  H579     1.0000 0.97940  0.73331  0.55339  Biso   1.000  H
  C501     1.0000 0.04258  0.68060  0.53940  Biso   1.000  C
  C502     1.0000 0.95742  0.68060  0.46060  Biso   1.000  C
  H580     1.0000 0.02060  0.73331  0.44661  Biso   1.000  H
  C503     1.0000 0.00871  0.63060  0.52839  Biso   1.000  C
  H581     1.0000 0.05452  0.68040  0.57669  Biso   1.000  H
  H582     1.0000 0.07431  0.68020  0.51649  Biso   1.000  H
  C504     1.0000 0.99129  0.63060  0.47161  Biso   1.000  C
  H583     1.0000 0.94548  0.68040  0.42331  Biso   1.000  H
  H584     1.0000 0.92569  0.68020  0.48351  Biso   1.000  H
  H585     1.0000 0.97730  0.63040  0.55181  Biso   1.000  H
  H586     1.0000 0.02960  0.59839  0.53589  Biso   1.000  H
  H587     1.0000 0.97040  0.59839  0.46411  Biso   1.000  H
  H588     1.0000 0.02270  0.63040  0.44819  Biso   1.000  H
  C505     1.0000 0.75871  0.72161  0.38060  Biso   1.000  C
  C506     1.0000 0.79258  0.71060  0.43060  Biso   1.000  C
  C507     1.0000 0.74129  0.77839  0.38060  Biso   1.000  C
  H589     1.0000 0.77960  0.71411  0.34839  Biso   1.000  H
  H590     1.0000 0.72730  0.69819  0.38040  Biso   1.000  H
  C508     1.0000 0.76000  0.72149  0.48141  Biso   1.000  C
  H591     1.0000 0.80452  0.67331  0.43040  Biso   1.000  H
  H592     1.0000 0.82431  0.73351  0.43020  Biso   1.000  H
  C509     1.0000 0.70742  0.78940  0.43060  Biso   1.000  C
  H593     1.0000 0.72040  0.78589  0.34839  Biso   1.000  H
  H594     1.0000 0.77270  0.80181  0.38040  Biso   1.000  H
  N85      1.0000 0.79496  0.71355  0.52782  Biso   1.000  N
  C510     1.0000 0.74000  0.77851  0.48141  Biso   1.000  C
  H595     1.0000 0.72940  0.69661  0.48331  Biso   1.000  H
  H596     1.0000 0.69548  0.82669  0.43040  Biso   1.000  H
  H597     1.0000 0.67569  0.76649  0.43020  Biso   1.000  H
  C511     1.0000 0.78274  0.67851  0.56109  Biso   1.000  C
  N86      1.0000 0.70504  0.78645  0.52782  Biso   1.000  N
  H598     1.0000 0.77060  0.80339  0.48331  Biso   1.000  H
  C512     1.0000 0.81560  0.66548  0.60827  Biso   1.000  C
  H599     1.0000 0.75089  0.65940  0.55589  Biso   1.000  H
  C513     1.0000 0.71726  0.82149  0.56109  Biso   1.000  C
  C514     1.0000 0.86020  0.69633  0.62181  Biso   1.000  C
  C515     1.0000 0.80367  0.62181  0.63980  Biso   1.000  C
  C516     1.0000 0.68440  0.83452  0.60827  Biso   1.000  C
  H600     1.0000 0.74911  0.84060  0.55589  Biso   1.000  H
  C517     1.0000 0.89173  0.68440  0.66548  Biso   1.000  C
  H601     1.0000 0.86899  0.72601  0.60060  Biso   1.000  H
  C518     1.0000 0.83452  0.60827  0.68440  Biso   1.000  C
  H602     1.0000 0.77399  0.60060  0.63101  Biso   1.000  H
  C519     1.0000 0.63980  0.80367  0.62181  Biso   1.000  C
  C520     1.0000 0.69633  0.87819  0.63980  Biso   1.000  C
  C521     1.0000 0.87819  0.63980  0.69633  Biso   1.000  C
  C522     1.0000 0.93891  0.71726  0.67851  Biso   1.000  C
  C523     1.0000 0.82149  0.56109  0.71726  Biso   1.000  C
  C524     1.0000 0.60827  0.81560  0.66548  Biso   1.000  C
  H603     1.0000 0.63101  0.77399  0.60060  Biso   1.000  H
  C525     1.0000 0.66548  0.89173  0.68440  Biso   1.000  C
  H604     1.0000 0.72601  0.89940  0.63101  Biso   1.000  H
  H605     1.0000 0.89940  0.63101  0.72601  Biso   1.000  H
  N87      1.0000 0.97218  0.70504  0.71355  Biso   1.000  N
  H606     1.0000 0.94411  0.74911  0.65940  Biso   1.000  H
  N88      1.0000 0.78645  0.52782  0.70504  Biso   1.000  N
  H607     1.0000 0.84060  0.55589  0.74911  Biso   1.000  H
  C526     1.0000 0.62181  0.86020  0.69633  Biso   1.000  C
  C527     1.0000 0.56109  0.78274  0.67851  Biso   1.000  C
  C528     1.0000 0.67851  0.93891  0.71726  Biso   1.000  C
  C529     1.0000 0.01859  0.74000  0.72149  Biso   1.000  C
  C530     1.0000 0.77851  0.48141  0.74000  Biso   1.000  C
  H608     1.0000 0.60060  0.86899  0.72601  Biso   1.000  H
  N89      1.0000 0.52782  0.79496  0.71355  Biso   1.000  N
  H609     1.0000 0.55589  0.75089  0.65940  Biso   1.000  H
  N90      1.0000 0.71355  0.97218  0.70504  Biso   1.000  N
  H610     1.0000 0.65940  0.94411  0.74911  Biso   1.000  H
  C531     1.0000 0.01859  0.76000  0.77851  Biso   1.000  C
  C532     1.0000 0.06940  0.70742  0.71060  Biso   1.000  C
  H611     1.0000 0.01669  0.77060  0.69661  Biso   1.000  H
  C533     1.0000 0.72149  0.48141  0.76000  Biso   1.000  C
  C534     1.0000 0.78940  0.43060  0.70742  Biso   1.000  C
  H612     1.0000 0.80339  0.48331  0.77060  Biso   1.000  H
  C535     1.0000 0.48141  0.76000  0.72149  Biso   1.000  C
  C536     1.0000 0.72149  0.01859  0.74000  Biso   1.000  C
  N91      1.0000 0.97218  0.79496  0.78645  Biso   1.000  N
  C537     1.0000 0.06940  0.79258  0.78940  Biso   1.000  C
  H613     1.0000 0.01669  0.72940  0.80339  Biso   1.000  H
  C538     1.0000 0.11940  0.74129  0.72161  Biso   1.000  C
  H614     1.0000 0.06960  0.69548  0.67331  Biso   1.000  H
  H615     1.0000 0.06980  0.67569  0.73351  Biso   1.000  H
  N92      1.0000 0.71355  0.52782  0.79496  Biso   1.000  N
  C539     1.0000 0.71060  0.43060  0.79258  Biso   1.000  C
  H616     1.0000 0.69661  0.48331  0.72940  Biso   1.000  H
  C540     1.0000 0.77839  0.38060  0.74129  Biso   1.000  C
  H617     1.0000 0.82669  0.43040  0.69548  Biso   1.000  H
  H618     1.0000 0.76649  0.43020  0.67569  Biso   1.000  H
  C541     1.0000 0.48141  0.74000  0.77851  Biso   1.000  C
  C542     1.0000 0.43060  0.79258  0.71060  Biso   1.000  C
  H619     1.0000 0.48331  0.72940  0.69661  Biso   1.000  H
  C543     1.0000 0.77851  0.01859  0.76000  Biso   1.000  C
  C544     1.0000 0.71060  0.06940  0.70742  Biso   1.000  C
  H620     1.0000 0.69661  0.01669  0.77060  Biso   1.000  H
  C545     1.0000 0.93891  0.78274  0.82149  Biso   1.000  C
  C546     1.0000 0.11940  0.75871  0.77839  Biso   1.000  C
  H621     1.0000 0.06960  0.80452  0.82669  Biso   1.000  H
  H622     1.0000 0.06980  0.82431  0.76649  Biso   1.000  H
  H623     1.0000 0.15161  0.72040  0.71411  Biso   1.000  H
  H624     1.0000 0.11960  0.77270  0.69819  Biso   1.000  H
  C547     1.0000 0.67851  0.56109  0.78274  Biso   1.000  C
  C548     1.0000 0.72161  0.38060  0.75871  Biso   1.000  C
  H625     1.0000 0.67331  0.43040  0.80452  Biso   1.000  H
  H626     1.0000 0.73351  0.43020  0.82431  Biso   1.000  H
  H627     1.0000 0.78589  0.34839  0.72040  Biso   1.000  H
  H628     1.0000 0.80181  0.38040  0.77270  Biso   1.000  H
  N93      1.0000 0.52782  0.70504  0.78645  Biso   1.000  N
  C549     1.0000 0.43060  0.70742  0.78940  Biso   1.000  C
  H629     1.0000 0.48331  0.77060  0.80339  Biso   1.000  H
  C550     1.0000 0.38060  0.75871  0.72161  Biso   1.000  C
  H630     1.0000 0.43040  0.80452  0.67331  Biso   1.000  H
  H631     1.0000 0.43020  0.82431  0.73351  Biso   1.000  H
  N94      1.0000 0.78645  0.97218  0.79496  Biso   1.000  N
  C551     1.0000 0.78940  0.06940  0.79258  Biso   1.000  C
  H632     1.0000 0.80339  0.01669  0.72940  Biso   1.000  H
  C552     1.0000 0.72161  0.11940  0.74129  Biso   1.000  C
  H633     1.0000 0.67331  0.06960  0.69548  Biso   1.000  H
  H634     1.0000 0.73351  0.06980  0.67569  Biso   1.000  H
  C553     1.0000 0.89173  0.81560  0.83452  Biso   1.000  C
  H635     1.0000 0.94411  0.75089  0.84060  Biso   1.000  H
  H636     1.0000 0.15161  0.77960  0.78589  Biso   1.000  H
  H637     1.0000 0.11960  0.72730  0.80181  Biso   1.000  H
  C554     1.0000 0.66548  0.60827  0.81560  Biso   1.000  C
  H638     1.0000 0.65940  0.55589  0.75089  Biso   1.000  H
  H639     1.0000 0.71411  0.34839  0.77960  Biso   1.000  H
  H640     1.0000 0.69819  0.38040  0.72730  Biso   1.000  H
  C555     1.0000 0.56109  0.71726  0.82149  Biso   1.000  C
  C556     1.0000 0.38060  0.74129  0.77839  Biso   1.000  C
  H641     1.0000 0.43040  0.69548  0.82669  Biso   1.000  H
  H642     1.0000 0.43020  0.67569  0.76649  Biso   1.000  H
  H643     1.0000 0.34839  0.77960  0.71411  Biso   1.000  H
  H644     1.0000 0.38040  0.72730  0.69819  Biso   1.000  H
  C557     1.0000 0.82149  0.93891  0.78274  Biso   1.000  C
  C558     1.0000 0.77839  0.11940  0.75871  Biso   1.000  C
  H645     1.0000 0.82669  0.06960  0.80452  Biso   1.000  H
  H646     1.0000 0.76649  0.06980  0.82431  Biso   1.000  H
  H647     1.0000 0.71411  0.15161  0.72040  Biso   1.000  H
  H648     1.0000 0.69819  0.11960  0.77270  Biso   1.000  H
  C559     1.0000 0.86020  0.80367  0.87819  Biso   1.000  C
  C560     1.0000 0.87819  0.86020  0.80367  Biso   1.000  C
  C561     1.0000 0.69633  0.62181  0.86020  Biso   1.000  C
  C562     1.0000 0.62181  0.63980  0.80367  Biso   1.000  C
  C563     1.0000 0.60827  0.68440  0.83452  Biso   1.000  C
  H649     1.0000 0.55589  0.74911  0.84060  Biso   1.000  H
  H650     1.0000 0.34839  0.72040  0.78589  Biso   1.000  H
  H651     1.0000 0.38040  0.77270  0.80181  Biso   1.000  H
  C564     1.0000 0.83452  0.89173  0.81560  Biso   1.000  C
  H652     1.0000 0.84060  0.94411  0.75089  Biso   1.000  H
  H653     1.0000 0.78589  0.15161  0.77960  Biso   1.000  H
  H654     1.0000 0.80181  0.11960  0.72730  Biso   1.000  H
  C565     1.0000 0.81560  0.83452  0.89173  Biso   1.000  C
  H655     1.0000 0.86899  0.77399  0.89940  Biso   1.000  H
  H656     1.0000 0.89940  0.86899  0.77399  Biso   1.000  H
  C566     1.0000 0.68440  0.66548  0.89173  Biso   1.000  C
  H657     1.0000 0.72601  0.60060  0.86899  Biso   1.000  H
  H658     1.0000 0.60060  0.63101  0.77399  Biso   1.000  H
  C567     1.0000 0.63980  0.69633  0.87819  Biso   1.000  C
  C568     1.0000 0.80367  0.87819  0.86020  Biso   1.000  C
  C569     1.0000 0.78274  0.82149  0.93891  Biso   1.000  C
  C570     1.0000 0.71726  0.67851  0.93891  Biso   1.000  C
  H659     1.0000 0.63101  0.72601  0.89940  Biso   1.000  H
  H660     1.0000 0.77399  0.89940  0.86899  Biso   1.000  H
  N95      1.0000 0.79496  0.78645  0.97218  Biso   1.000  N
  H661     1.0000 0.75089  0.84060  0.94411  Biso   1.000  H
  N96      1.0000 0.70504  0.71355  0.97218  Biso   1.000  N
  H662     1.0000 0.74911  0.65940  0.94411  Biso   1.000  H
  C571     1.0000 0.76000  0.77851  0.01859  Biso   1.000  C
  C572     1.0000 0.74000  0.72149  0.01859  Biso   1.000  C
  C573     1.0000 0.79258  0.78940  0.06940  Biso   1.000  C
  H663     1.0000 0.72940  0.80339  0.01669  Biso   1.000  H
  C574     1.0000 0.70742  0.71060  0.06940  Biso   1.000  C
  H664     1.0000 0.77060  0.69661  0.01669  Biso   1.000  H
  C575     1.0000 0.75871  0.77839  0.11940  Biso   1.000  C
  H665     1.0000 0.80452  0.82669  0.06960  Biso   1.000  H
  H666     1.0000 0.82431  0.76649  0.06980  Biso   1.000  H
  C576     1.0000 0.74129  0.72161  0.11940  Biso   1.000  C
  H667     1.0000 0.69548  0.67331  0.06960  Biso   1.000  H
  H668     1.0000 0.67569  0.73351  0.06980  Biso   1.000  H
  H669     1.0000 0.77960  0.78589  0.15161  Biso   1.000  H
  H670     1.0000 0.72730  0.80181  0.11960  Biso   1.000  H
  H671     1.0000 0.72040  0.71411  0.15161  Biso   1.000  H
  H672     1.0000 0.77270  0.69819  0.11960  Biso   1.000  H
