data_image0
_cell_length_a       24.869
_cell_length_b       24.869
_cell_length_c       24.869
_cell_angle_alpha    90
_cell_angle_beta     90
_cell_angle_gamma    90

_symmetry_space_group_name_H-M    "P 1"
_symmetry_int_tables_number       1

loop_
  _symmetry_equiv_pos_as_xyz
  'x, y, z'

loop_
  _atom_site_label
  _atom_site_occupancy
  _atom_site_fract_x
  _atom_site_fract_y
  _atom_site_fract_z
  _atom_site_thermal_displace_type
  _atom_site_B_iso_or_equiv
  _atom_site_type_symbol
  C1       1.0000 0.37959  0.24118  0.27802  Biso   1.000  C
  C2       1.0000 0.37959  0.25880  0.22200  Biso   1.000  C
  C3       1.0000 0.42989  0.20668  0.28839  Biso   1.000  C
  H1       1.0000 0.34750  0.22039  0.28529  Biso   1.000  H
  H2       1.0000 0.37959  0.27231  0.30158  Biso   1.000  H
  C4       1.0000 0.42989  0.29330  0.21159  Biso   1.000  C
  H3       1.0000 0.34750  0.27959  0.21468  Biso   1.000  H
  H4       1.0000 0.37959  0.22771  0.19840  Biso   1.000  H
  C5       1.0000 0.48108  0.23929  0.27790  Biso   1.000  C
  H5       1.0000 0.42981  0.19430  0.32539  Biso   1.000  H
  H6       1.0000 0.42941  0.17552  0.26511  Biso   1.000  H
  C6       1.0000 0.48108  0.26069  0.22208  Biso   1.000  C
  H7       1.0000 0.42981  0.30568  0.17459  Biso   1.000  H
  H8       1.0000 0.42941  0.32450  0.23491  Biso   1.000  H
  N1       1.0000 0.52793  0.20487  0.28650  Biso   1.000  N
  H9       1.0000 0.48249  0.26949  0.30319  Biso   1.000  H
  N2       1.0000 0.52793  0.29515  0.21352  Biso   1.000  N
  H10      1.0000 0.48249  0.23049  0.19679  Biso   1.000  H
  C7       1.0000 0.56082  0.21758  0.32249  Biso   1.000  C
  C8       1.0000 0.56082  0.28240  0.17749  Biso   1.000  C
  C9       1.0000 0.60811  0.18441  0.33471  Biso   1.000  C
  H11      1.0000 0.55499  0.24898  0.34199  Biso   1.000  H
  C10      1.0000 0.60811  0.31561  0.16531  Biso   1.000  C
  H12      1.0000 0.55499  0.25100  0.15799  Biso   1.000  H
  C11      1.0000 0.62041  0.13893  0.30371  Biso   1.000  C
  C12      1.0000 0.63895  0.19631  0.37959  Biso   1.000  C
  C13      1.0000 0.63895  0.30371  0.12039  Biso   1.000  C
  C14      1.0000 0.62041  0.36105  0.19631  Biso   1.000  C
  H13      1.0000 0.59830  0.12940  0.27508  Biso   1.000  H
  C15      1.0000 0.66529  0.10809  0.31561  Biso   1.000  C
  H14      1.0000 0.62942  0.22490  0.40170  Biso   1.000  H
  C16      1.0000 0.68439  0.16531  0.39189  Biso   1.000  C
  C17      1.0000 0.68439  0.33471  0.10809  Biso   1.000  C
  H15      1.0000 0.62942  0.27508  0.09832  Biso   1.000  H
  H16      1.0000 0.59830  0.37058  0.22490  Biso   1.000  H
  C18      1.0000 0.66529  0.39189  0.18441  Biso   1.000  C
  C19      1.0000 0.67751  0.06080  0.28240  Biso   1.000  C
  C20      1.0000 0.69629  0.12039  0.36105  Biso   1.000  C
  C21      1.0000 0.71760  0.17749  0.43918  Biso   1.000  C
  C22      1.0000 0.69629  0.37959  0.13893  Biso   1.000  C
  C23      1.0000 0.71760  0.32249  0.06080  Biso   1.000  C
  C24      1.0000 0.67751  0.43918  0.21758  Biso   1.000  C
  N3       1.0000 0.71350  0.02791  0.29515  Biso   1.000  N
  H17      1.0000 0.65801  0.05501  0.25100  Biso   1.000  H
  H18      1.0000 0.72492  0.09832  0.37058  Biso   1.000  H
  N4       1.0000 0.70485  0.21352  0.47207  Biso   1.000  N
  H19      1.0000 0.74900  0.15799  0.44501  Biso   1.000  H
  H20      1.0000 0.72492  0.40170  0.12940  Biso   1.000  H
  N5       1.0000 0.70485  0.28650  0.02791  Biso   1.000  N
  H21      1.0000 0.74900  0.34199  0.05501  Biso   1.000  H
  N6       1.0000 0.71350  0.47207  0.20487  Biso   1.000  N
  H22      1.0000 0.65801  0.44501  0.24898  Biso   1.000  H
  C25      1.0000 0.72210  0.98106  0.26069  Biso   1.000  C
  C26      1.0000 0.73931  0.22208  0.51892  Biso   1.000  C
  C27      1.0000 0.73931  0.27790  0.98106  Biso   1.000  C
  C28      1.0000 0.72210  0.51892  0.23929  Biso   1.000  C
  C29      1.0000 0.77792  0.98106  0.23929  Biso   1.000  C
  H23      1.0000 0.69681  0.98251  0.23049  Biso   1.000  H
  C30      1.0000 0.71161  0.92991  0.29330  Biso   1.000  C
  H24      1.0000 0.76951  0.19679  0.51751  Biso   1.000  H
  C31      1.0000 0.70670  0.21159  0.57011  Biso   1.000  C
  C32      1.0000 0.76071  0.27790  0.51892  Biso   1.000  C
  C33      1.0000 0.76071  0.22208  0.98106  Biso   1.000  C
  H25      1.0000 0.76951  0.30319  0.98251  Biso   1.000  H
  C34      1.0000 0.70670  0.28839  0.92991  Biso   1.000  C
  H26      1.0000 0.69681  0.51751  0.26949  Biso   1.000  H
  C35      1.0000 0.71161  0.57011  0.20668  Biso   1.000  C
  C36      1.0000 0.77792  0.51892  0.26069  Biso   1.000  C
  N7       1.0000 0.78648  0.02791  0.20487  Biso   1.000  N
  H27      1.0000 0.80321  0.98251  0.26949  Biso   1.000  H
  C37      1.0000 0.78841  0.92991  0.20668  Biso   1.000  C
  H28      1.0000 0.67461  0.92979  0.30568  Biso   1.000  H
  H29      1.0000 0.73489  0.92939  0.32450  Biso   1.000  H
  C38      1.0000 0.72198  0.87961  0.25880  Biso   1.000  C
  H30      1.0000 0.69432  0.17459  0.57019  Biso   1.000  H
  H31      1.0000 0.67550  0.23491  0.57059  Biso   1.000  H
  C39      1.0000 0.74120  0.22200  0.62041  Biso   1.000  C
  N8       1.0000 0.79513  0.28650  0.47207  Biso   1.000  N
  H32      1.0000 0.73051  0.30319  0.51751  Biso   1.000  H
  C40      1.0000 0.79332  0.28839  0.57011  Biso   1.000  C
  N9       1.0000 0.79513  0.21352  0.02791  Biso   1.000  N
  H33      1.0000 0.73051  0.19679  0.98251  Biso   1.000  H
  C41      1.0000 0.79332  0.21159  0.92991  Biso   1.000  C
  H34      1.0000 0.69432  0.32539  0.92979  Biso   1.000  H
  H35      1.0000 0.67550  0.26511  0.92939  Biso   1.000  H
  C42      1.0000 0.74120  0.27802  0.87961  Biso   1.000  C
  H36      1.0000 0.67461  0.57019  0.19430  Biso   1.000  H
  H37      1.0000 0.73489  0.57059  0.17552  Biso   1.000  H
  C43      1.0000 0.72198  0.62041  0.24118  Biso   1.000  C
  N10      1.0000 0.78648  0.47207  0.29515  Biso   1.000  N
  H38      1.0000 0.80321  0.51751  0.23049  Biso   1.000  H
  C44      1.0000 0.78841  0.57011  0.29330  Biso   1.000  C
  C45      1.0000 0.82251  0.06080  0.21758  Biso   1.000  C
  H39      1.0000 0.82541  0.92979  0.19430  Biso   1.000  H
  H40      1.0000 0.76509  0.92939  0.17552  Biso   1.000  H
  C46      1.0000 0.77800  0.87961  0.24118  Biso   1.000  C
  H41      1.0000 0.71471  0.84748  0.27959  Biso   1.000  H
  H42      1.0000 0.69842  0.87961  0.22771  Biso   1.000  H
  H43      1.0000 0.72041  0.21468  0.65250  Biso   1.000  H
  H44      1.0000 0.77229  0.19840  0.62041  Biso   1.000  H
  C47      1.0000 0.75882  0.27802  0.62041  Biso   1.000  C
  C48      1.0000 0.78242  0.32249  0.43918  Biso   1.000  C
  H45      1.0000 0.80570  0.32539  0.57019  Biso   1.000  H
  H46      1.0000 0.82448  0.26511  0.57059  Biso   1.000  H
  C49      1.0000 0.78242  0.17749  0.06080  Biso   1.000  C
  H47      1.0000 0.80570  0.17459  0.92979  Biso   1.000  H
  H48      1.0000 0.82448  0.23491  0.92939  Biso   1.000  H
  C50      1.0000 0.75882  0.22200  0.87961  Biso   1.000  C
  H49      1.0000 0.72041  0.28529  0.84748  Biso   1.000  H
  H50      1.0000 0.77229  0.30158  0.87961  Biso   1.000  H
  H51      1.0000 0.71471  0.65250  0.22039  Biso   1.000  H
  H52      1.0000 0.69842  0.62041  0.27231  Biso   1.000  H
  C51      1.0000 0.77800  0.62041  0.25880  Biso   1.000  C
  C52      1.0000 0.82251  0.43918  0.28240  Biso   1.000  C
  H53      1.0000 0.82541  0.57019  0.30568  Biso   1.000  H
  H54      1.0000 0.76509  0.57059  0.32450  Biso   1.000  H
  C53      1.0000 0.83469  0.10809  0.18441  Biso   1.000  C
  H55      1.0000 0.84201  0.05501  0.24898  Biso   1.000  H
  H56      1.0000 0.78532  0.84748  0.22039  Biso   1.000  H
  H57      1.0000 0.80160  0.87961  0.27231  Biso   1.000  H
  H58      1.0000 0.77961  0.28529  0.65250  Biso   1.000  H
  H59      1.0000 0.72769  0.30158  0.62041  Biso   1.000  H
  C54      1.0000 0.81559  0.33471  0.39189  Biso   1.000  C
  H60      1.0000 0.75102  0.34199  0.44501  Biso   1.000  H
  C55      1.0000 0.81559  0.16531  0.10809  Biso   1.000  C
  H61      1.0000 0.75102  0.15799  0.05501  Biso   1.000  H
  H62      1.0000 0.77961  0.21468  0.84748  Biso   1.000  H
  H63      1.0000 0.72769  0.19840  0.87961  Biso   1.000  H
  H64      1.0000 0.78532  0.65250  0.27959  Biso   1.000  H
  H65      1.0000 0.80160  0.62041  0.22771  Biso   1.000  H
  C56      1.0000 0.83469  0.39189  0.31561  Biso   1.000  C
  H66      1.0000 0.84201  0.44501  0.25100  Biso   1.000  H
  C57      1.0000 0.80369  0.12039  0.13893  Biso   1.000  C
  C58      1.0000 0.87961  0.13893  0.19631  Biso   1.000  C
  C59      1.0000 0.80369  0.37959  0.36105  Biso   1.000  C
  C60      1.0000 0.86107  0.30371  0.37959  Biso   1.000  C
  C61      1.0000 0.86107  0.19631  0.12039  Biso   1.000  C
  C62      1.0000 0.87961  0.36105  0.30371  Biso   1.000  C
  H67      1.0000 0.77510  0.09832  0.12940  Biso   1.000  H
  C63      1.0000 0.89191  0.18441  0.16531  Biso   1.000  C
  H68      1.0000 0.90168  0.12940  0.22490  Biso   1.000  H
  H69      1.0000 0.77510  0.40170  0.37058  Biso   1.000  H
  C64      1.0000 0.89191  0.31561  0.33471  Biso   1.000  C
  H70      1.0000 0.87060  0.27508  0.40170  Biso   1.000  H
  H71      1.0000 0.87060  0.22490  0.09832  Biso   1.000  H
  H72      1.0000 0.90168  0.37058  0.27508  Biso   1.000  H
  C65      1.0000 0.93920  0.21758  0.17749  Biso   1.000  C
  C66      1.0000 0.93920  0.28240  0.32249  Biso   1.000  C
  N11      1.0000 0.97209  0.20487  0.21352  Biso   1.000  N
  H73      1.0000 0.94499  0.24898  0.15799  Biso   1.000  H
  N12      1.0000 0.97209  0.29515  0.28650  Biso   1.000  N
  H74      1.0000 0.94499  0.25100  0.34199  Biso   1.000  H
  C67      1.0000 0.01894  0.23929  0.22208  Biso   1.000  C
  C68      1.0000 0.01894  0.26069  0.27790  Biso   1.000  C
  H75      1.0000 0.01749  0.26949  0.19679  Biso   1.000  H
  C69      1.0000 0.07009  0.20668  0.21159  Biso   1.000  C
  H76      1.0000 0.01749  0.23049  0.30319  Biso   1.000  H
  C70      1.0000 0.07009  0.29330  0.28839  Biso   1.000  C
  H77      1.0000 0.07021  0.19430  0.17459  Biso   1.000  H
  H78      1.0000 0.07061  0.17552  0.23491  Biso   1.000  H
  C71      1.0000 0.12039  0.24118  0.22200  Biso   1.000  C
  H79      1.0000 0.07021  0.30568  0.32539  Biso   1.000  H
  H80      1.0000 0.07061  0.32450  0.26511  Biso   1.000  H
  C72      1.0000 0.12039  0.25880  0.27802  Biso   1.000  C
  H81      1.0000 0.15252  0.22039  0.21468  Biso   1.000  H
  H82      1.0000 0.12039  0.27231  0.19840  Biso   1.000  H
  H83      1.0000 0.15252  0.27959  0.28529  Biso   1.000  H
  H84      1.0000 0.12039  0.22771  0.30158  Biso   1.000  H
  C73      1.0000 0.27802  0.37959  0.24118  Biso   1.000  C
  C74      1.0000 0.28839  0.42989  0.20668  Biso   1.000  C
  H85      1.0000 0.28529  0.34750  0.22039  Biso   1.000  H
  H86      1.0000 0.30158  0.37959  0.27231  Biso   1.000  H
  C75      1.0000 0.22200  0.37959  0.25880  Biso   1.000  C
  C76      1.0000 0.27790  0.48108  0.23929  Biso   1.000  C
  H87      1.0000 0.32539  0.42981  0.19430  Biso   1.000  H
  H88      1.0000 0.26511  0.42941  0.17552  Biso   1.000  H
  C77      1.0000 0.21159  0.42989  0.29330  Biso   1.000  C
  H89      1.0000 0.21468  0.34750  0.27959  Biso   1.000  H
  H90      1.0000 0.19840  0.37959  0.22771  Biso   1.000  H
  N13      1.0000 0.28650  0.52793  0.20487  Biso   1.000  N
  H91      1.0000 0.30319  0.48249  0.26949  Biso   1.000  H
  C78      1.0000 0.22208  0.48108  0.26069  Biso   1.000  C
  H92      1.0000 0.17459  0.42981  0.30568  Biso   1.000  H
  H93      1.0000 0.23491  0.42941  0.32450  Biso   1.000  H
  C79      1.0000 0.32249  0.56082  0.21758  Biso   1.000  C
  N14      1.0000 0.21352  0.52793  0.29515  Biso   1.000  N
  H94      1.0000 0.19679  0.48249  0.23049  Biso   1.000  H
  C80      1.0000 0.33471  0.60811  0.18441  Biso   1.000  C
  H95      1.0000 0.34199  0.55499  0.24898  Biso   1.000  H
  C81      1.0000 0.17749  0.56082  0.28240  Biso   1.000  C
  C82      1.0000 0.30371  0.62041  0.13893  Biso   1.000  C
  C83      1.0000 0.37959  0.63895  0.19631  Biso   1.000  C
  C84      1.0000 0.16531  0.60811  0.31561  Biso   1.000  C
  H96      1.0000 0.15799  0.55499  0.25100  Biso   1.000  H
  H97      1.0000 0.27508  0.59830  0.12940  Biso   1.000  H
  C85      1.0000 0.31561  0.66529  0.10809  Biso   1.000  C
  H98      1.0000 0.40170  0.62942  0.22490  Biso   1.000  H
  C86      1.0000 0.39189  0.68439  0.16531  Biso   1.000  C
  C87      1.0000 0.12039  0.63895  0.30371  Biso   1.000  C
  C88      1.0000 0.19631  0.62041  0.36105  Biso   1.000  C
  C89      1.0000 0.28240  0.67751  0.06080  Biso   1.000  C
  C90      1.0000 0.36105  0.69629  0.12039  Biso   1.000  C
  C91      1.0000 0.43918  0.71760  0.17749  Biso   1.000  C
  H99      1.0000 0.09832  0.62942  0.27508  Biso   1.000  H
  C92      1.0000 0.10809  0.68439  0.33471  Biso   1.000  C
  H100     1.0000 0.22490  0.59830  0.37058  Biso   1.000  H
  C93      1.0000 0.18441  0.66529  0.39189  Biso   1.000  C
  N15      1.0000 0.29515  0.71350  0.02791  Biso   1.000  N
  H101     1.0000 0.25100  0.65801  0.05501  Biso   1.000  H
  H102     1.0000 0.37058  0.72492  0.09832  Biso   1.000  H
  N16      1.0000 0.47207  0.70485  0.21352  Biso   1.000  N
  H103     1.0000 0.44501  0.74900  0.15799  Biso   1.000  H
  C94      1.0000 0.13893  0.69629  0.37959  Biso   1.000  C
  C95      1.0000 0.06080  0.71760  0.32249  Biso   1.000  C
  C96      1.0000 0.21758  0.67751  0.43918  Biso   1.000  C
  C97      1.0000 0.26069  0.72210  0.98106  Biso   1.000  C
  C98      1.0000 0.51892  0.73931  0.22208  Biso   1.000  C
  H104     1.0000 0.12940  0.72492  0.40170  Biso   1.000  H
  N17      1.0000 0.02791  0.70485  0.28650  Biso   1.000  N
  H105     1.0000 0.05501  0.74900  0.34199  Biso   1.000  H
  N18      1.0000 0.20487  0.71350  0.47207  Biso   1.000  N
  H106     1.0000 0.24898  0.65801  0.44501  Biso   1.000  H
  H107     1.0000 0.23049  0.69681  0.98251  Biso   1.000  H
  C99      1.0000 0.29330  0.71161  0.92991  Biso   1.000  C
  C100     1.0000 0.23929  0.77792  0.98106  Biso   1.000  C
  H108     1.0000 0.51751  0.76951  0.19679  Biso   1.000  H
  C101     1.0000 0.57011  0.70670  0.21159  Biso   1.000  C
  C102     1.0000 0.51892  0.76071  0.27790  Biso   1.000  C
  C103     1.0000 0.98106  0.73931  0.27790  Biso   1.000  C
  C104     1.0000 0.23929  0.72210  0.51892  Biso   1.000  C
  H109     1.0000 0.30568  0.67461  0.92979  Biso   1.000  H
  H110     1.0000 0.32450  0.73489  0.92939  Biso   1.000  H
  C105     1.0000 0.25880  0.72198  0.87961  Biso   1.000  C
  N19      1.0000 0.20487  0.78648  0.02791  Biso   1.000  N
  H111     1.0000 0.26949  0.80321  0.98251  Biso   1.000  H
  C106     1.0000 0.20668  0.78841  0.92991  Biso   1.000  C
  H112     1.0000 0.57019  0.69432  0.17459  Biso   1.000  H
  H113     1.0000 0.57059  0.67550  0.23491  Biso   1.000  H
  C107     1.0000 0.62041  0.74120  0.22200  Biso   1.000  C
  N20      1.0000 0.47207  0.79513  0.28650  Biso   1.000  N
  H114     1.0000 0.51751  0.73051  0.30319  Biso   1.000  H
  C108     1.0000 0.57011  0.79332  0.28839  Biso   1.000  C
  C109     1.0000 0.98106  0.76071  0.22208  Biso   1.000  C
  H115     1.0000 0.98251  0.76951  0.30319  Biso   1.000  H
  C110     1.0000 0.92991  0.70670  0.28839  Biso   1.000  C
  H116     1.0000 0.26949  0.69681  0.51751  Biso   1.000  H
  C111     1.0000 0.20668  0.71161  0.57011  Biso   1.000  C
  C112     1.0000 0.26069  0.77792  0.51892  Biso   1.000  C
  H117     1.0000 0.27959  0.71471  0.84748  Biso   1.000  H
  H118     1.0000 0.22771  0.69842  0.87961  Biso   1.000  H
  C113     1.0000 0.24118  0.77800  0.87961  Biso   1.000  C
  C114     1.0000 0.21758  0.82251  0.06080  Biso   1.000  C
  H119     1.0000 0.19430  0.82541  0.92979  Biso   1.000  H
  H120     1.0000 0.17552  0.76509  0.92939  Biso   1.000  H
  H121     1.0000 0.65250  0.72041  0.21468  Biso   1.000  H
  H122     1.0000 0.62041  0.77229  0.19840  Biso   1.000  H
  C115     1.0000 0.62041  0.75882  0.27802  Biso   1.000  C
  C116     1.0000 0.43918  0.78242  0.32249  Biso   1.000  C
  H123     1.0000 0.57019  0.80570  0.32539  Biso   1.000  H
  H124     1.0000 0.57059  0.82448  0.26511  Biso   1.000  H
  N21      1.0000 0.02791  0.79513  0.21352  Biso   1.000  N
  H125     1.0000 0.98251  0.73051  0.19679  Biso   1.000  H
  C117     1.0000 0.92991  0.79332  0.21159  Biso   1.000  C
  H126     1.0000 0.92979  0.69432  0.32539  Biso   1.000  H
  H127     1.0000 0.92939  0.67550  0.26511  Biso   1.000  H
  C118     1.0000 0.87961  0.74120  0.27802  Biso   1.000  C
  H128     1.0000 0.19430  0.67461  0.57019  Biso   1.000  H
  H129     1.0000 0.17552  0.73489  0.57059  Biso   1.000  H
  C119     1.0000 0.24118  0.72198  0.62041  Biso   1.000  C
  N22      1.0000 0.29515  0.78648  0.47207  Biso   1.000  N
  H130     1.0000 0.23049  0.80321  0.51751  Biso   1.000  H
  C120     1.0000 0.29330  0.78841  0.57011  Biso   1.000  C
  H131     1.0000 0.22039  0.78532  0.84748  Biso   1.000  H
  H132     1.0000 0.27231  0.80160  0.87961  Biso   1.000  H
  C121     1.0000 0.18441  0.83469  0.10809  Biso   1.000  C
  H133     1.0000 0.24898  0.84201  0.05501  Biso   1.000  H
  H134     1.0000 0.65250  0.77961  0.28529  Biso   1.000  H
  H135     1.0000 0.62041  0.72769  0.30158  Biso   1.000  H
  C122     1.0000 0.39189  0.81559  0.33471  Biso   1.000  C
  H136     1.0000 0.44501  0.75102  0.34199  Biso   1.000  H
  C123     1.0000 0.06080  0.78242  0.17749  Biso   1.000  C
  H137     1.0000 0.92979  0.80570  0.17459  Biso   1.000  H
  H138     1.0000 0.92939  0.82448  0.23491  Biso   1.000  H
  C124     1.0000 0.87961  0.75882  0.22200  Biso   1.000  C
  H139     1.0000 0.84748  0.72041  0.28529  Biso   1.000  H
  H140     1.0000 0.87961  0.77229  0.30158  Biso   1.000  H
  H141     1.0000 0.22039  0.71471  0.65250  Biso   1.000  H
  H142     1.0000 0.27231  0.69842  0.62041  Biso   1.000  H
  C125     1.0000 0.25880  0.77800  0.62041  Biso   1.000  C
  C126     1.0000 0.28240  0.82251  0.43918  Biso   1.000  C
  H143     1.0000 0.30568  0.82541  0.57019  Biso   1.000  H
  H144     1.0000 0.32450  0.76509  0.57059  Biso   1.000  H
  C127     1.0000 0.19631  0.87961  0.13893  Biso   1.000  C
  C128     1.0000 0.13893  0.80369  0.12039  Biso   1.000  C
  C129     1.0000 0.36105  0.80369  0.37959  Biso   1.000  C
  C130     1.0000 0.37959  0.86107  0.30371  Biso   1.000  C
  C131     1.0000 0.10809  0.81559  0.16531  Biso   1.000  C
  H145     1.0000 0.05501  0.75102  0.15799  Biso   1.000  H
  H146     1.0000 0.84748  0.77961  0.21468  Biso   1.000  H
  H147     1.0000 0.87961  0.72769  0.19840  Biso   1.000  H
  H148     1.0000 0.27959  0.78532  0.65250  Biso   1.000  H
  H149     1.0000 0.22771  0.80160  0.62041  Biso   1.000  H
  C132     1.0000 0.31561  0.83469  0.39189  Biso   1.000  C
  H150     1.0000 0.25100  0.84201  0.44501  Biso   1.000  H
  H151     1.0000 0.22490  0.90168  0.12940  Biso   1.000  H
  C133     1.0000 0.16531  0.89191  0.18441  Biso   1.000  C
  H152     1.0000 0.12940  0.77510  0.09832  Biso   1.000  H
  H153     1.0000 0.37058  0.77510  0.40170  Biso   1.000  H
  H154     1.0000 0.40170  0.87060  0.27508  Biso   1.000  H
  C134     1.0000 0.33471  0.89191  0.31561  Biso   1.000  C
  C135     1.0000 0.12039  0.86107  0.19631  Biso   1.000  C
  C136     1.0000 0.30371  0.87961  0.36105  Biso   1.000  C
  C137     1.0000 0.17749  0.93920  0.21758  Biso   1.000  C
  C138     1.0000 0.32249  0.93920  0.28240  Biso   1.000  C
  H155     1.0000 0.09832  0.87060  0.22490  Biso   1.000  H
  H156     1.0000 0.27508  0.90168  0.37058  Biso   1.000  H
  N23      1.0000 0.21352  0.97209  0.20487  Biso   1.000  N
  H157     1.0000 0.15799  0.94499  0.24898  Biso   1.000  H
  N24      1.0000 0.28650  0.97209  0.29515  Biso   1.000  N
  H158     1.0000 0.34199  0.94499  0.25100  Biso   1.000  H
  C139     1.0000 0.22208  0.01894  0.23929  Biso   1.000  C
  C140     1.0000 0.27790  0.01894  0.26069  Biso   1.000  C
  H159     1.0000 0.19679  0.01749  0.26949  Biso   1.000  H
  C141     1.0000 0.21159  0.07009  0.20668  Biso   1.000  C
  H160     1.0000 0.30319  0.01749  0.23049  Biso   1.000  H
  C142     1.0000 0.28839  0.07009  0.29330  Biso   1.000  C
  H161     1.0000 0.17459  0.07021  0.19430  Biso   1.000  H
  H162     1.0000 0.23491  0.07061  0.17552  Biso   1.000  H
  C143     1.0000 0.22200  0.12039  0.24118  Biso   1.000  C
  H163     1.0000 0.32539  0.07021  0.30568  Biso   1.000  H
  H164     1.0000 0.26511  0.07061  0.32450  Biso   1.000  H
  C144     1.0000 0.27802  0.12039  0.25880  Biso   1.000  C
  H165     1.0000 0.21468  0.15252  0.22039  Biso   1.000  H
  H166     1.0000 0.19840  0.12039  0.27231  Biso   1.000  H
  H167     1.0000 0.28529  0.15252  0.27959  Biso   1.000  H
  H168     1.0000 0.30158  0.12039  0.22771  Biso   1.000  H
  C145     1.0000 0.24118  0.27802  0.37959  Biso   1.000  C
  C146     1.0000 0.25880  0.22200  0.37959  Biso   1.000  C
  C147     1.0000 0.20668  0.28839  0.42989  Biso   1.000  C
  H169     1.0000 0.22039  0.28529  0.34750  Biso   1.000  H
  H170     1.0000 0.27231  0.30158  0.37959  Biso   1.000  H
  C148     1.0000 0.29330  0.21159  0.42989  Biso   1.000  C
  H171     1.0000 0.27959  0.21468  0.34750  Biso   1.000  H
  H172     1.0000 0.22771  0.19840  0.37959  Biso   1.000  H
  C149     1.0000 0.23929  0.27790  0.48108  Biso   1.000  C
  H173     1.0000 0.19430  0.32539  0.42981  Biso   1.000  H
  H174     1.0000 0.17552  0.26511  0.42941  Biso   1.000  H
  C150     1.0000 0.26069  0.22208  0.48108  Biso   1.000  C
  H175     1.0000 0.30568  0.17459  0.42981  Biso   1.000  H
  H176     1.0000 0.32450  0.23491  0.42941  Biso   1.000  H
  N25      1.0000 0.20487  0.28650  0.52793  Biso   1.000  N
  H177     1.0000 0.26949  0.30319  0.48249  Biso   1.000  H
  N26      1.0000 0.29515  0.21352  0.52793  Biso   1.000  N
  H178     1.0000 0.23049  0.19679  0.48249  Biso   1.000  H
  C151     1.0000 0.21758  0.32249  0.56082  Biso   1.000  C
  C152     1.0000 0.28240  0.17749  0.56082  Biso   1.000  C
  C153     1.0000 0.18441  0.33471  0.60811  Biso   1.000  C
  H179     1.0000 0.24898  0.34199  0.55499  Biso   1.000  H
  C154     1.0000 0.31561  0.16531  0.60811  Biso   1.000  C
  H180     1.0000 0.25100  0.15799  0.55499  Biso   1.000  H
  C155     1.0000 0.19631  0.37959  0.63895  Biso   1.000  C
  C156     1.0000 0.13893  0.30371  0.62041  Biso   1.000  C
  C157     1.0000 0.30371  0.12039  0.63895  Biso   1.000  C
  C158     1.0000 0.36105  0.19631  0.62041  Biso   1.000  C
  H181     1.0000 0.22490  0.40170  0.62942  Biso   1.000  H
  C159     1.0000 0.16531  0.39189  0.68439  Biso   1.000  C
  H182     1.0000 0.12940  0.27508  0.59830  Biso   1.000  H
  C160     1.0000 0.10809  0.31561  0.66529  Biso   1.000  C
  H183     1.0000 0.27508  0.09832  0.62942  Biso   1.000  H
  C161     1.0000 0.33471  0.10809  0.68439  Biso   1.000  C
  H184     1.0000 0.37058  0.22490  0.59830  Biso   1.000  H
  C162     1.0000 0.39189  0.18441  0.66529  Biso   1.000  C
  C163     1.0000 0.12039  0.36105  0.69629  Biso   1.000  C
  C164     1.0000 0.17749  0.43918  0.71760  Biso   1.000  C
  C165     1.0000 0.06080  0.28240  0.67751  Biso   1.000  C
  C166     1.0000 0.37959  0.13893  0.69629  Biso   1.000  C
  C167     1.0000 0.32249  0.06080  0.71760  Biso   1.000  C
  C168     1.0000 0.43918  0.21758  0.67751  Biso   1.000  C
  H185     1.0000 0.09832  0.37058  0.72492  Biso   1.000  H
  N27      1.0000 0.21352  0.47207  0.70485  Biso   1.000  N
  H186     1.0000 0.15799  0.44501  0.74900  Biso   1.000  H
  N28      1.0000 0.02791  0.29515  0.71350  Biso   1.000  N
  H187     1.0000 0.05501  0.25100  0.65801  Biso   1.000  H
  H188     1.0000 0.40170  0.12940  0.72492  Biso   1.000  H
  N29      1.0000 0.28650  0.02791  0.70485  Biso   1.000  N
  H189     1.0000 0.34199  0.05501  0.74900  Biso   1.000  H
  N30      1.0000 0.47207  0.20487  0.71350  Biso   1.000  N
  H190     1.0000 0.44501  0.24898  0.65801  Biso   1.000  H
  C169     1.0000 0.22208  0.51892  0.73931  Biso   1.000  C
  C170     1.0000 0.98106  0.26069  0.72210  Biso   1.000  C
  C171     1.0000 0.27790  0.98106  0.73931  Biso   1.000  C
  C172     1.0000 0.51892  0.23929  0.72210  Biso   1.000  C
  H191     1.0000 0.19679  0.51751  0.76951  Biso   1.000  H
  C173     1.0000 0.21159  0.57011  0.70670  Biso   1.000  C
  C174     1.0000 0.27790  0.51892  0.76071  Biso   1.000  C
  H192     1.0000 0.98251  0.23049  0.69681  Biso   1.000  H
  C175     1.0000 0.92991  0.29330  0.71161  Biso   1.000  C
  C176     1.0000 0.98106  0.23929  0.77792  Biso   1.000  C
  H193     1.0000 0.30319  0.98251  0.76951  Biso   1.000  H
  C177     1.0000 0.28839  0.92991  0.70670  Biso   1.000  C
  C178     1.0000 0.22208  0.98106  0.76071  Biso   1.000  C
  H194     1.0000 0.51751  0.26949  0.69681  Biso   1.000  H
  C179     1.0000 0.57011  0.20668  0.71161  Biso   1.000  C
  C180     1.0000 0.51892  0.26069  0.77792  Biso   1.000  C
  H195     1.0000 0.17459  0.57019  0.69432  Biso   1.000  H
  H196     1.0000 0.23491  0.57059  0.67550  Biso   1.000  H
  C181     1.0000 0.22200  0.62041  0.74120  Biso   1.000  C
  N31      1.0000 0.28650  0.47207  0.79513  Biso   1.000  N
  H197     1.0000 0.30319  0.51751  0.73051  Biso   1.000  H
  C182     1.0000 0.28839  0.57011  0.79332  Biso   1.000  C
  H198     1.0000 0.92979  0.30568  0.67461  Biso   1.000  H
  H199     1.0000 0.92939  0.32450  0.73489  Biso   1.000  H
  C183     1.0000 0.87961  0.25880  0.72198  Biso   1.000  C
  N32      1.0000 0.02791  0.20487  0.78648  Biso   1.000  N
  H200     1.0000 0.98251  0.26949  0.80321  Biso   1.000  H
  C184     1.0000 0.92991  0.20668  0.78841  Biso   1.000  C
  H201     1.0000 0.32539  0.92979  0.69432  Biso   1.000  H
  H202     1.0000 0.26511  0.92939  0.67550  Biso   1.000  H
  C185     1.0000 0.27802  0.87961  0.74120  Biso   1.000  C
  N33      1.0000 0.21352  0.02791  0.79513  Biso   1.000  N
  H203     1.0000 0.19679  0.98251  0.73051  Biso   1.000  H
  C186     1.0000 0.21159  0.92991  0.79332  Biso   1.000  C
  H204     1.0000 0.57019  0.19430  0.67461  Biso   1.000  H
  H205     1.0000 0.57059  0.17552  0.73489  Biso   1.000  H
  C187     1.0000 0.62041  0.24118  0.72198  Biso   1.000  C
  N34      1.0000 0.47207  0.29515  0.78648  Biso   1.000  N
  H206     1.0000 0.51751  0.23049  0.80321  Biso   1.000  H
  C188     1.0000 0.57011  0.29330  0.78841  Biso   1.000  C
  H207     1.0000 0.21468  0.65250  0.72041  Biso   1.000  H
  H208     1.0000 0.19840  0.62041  0.77229  Biso   1.000  H
  C189     1.0000 0.27802  0.62041  0.75882  Biso   1.000  C
  C190     1.0000 0.32249  0.43918  0.78242  Biso   1.000  C
  H209     1.0000 0.32539  0.57019  0.80570  Biso   1.000  H
  H210     1.0000 0.26511  0.57059  0.82448  Biso   1.000  H
  H211     1.0000 0.84748  0.27959  0.71471  Biso   1.000  H
  H212     1.0000 0.87961  0.22771  0.69842  Biso   1.000  H
  C191     1.0000 0.87961  0.24118  0.77800  Biso   1.000  C
  C192     1.0000 0.06080  0.21758  0.82251  Biso   1.000  C
  H213     1.0000 0.92979  0.19430  0.82541  Biso   1.000  H
  H214     1.0000 0.92939  0.17552  0.76509  Biso   1.000  H
  H215     1.0000 0.28529  0.84748  0.72041  Biso   1.000  H
  H216     1.0000 0.30158  0.87961  0.77229  Biso   1.000  H
  C193     1.0000 0.22200  0.87961  0.75882  Biso   1.000  C
  C194     1.0000 0.17749  0.06080  0.78242  Biso   1.000  C
  H217     1.0000 0.17459  0.92979  0.80570  Biso   1.000  H
  H218     1.0000 0.23491  0.92939  0.82448  Biso   1.000  H
  H219     1.0000 0.65250  0.22039  0.71471  Biso   1.000  H
  H220     1.0000 0.62041  0.27231  0.69842  Biso   1.000  H
  C195     1.0000 0.62041  0.25880  0.77800  Biso   1.000  C
  C196     1.0000 0.43918  0.28240  0.82251  Biso   1.000  C
  H221     1.0000 0.57019  0.30568  0.82541  Biso   1.000  H
  H222     1.0000 0.57059  0.32450  0.76509  Biso   1.000  H
  H223     1.0000 0.28529  0.65250  0.77961  Biso   1.000  H
  H224     1.0000 0.30158  0.62041  0.72769  Biso   1.000  H
  C197     1.0000 0.33471  0.39189  0.81559  Biso   1.000  C
  H225     1.0000 0.34199  0.44501  0.75102  Biso   1.000  H
  H226     1.0000 0.84748  0.22039  0.78532  Biso   1.000  H
  H227     1.0000 0.87961  0.27231  0.80160  Biso   1.000  H
  C198     1.0000 0.10809  0.18441  0.83469  Biso   1.000  C
  H228     1.0000 0.05501  0.24898  0.84201  Biso   1.000  H
  H229     1.0000 0.21468  0.84748  0.77961  Biso   1.000  H
  H230     1.0000 0.19840  0.87961  0.72769  Biso   1.000  H
  C199     1.0000 0.16531  0.10809  0.81559  Biso   1.000  C
  H231     1.0000 0.15799  0.05501  0.75102  Biso   1.000  H
  H232     1.0000 0.65250  0.27959  0.78532  Biso   1.000  H
  H233     1.0000 0.62041  0.22771  0.80160  Biso   1.000  H
  C200     1.0000 0.39189  0.31561  0.83469  Biso   1.000  C
  H234     1.0000 0.44501  0.25100  0.84201  Biso   1.000  H
  C201     1.0000 0.37959  0.36105  0.80369  Biso   1.000  C
  C202     1.0000 0.30371  0.37959  0.86107  Biso   1.000  C
  C203     1.0000 0.12039  0.13893  0.80369  Biso   1.000  C
  C204     1.0000 0.13893  0.19631  0.87961  Biso   1.000  C
  C205     1.0000 0.19631  0.12039  0.86107  Biso   1.000  C
  C206     1.0000 0.36105  0.30371  0.87961  Biso   1.000  C
  H235     1.0000 0.40170  0.37058  0.77510  Biso   1.000  H
  C207     1.0000 0.31561  0.33471  0.89191  Biso   1.000  C
  H236     1.0000 0.27508  0.40170  0.87060  Biso   1.000  H
  H237     1.0000 0.09832  0.12940  0.77510  Biso   1.000  H
  C208     1.0000 0.18441  0.16531  0.89191  Biso   1.000  C
  H238     1.0000 0.12940  0.22490  0.90168  Biso   1.000  H
  H239     1.0000 0.22490  0.09832  0.87060  Biso   1.000  H
  H240     1.0000 0.37058  0.27508  0.90168  Biso   1.000  H
  C209     1.0000 0.28240  0.32249  0.93920  Biso   1.000  C
  C210     1.0000 0.21758  0.17749  0.93920  Biso   1.000  C
  N35      1.0000 0.29515  0.28650  0.97209  Biso   1.000  N
  H241     1.0000 0.25100  0.34199  0.94499  Biso   1.000  H
  N36      1.0000 0.20487  0.21352  0.97209  Biso   1.000  N
  H242     1.0000 0.24898  0.15799  0.94499  Biso   1.000  H
  C211     1.0000 0.26069  0.27790  0.01894  Biso   1.000  C
  C212     1.0000 0.23929  0.22208  0.01894  Biso   1.000  C
  H243     1.0000 0.23049  0.30319  0.01749  Biso   1.000  H
  C213     1.0000 0.29330  0.28839  0.07009  Biso   1.000  C
  H244     1.0000 0.26949  0.19679  0.01749  Biso   1.000  H
  C214     1.0000 0.20668  0.21159  0.07009  Biso   1.000  C
  H245     1.0000 0.30568  0.32539  0.07021  Biso   1.000  H
  H246     1.0000 0.32450  0.26511  0.07061  Biso   1.000  H
  C215     1.0000 0.25880  0.27802  0.12039  Biso   1.000  C
  H247     1.0000 0.19430  0.17459  0.07021  Biso   1.000  H
  H248     1.0000 0.17552  0.23491  0.07061  Biso   1.000  H
  C216     1.0000 0.24118  0.22200  0.12039  Biso   1.000  C
  H249     1.0000 0.27959  0.28529  0.15252  Biso   1.000  H
  H250     1.0000 0.22771  0.30158  0.12039  Biso   1.000  H
  H251     1.0000 0.22039  0.21468  0.15252  Biso   1.000  H
  H252     1.0000 0.27231  0.19840  0.12039  Biso   1.000  H
  C217     1.0000 0.44630  0.38896  0.37038  Biso   1.000  C
  C218     1.0000 0.41530  0.43440  0.35808  Biso   1.000  C
  H253     1.0000 0.47489  0.37939  0.34831  Biso   1.000  H
  C219     1.0000 0.43440  0.35808  0.41530  Biso   1.000  C
  C220     1.0000 0.37038  0.44630  0.38896  Biso   1.000  C
  C221     1.0000 0.42748  0.46761  0.31079  Biso   1.000  C
  C222     1.0000 0.38896  0.37038  0.44630  Biso   1.000  C
  C223     1.0000 0.46761  0.31079  0.42748  Biso   1.000  C
  H254     1.0000 0.34831  0.47489  0.37939  Biso   1.000  H
  C224     1.0000 0.35808  0.41530  0.43440  Biso   1.000  C
  N37      1.0000 0.46351  0.45486  0.27794  Biso   1.000  N
  H255     1.0000 0.40802  0.49901  0.30500  Biso   1.000  H
  H256     1.0000 0.37939  0.34831  0.47489  Biso   1.000  H
  N38      1.0000 0.45486  0.27794  0.46351  Biso   1.000  N
  H257     1.0000 0.49901  0.30500  0.40802  Biso   1.000  H
  C225     1.0000 0.31079  0.42748  0.46761  Biso   1.000  C
  C226     1.0000 0.47211  0.48928  0.23105  Biso   1.000  C
  C227     1.0000 0.48928  0.23105  0.47211  Biso   1.000  C
  N39      1.0000 0.27794  0.46351  0.45486  Biso   1.000  N
  H258     1.0000 0.30500  0.40802  0.49901  Biso   1.000  H
  H259     1.0000 0.44678  0.51948  0.23250  Biso   1.000  H
  C228     1.0000 0.46162  0.45671  0.17990  Biso   1.000  C
  C229     1.0000 0.52789  0.51072  0.23105  Biso   1.000  C
  H260     1.0000 0.51948  0.23250  0.44678  Biso   1.000  H
  C230     1.0000 0.45671  0.17990  0.46162  Biso   1.000  C
  C231     1.0000 0.51072  0.23105  0.52789  Biso   1.000  C
  C232     1.0000 0.23105  0.47211  0.48928  Biso   1.000  C
  H261     1.0000 0.42458  0.44429  0.17978  Biso   1.000  H
  H262     1.0000 0.48490  0.42551  0.17938  Biso   1.000  H
  C233     1.0000 0.47199  0.49121  0.12960  Biso   1.000  C
  N40      1.0000 0.53649  0.54514  0.27794  Biso   1.000  N
  H263     1.0000 0.55322  0.48052  0.23250  Biso   1.000  H
  C234     1.0000 0.53838  0.54329  0.17990  Biso   1.000  C
  H264     1.0000 0.44429  0.17978  0.42458  Biso   1.000  H
  H265     1.0000 0.42551  0.17938  0.48490  Biso   1.000  H
  C235     1.0000 0.49121  0.12960  0.47199  Biso   1.000  C
  N41      1.0000 0.54514  0.27794  0.53649  Biso   1.000  N
  H266     1.0000 0.48052  0.23250  0.55322  Biso   1.000  H
  C236     1.0000 0.54329  0.17990  0.53838  Biso   1.000  C
  H267     1.0000 0.23250  0.44678  0.51948  Biso   1.000  H
  C237     1.0000 0.17990  0.46162  0.45671  Biso   1.000  C
  C238     1.0000 0.23105  0.52789  0.51072  Biso   1.000  C
  H268     1.0000 0.46472  0.47038  0.09751  Biso   1.000  H
  H269     1.0000 0.44839  0.52230  0.12960  Biso   1.000  H
  C239     1.0000 0.52801  0.50879  0.12960  Biso   1.000  C
  C240     1.0000 0.57252  0.53239  0.31079  Biso   1.000  C
  H270     1.0000 0.57542  0.55571  0.17978  Biso   1.000  H
  H271     1.0000 0.51510  0.57449  0.17938  Biso   1.000  H
  H272     1.0000 0.47038  0.09751  0.46472  Biso   1.000  H
  H273     1.0000 0.52230  0.12960  0.44839  Biso   1.000  H
  C241     1.0000 0.50879  0.12960  0.52801  Biso   1.000  C
  C242     1.0000 0.53239  0.31079  0.57252  Biso   1.000  C
  H274     1.0000 0.55571  0.17978  0.57542  Biso   1.000  H
  H275     1.0000 0.57449  0.17938  0.51510  Biso   1.000  H
  H276     1.0000 0.17978  0.42458  0.44429  Biso   1.000  H
  H277     1.0000 0.17938  0.48490  0.42551  Biso   1.000  H
  C243     1.0000 0.12960  0.47199  0.49121  Biso   1.000  C
  N42      1.0000 0.27794  0.53649  0.54514  Biso   1.000  N
  H278     1.0000 0.23250  0.55322  0.48052  Biso   1.000  H
  C244     1.0000 0.17990  0.53838  0.54329  Biso   1.000  C
  H279     1.0000 0.53528  0.52962  0.09751  Biso   1.000  H
  H280     1.0000 0.55161  0.47770  0.12960  Biso   1.000  H
  C245     1.0000 0.58470  0.56560  0.35808  Biso   1.000  C
  H281     1.0000 0.59198  0.50099  0.30500  Biso   1.000  H
  H282     1.0000 0.52962  0.09751  0.53528  Biso   1.000  H
  H283     1.0000 0.47770  0.12960  0.55161  Biso   1.000  H
  C246     1.0000 0.56560  0.35808  0.58470  Biso   1.000  C
  H284     1.0000 0.50099  0.30500  0.59198  Biso   1.000  H
  H285     1.0000 0.09751  0.46472  0.47038  Biso   1.000  H
  H286     1.0000 0.12960  0.44839  0.52230  Biso   1.000  H
  C247     1.0000 0.12960  0.52801  0.50879  Biso   1.000  C
  C248     1.0000 0.31079  0.57252  0.53239  Biso   1.000  C
  H287     1.0000 0.17978  0.57542  0.55571  Biso   1.000  H
  H288     1.0000 0.17938  0.51510  0.57449  Biso   1.000  H
  C249     1.0000 0.62962  0.55370  0.38896  Biso   1.000  C
  C250     1.0000 0.55370  0.61104  0.37038  Biso   1.000  C
  C251     1.0000 0.55370  0.38896  0.62962  Biso   1.000  C
  C252     1.0000 0.61104  0.37038  0.55370  Biso   1.000  C
  H289     1.0000 0.09751  0.53528  0.52962  Biso   1.000  H
  H290     1.0000 0.12960  0.55161  0.47770  Biso   1.000  H
  C253     1.0000 0.35808  0.58470  0.56560  Biso   1.000  C
  H291     1.0000 0.30500  0.59198  0.50099  Biso   1.000  H
  H292     1.0000 0.65169  0.52511  0.37939  Biso   1.000  H
  C254     1.0000 0.64192  0.58470  0.43440  Biso   1.000  C
  H293     1.0000 0.52511  0.62061  0.34831  Biso   1.000  H
  C255     1.0000 0.56560  0.64192  0.41530  Biso   1.000  C
  H294     1.0000 0.52511  0.37939  0.65169  Biso   1.000  H
  C256     1.0000 0.58470  0.43440  0.64192  Biso   1.000  C
  H295     1.0000 0.62061  0.34831  0.52511  Biso   1.000  H
  C257     1.0000 0.64192  0.41530  0.56560  Biso   1.000  C
  C258     1.0000 0.38896  0.62962  0.55370  Biso   1.000  C
  C259     1.0000 0.37038  0.55370  0.61104  Biso   1.000  C
  C260     1.0000 0.61104  0.62962  0.44630  Biso   1.000  C
  C261     1.0000 0.68921  0.57252  0.46761  Biso   1.000  C
  C262     1.0000 0.53239  0.68921  0.42748  Biso   1.000  C
  C263     1.0000 0.62962  0.44630  0.61104  Biso   1.000  C
  C264     1.0000 0.57252  0.46761  0.68921  Biso   1.000  C
  C265     1.0000 0.68921  0.42748  0.53239  Biso   1.000  C
  H296     1.0000 0.37939  0.65169  0.52511  Biso   1.000  H
  C266     1.0000 0.43440  0.64192  0.58470  Biso   1.000  C
  H297     1.0000 0.34831  0.52511  0.62061  Biso   1.000  H
  C267     1.0000 0.41530  0.56560  0.64192  Biso   1.000  C
  H298     1.0000 0.62061  0.65169  0.47489  Biso   1.000  H
  N43      1.0000 0.72206  0.53649  0.45486  Biso   1.000  N
  H299     1.0000 0.69500  0.59198  0.49901  Biso   1.000  H
  N44      1.0000 0.54514  0.72206  0.46351  Biso   1.000  N
  H300     1.0000 0.50099  0.69500  0.40802  Biso   1.000  H
  H301     1.0000 0.65169  0.47489  0.62061  Biso   1.000  H
  N45      1.0000 0.53649  0.45486  0.72206  Biso   1.000  N
  H302     1.0000 0.59198  0.49901  0.69500  Biso   1.000  H
  N46      1.0000 0.72206  0.46351  0.54514  Biso   1.000  N
  H303     1.0000 0.69500  0.40802  0.50099  Biso   1.000  H
  C268     1.0000 0.44630  0.61104  0.62962  Biso   1.000  C
  C269     1.0000 0.46761  0.68921  0.57252  Biso   1.000  C
  C270     1.0000 0.42748  0.53239  0.68921  Biso   1.000  C
  C271     1.0000 0.76895  0.52789  0.48928  Biso   1.000  C
  C272     1.0000 0.51072  0.76895  0.47211  Biso   1.000  C
  C273     1.0000 0.52789  0.48928  0.76895  Biso   1.000  C
  C274     1.0000 0.76895  0.47211  0.51072  Biso   1.000  C
  H304     1.0000 0.47489  0.62061  0.65169  Biso   1.000  H
  N47      1.0000 0.45486  0.72206  0.53649  Biso   1.000  N
  H305     1.0000 0.49901  0.69500  0.59198  Biso   1.000  H
  N48      1.0000 0.46351  0.54514  0.72206  Biso   1.000  N
  H306     1.0000 0.40802  0.50099  0.69500  Biso   1.000  H
  H307     1.0000 0.76750  0.55322  0.51948  Biso   1.000  H
  C275     1.0000 0.82010  0.53838  0.45671  Biso   1.000  C
  H308     1.0000 0.48052  0.76750  0.44678  Biso   1.000  H
  C276     1.0000 0.54329  0.82010  0.46162  Biso   1.000  C
  C277     1.0000 0.48928  0.76895  0.52789  Biso   1.000  C
  C278     1.0000 0.47211  0.51072  0.76895  Biso   1.000  C
  H309     1.0000 0.55322  0.51948  0.76750  Biso   1.000  H
  C279     1.0000 0.53838  0.45671  0.82010  Biso   1.000  C
  H310     1.0000 0.76750  0.44678  0.48052  Biso   1.000  H
  C280     1.0000 0.82010  0.46162  0.54329  Biso   1.000  C
  H311     1.0000 0.82022  0.57542  0.44429  Biso   1.000  H
  H312     1.0000 0.82062  0.51510  0.42551  Biso   1.000  H
  C281     1.0000 0.87040  0.52801  0.49121  Biso   1.000  C
  H313     1.0000 0.55571  0.82022  0.42458  Biso   1.000  H
  H314     1.0000 0.57449  0.82062  0.48490  Biso   1.000  H
  C282     1.0000 0.50879  0.87040  0.47199  Biso   1.000  C
  H315     1.0000 0.51948  0.76750  0.55322  Biso   1.000  H
  C283     1.0000 0.45671  0.82010  0.53838  Biso   1.000  C
  H316     1.0000 0.44678  0.48052  0.76750  Biso   1.000  H
  C284     1.0000 0.46162  0.54329  0.82010  Biso   1.000  C
  H317     1.0000 0.57542  0.44429  0.82022  Biso   1.000  H
  H318     1.0000 0.51510  0.42551  0.82062  Biso   1.000  H
  C285     1.0000 0.52801  0.49121  0.87040  Biso   1.000  C
  H319     1.0000 0.82022  0.42458  0.55571  Biso   1.000  H
  H320     1.0000 0.82062  0.48490  0.57449  Biso   1.000  H
  C286     1.0000 0.87040  0.47199  0.50879  Biso   1.000  C
  H321     1.0000 0.90249  0.53528  0.47038  Biso   1.000  H
  H322     1.0000 0.87040  0.55161  0.52230  Biso   1.000  H
  H323     1.0000 0.52962  0.90249  0.46472  Biso   1.000  H
  H324     1.0000 0.47770  0.87040  0.44839  Biso   1.000  H
  C287     1.0000 0.49121  0.87040  0.52801  Biso   1.000  C
  H325     1.0000 0.44429  0.82022  0.57542  Biso   1.000  H
  H326     1.0000 0.42551  0.82062  0.51510  Biso   1.000  H
  H327     1.0000 0.42458  0.55571  0.82022  Biso   1.000  H
  H328     1.0000 0.48490  0.57449  0.82062  Biso   1.000  H
  C288     1.0000 0.47199  0.50879  0.87040  Biso   1.000  C
  H329     1.0000 0.53528  0.47038  0.90249  Biso   1.000  H
  H330     1.0000 0.55161  0.52230  0.87040  Biso   1.000  H
  H331     1.0000 0.90249  0.46472  0.52962  Biso   1.000  H
  H332     1.0000 0.87040  0.44839  0.47770  Biso   1.000  H
  H333     1.0000 0.47038  0.90249  0.53528  Biso   1.000  H
  H334     1.0000 0.52230  0.87040  0.55161  Biso   1.000  H
  H335     1.0000 0.46472  0.52962  0.90249  Biso   1.000  H
  H336     1.0000 0.44839  0.47770  0.87040  Biso   1.000  H
  C289     1.0000 0.44630  0.11106  0.12960  Biso   1.000  C
  H337     1.0000 0.47489  0.12059  0.15171  Biso   1.000  H
  C290     1.0000 0.43440  0.14190  0.08472  Biso   1.000  C
  C291     1.0000 0.41530  0.06558  0.14190  Biso   1.000  C
  C292     1.0000 0.38896  0.12960  0.05368  Biso   1.000  C
  C293     1.0000 0.46761  0.18919  0.07250  Biso   1.000  C
  C294     1.0000 0.37038  0.05368  0.11106  Biso   1.000  C
  C295     1.0000 0.42748  0.03241  0.18919  Biso   1.000  C
  H338     1.0000 0.37939  0.15171  0.02509  Biso   1.000  H
  C296     1.0000 0.35808  0.08472  0.06558  Biso   1.000  C
  N49      1.0000 0.45486  0.22208  0.03651  Biso   1.000  N
  H339     1.0000 0.49901  0.19498  0.09200  Biso   1.000  H
  H340     1.0000 0.34831  0.02509  0.12059  Biso   1.000  H
  N50      1.0000 0.46351  0.04516  0.22208  Biso   1.000  N
  H341     1.0000 0.40802  0.00101  0.19498  Biso   1.000  H
  C297     1.0000 0.31079  0.07250  0.03241  Biso   1.000  C
  C298     1.0000 0.48928  0.26893  0.02791  Biso   1.000  C
  C299     1.0000 0.47211  0.01070  0.26893  Biso   1.000  C
  N51      1.0000 0.27794  0.03651  0.04516  Biso   1.000  N
  H342     1.0000 0.30500  0.09200  0.00101  Biso   1.000  H
  H343     1.0000 0.51948  0.26748  0.05320  Biso   1.000  H
  C300     1.0000 0.45671  0.32012  0.03840  Biso   1.000  C
  C301     1.0000 0.51072  0.26893  0.97209  Biso   1.000  C
  C302     1.0000 0.46162  0.04331  0.32012  Biso   1.000  C
  H344     1.0000 0.44678  0.98050  0.26748  Biso   1.000  H
  C303     1.0000 0.52789  0.98930  0.26893  Biso   1.000  C
  C304     1.0000 0.23105  0.02791  0.01070  Biso   1.000  C
  H345     1.0000 0.44429  0.32020  0.07540  Biso   1.000  H
  H346     1.0000 0.42551  0.32060  0.01512  Biso   1.000  H
  C305     1.0000 0.49121  0.37038  0.02799  Biso   1.000  C
  N52      1.0000 0.54514  0.22208  0.96349  Biso   1.000  N
  H347     1.0000 0.48052  0.26748  0.94680  Biso   1.000  H
  C306     1.0000 0.54329  0.32012  0.96160  Biso   1.000  C
  H348     1.0000 0.42458  0.05569  0.32020  Biso   1.000  H
  H349     1.0000 0.48490  0.07451  0.32060  Biso   1.000  H
  C307     1.0000 0.47199  0.00881  0.37038  Biso   1.000  C
  H350     1.0000 0.55322  0.01950  0.26748  Biso   1.000  H
  N53      1.0000 0.53649  0.95484  0.22208  Biso   1.000  N
  C308     1.0000 0.53838  0.95669  0.32012  Biso   1.000  C
  C309     1.0000 0.17990  0.03840  0.04331  Biso   1.000  C
  C310     1.0000 0.23105  0.97209  0.98930  Biso   1.000  C
  H351     1.0000 0.23250  0.05320  0.98050  Biso   1.000  H
  H352     1.0000 0.47038  0.40251  0.03530  Biso   1.000  H
  H353     1.0000 0.52230  0.37038  0.05159  Biso   1.000  H
  C311     1.0000 0.50879  0.37038  0.97201  Biso   1.000  C
  C312     1.0000 0.53239  0.18919  0.92750  Biso   1.000  C
  H354     1.0000 0.55571  0.32020  0.92460  Biso   1.000  H
  H355     1.0000 0.57449  0.32060  0.98488  Biso   1.000  H
  H356     1.0000 0.46472  0.02960  0.40251  Biso   1.000  H
  H357     1.0000 0.44839  0.97768  0.37038  Biso   1.000  H
  C313     1.0000 0.52801  0.99119  0.37038  Biso   1.000  C
  C314     1.0000 0.57252  0.96759  0.18919  Biso   1.000  C
  H358     1.0000 0.57542  0.94431  0.32020  Biso   1.000  H
  H359     1.0000 0.51510  0.92549  0.32060  Biso   1.000  H
  H360     1.0000 0.17978  0.07540  0.05569  Biso   1.000  H
  H361     1.0000 0.17938  0.01512  0.07451  Biso   1.000  H
  C315     1.0000 0.12960  0.02799  0.00881  Biso   1.000  C
  N54      1.0000 0.27794  0.96349  0.95484  Biso   1.000  N
  C316     1.0000 0.17990  0.96160  0.95669  Biso   1.000  C
  H362     1.0000 0.23250  0.94680  0.01950  Biso   1.000  H
  H363     1.0000 0.52962  0.40251  0.96470  Biso   1.000  H
  H364     1.0000 0.47770  0.37038  0.94841  Biso   1.000  H
  C317     1.0000 0.56560  0.14190  0.91528  Biso   1.000  C
  H365     1.0000 0.50099  0.19498  0.90800  Biso   1.000  H
  H366     1.0000 0.55161  0.02232  0.37038  Biso   1.000  H
  H367     1.0000 0.53528  0.97040  0.40251  Biso   1.000  H
  C318     1.0000 0.58470  0.93442  0.14190  Biso   1.000  C
  H368     1.0000 0.59198  0.99899  0.19498  Biso   1.000  H
  H369     1.0000 0.09751  0.03530  0.02960  Biso   1.000  H
  C319     1.0000 0.12960  0.97201  0.99119  Biso   1.000  C
  H370     1.0000 0.12960  0.05159  0.97768  Biso   1.000  H
  C320     1.0000 0.31079  0.92750  0.96759  Biso   1.000  C
  H371     1.0000 0.17978  0.92460  0.94431  Biso   1.000  H
  H372     1.0000 0.17938  0.98488  0.92549  Biso   1.000  H
  C321     1.0000 0.55370  0.11106  0.87040  Biso   1.000  C
  C322     1.0000 0.61104  0.12960  0.94632  Biso   1.000  C
  C323     1.0000 0.55370  0.88894  0.12960  Biso   1.000  C
  C324     1.0000 0.62962  0.94632  0.11106  Biso   1.000  C
  H373     1.0000 0.09751  0.96470  0.97040  Biso   1.000  H
  H374     1.0000 0.12960  0.94841  0.02232  Biso   1.000  H
  C325     1.0000 0.35808  0.91528  0.93442  Biso   1.000  C
  H375     1.0000 0.30500  0.90800  0.99899  Biso   1.000  H
  C326     1.0000 0.58470  0.06558  0.85810  Biso   1.000  C
  H376     1.0000 0.52511  0.12059  0.84829  Biso   1.000  H
  H377     1.0000 0.62061  0.15171  0.97491  Biso   1.000  H
  C327     1.0000 0.64192  0.08472  0.93442  Biso   1.000  C
  H378     1.0000 0.52511  0.87941  0.15171  Biso   1.000  H
  C328     1.0000 0.56560  0.85810  0.08472  Biso   1.000  C
  C329     1.0000 0.64192  0.91528  0.06558  Biso   1.000  C
  H379     1.0000 0.65169  0.97491  0.12059  Biso   1.000  H
  C330     1.0000 0.37038  0.94632  0.88894  Biso   1.000  C
  C331     1.0000 0.38896  0.87040  0.94632  Biso   1.000  C
  C332     1.0000 0.62962  0.05368  0.88894  Biso   1.000  C
  C333     1.0000 0.57252  0.03241  0.81081  Biso   1.000  C
  C334     1.0000 0.68921  0.07250  0.96759  Biso   1.000  C
  C335     1.0000 0.53239  0.81081  0.07250  Biso   1.000  C
  C336     1.0000 0.61104  0.87040  0.05368  Biso   1.000  C
  C337     1.0000 0.68921  0.92750  0.03241  Biso   1.000  C
  H380     1.0000 0.34831  0.97491  0.87941  Biso   1.000  H
  C338     1.0000 0.41530  0.93442  0.85810  Biso   1.000  C
  H381     1.0000 0.37939  0.84829  0.97491  Biso   1.000  H
  C339     1.0000 0.43440  0.85810  0.91528  Biso   1.000  C
  H382     1.0000 0.65169  0.02509  0.87941  Biso   1.000  H
  N55      1.0000 0.53649  0.04516  0.77792  Biso   1.000  N
  H383     1.0000 0.59198  0.00101  0.80502  Biso   1.000  H
  N56      1.0000 0.72206  0.03651  0.95484  Biso   1.000  N
  H384     1.0000 0.69500  0.09200  0.99899  Biso   1.000  H
  N57      1.0000 0.54514  0.77792  0.03651  Biso   1.000  N
  H385     1.0000 0.50099  0.80502  0.09200  Biso   1.000  H
  H386     1.0000 0.62061  0.84829  0.02509  Biso   1.000  H
  N58      1.0000 0.72206  0.96349  0.04516  Biso   1.000  N
  H387     1.0000 0.69500  0.90800  0.00101  Biso   1.000  H
  C340     1.0000 0.42748  0.96759  0.81081  Biso   1.000  C
  C341     1.0000 0.44630  0.88894  0.87040  Biso   1.000  C
  C342     1.0000 0.46761  0.81081  0.92750  Biso   1.000  C
  C343     1.0000 0.52789  0.01070  0.73107  Biso   1.000  C
  C344     1.0000 0.76895  0.02791  0.98930  Biso   1.000  C
  C345     1.0000 0.51072  0.73107  0.02791  Biso   1.000  C
  C346     1.0000 0.76895  0.97209  0.01070  Biso   1.000  C
  N59      1.0000 0.46351  0.95484  0.77792  Biso   1.000  N
  H388     1.0000 0.40802  0.99899  0.80502  Biso   1.000  H
  H389     1.0000 0.47489  0.87941  0.84829  Biso   1.000  H
  N60      1.0000 0.45486  0.77792  0.96349  Biso   1.000  N
  H390     1.0000 0.49901  0.80502  0.90800  Biso   1.000  H
  C347     1.0000 0.47211  0.98930  0.73107  Biso   1.000  C
  H391     1.0000 0.55322  0.98050  0.73252  Biso   1.000  H
  C348     1.0000 0.53838  0.04331  0.67988  Biso   1.000  C
  H392     1.0000 0.76750  0.05320  0.01950  Biso   1.000  H
  C349     1.0000 0.82010  0.03840  0.95669  Biso   1.000  C
  C350     1.0000 0.48928  0.73107  0.97209  Biso   1.000  C
  H393     1.0000 0.48052  0.73252  0.05320  Biso   1.000  H
  C351     1.0000 0.54329  0.67988  0.03840  Biso   1.000  C
  H394     1.0000 0.76750  0.94680  0.98050  Biso   1.000  H
  C352     1.0000 0.82010  0.96160  0.04331  Biso   1.000  C
  C353     1.0000 0.46162  0.95669  0.67988  Biso   1.000  C
  H395     1.0000 0.44678  0.01950  0.73252  Biso   1.000  H
  H396     1.0000 0.57542  0.05569  0.67980  Biso   1.000  H
  H397     1.0000 0.51510  0.07451  0.67940  Biso   1.000  H
  C354     1.0000 0.52801  0.00881  0.62962  Biso   1.000  C
  H398     1.0000 0.82022  0.07540  0.94431  Biso   1.000  H
  H399     1.0000 0.82062  0.01512  0.92549  Biso   1.000  H
  C355     1.0000 0.87040  0.02799  0.99119  Biso   1.000  C
  H400     1.0000 0.51948  0.73252  0.94680  Biso   1.000  H
  C356     1.0000 0.45671  0.67988  0.96160  Biso   1.000  C
  H401     1.0000 0.55571  0.67980  0.07540  Biso   1.000  H
  H402     1.0000 0.57449  0.67940  0.01512  Biso   1.000  H
  C357     1.0000 0.50879  0.62962  0.02799  Biso   1.000  C
  H403     1.0000 0.82022  0.92460  0.05569  Biso   1.000  H
  H404     1.0000 0.82062  0.98488  0.07451  Biso   1.000  H
  C358     1.0000 0.87040  0.97201  0.00881  Biso   1.000  C
  H405     1.0000 0.42458  0.94431  0.67980  Biso   1.000  H
  H406     1.0000 0.48490  0.92549  0.67940  Biso   1.000  H
  C359     1.0000 0.47199  0.99119  0.62962  Biso   1.000  C
  H407     1.0000 0.55161  0.97768  0.62962  Biso   1.000  H
  H408     1.0000 0.53528  0.02960  0.59749  Biso   1.000  H
  H409     1.0000 0.87040  0.05159  0.02232  Biso   1.000  H
  H410     1.0000 0.90249  0.03530  0.97040  Biso   1.000  H
  H411     1.0000 0.44429  0.67980  0.92460  Biso   1.000  H
  H412     1.0000 0.42551  0.67940  0.98488  Biso   1.000  H
  C360     1.0000 0.49121  0.62962  0.97201  Biso   1.000  C
  H413     1.0000 0.52962  0.59749  0.03530  Biso   1.000  H
  H414     1.0000 0.47770  0.62962  0.05159  Biso   1.000  H
  H415     1.0000 0.87040  0.94841  0.97768  Biso   1.000  H
  H416     1.0000 0.90249  0.96470  0.02960  Biso   1.000  H
  H417     1.0000 0.46472  0.97040  0.59749  Biso   1.000  H
  H418     1.0000 0.44839  0.02232  0.62962  Biso   1.000  H
  H419     1.0000 0.47038  0.59749  0.96470  Biso   1.000  H
  H420     1.0000 0.52230  0.62962  0.94841  Biso   1.000  H
  C361     1.0000 0.12960  0.44630  0.11106  Biso   1.000  C
  C362     1.0000 0.14190  0.41530  0.06558  Biso   1.000  C
  H421     1.0000 0.15171  0.47489  0.12059  Biso   1.000  H
  C363     1.0000 0.08472  0.43440  0.14190  Biso   1.000  C
  C364     1.0000 0.11106  0.37038  0.05368  Biso   1.000  C
  C365     1.0000 0.18919  0.42748  0.03241  Biso   1.000  C
  C366     1.0000 0.05368  0.38896  0.12960  Biso   1.000  C
  C367     1.0000 0.07250  0.46761  0.18919  Biso   1.000  C
  C368     1.0000 0.06558  0.35808  0.08472  Biso   1.000  C
  H422     1.0000 0.12059  0.34831  0.02509  Biso   1.000  H
  N61      1.0000 0.22208  0.46351  0.04516  Biso   1.000  N
  H423     1.0000 0.19498  0.40802  0.00101  Biso   1.000  H
  H424     1.0000 0.02509  0.37939  0.15171  Biso   1.000  H
  N62      1.0000 0.03651  0.45486  0.22208  Biso   1.000  N
  H425     1.0000 0.09200  0.49901  0.19498  Biso   1.000  H
  C369     1.0000 0.03241  0.31079  0.07250  Biso   1.000  C
  C370     1.0000 0.26893  0.47211  0.01070  Biso   1.000  C
  C371     1.0000 0.02791  0.48928  0.26893  Biso   1.000  C
  N63      1.0000 0.04516  0.27794  0.03651  Biso   1.000  N
  H426     1.0000 0.00101  0.30500  0.09200  Biso   1.000  H
  C372     1.0000 0.32012  0.46162  0.04331  Biso   1.000  C
  C373     1.0000 0.26893  0.52789  0.98930  Biso   1.000  C
  H427     1.0000 0.26748  0.44678  0.98050  Biso   1.000  H
  H428     1.0000 0.05320  0.51948  0.26748  Biso   1.000  H
  C374     1.0000 0.03840  0.45671  0.32012  Biso   1.000  C
  C375     1.0000 0.97209  0.51072  0.26893  Biso   1.000  C
  C376     1.0000 0.01070  0.23105  0.02791  Biso   1.000  C
  H429     1.0000 0.32020  0.42458  0.05569  Biso   1.000  H
  H430     1.0000 0.32060  0.48490  0.07451  Biso   1.000  H
  C377     1.0000 0.37038  0.47199  0.00881  Biso   1.000  C
  H431     1.0000 0.26748  0.55322  0.01950  Biso   1.000  H
  N64      1.0000 0.22208  0.53649  0.95484  Biso   1.000  N
  C378     1.0000 0.32012  0.53838  0.95669  Biso   1.000  C
  H432     1.0000 0.07540  0.44429  0.32020  Biso   1.000  H
  H433     1.0000 0.01512  0.42551  0.32060  Biso   1.000  H
  C379     1.0000 0.02799  0.49121  0.37038  Biso   1.000  C
  N65      1.0000 0.96349  0.54514  0.22208  Biso   1.000  N
  H434     1.0000 0.94680  0.48052  0.26748  Biso   1.000  H
  C380     1.0000 0.96160  0.54329  0.32012  Biso   1.000  C
  C381     1.0000 0.04331  0.17990  0.03840  Biso   1.000  C
  C382     1.0000 0.98930  0.23105  0.97209  Biso   1.000  C
  H435     1.0000 0.98050  0.23250  0.05320  Biso   1.000  H
  H436     1.0000 0.40251  0.46472  0.02960  Biso   1.000  H
  C383     1.0000 0.37038  0.52801  0.99119  Biso   1.000  C
  H437     1.0000 0.37038  0.44839  0.97768  Biso   1.000  H
  C384     1.0000 0.18919  0.57252  0.96759  Biso   1.000  C
  H438     1.0000 0.32020  0.57542  0.94431  Biso   1.000  H
  H439     1.0000 0.32060  0.51510  0.92549  Biso   1.000  H
  H440     1.0000 0.03530  0.47038  0.40251  Biso   1.000  H
  H441     1.0000 0.05159  0.52230  0.37038  Biso   1.000  H
  C385     1.0000 0.97201  0.50879  0.37038  Biso   1.000  C
  C386     1.0000 0.92750  0.53239  0.18919  Biso   1.000  C
  H442     1.0000 0.92460  0.55571  0.32020  Biso   1.000  H
  H443     1.0000 0.98488  0.57449  0.32060  Biso   1.000  H
  H444     1.0000 0.05569  0.17978  0.07540  Biso   1.000  H
  H445     1.0000 0.07451  0.17938  0.01512  Biso   1.000  H
  C387     1.0000 0.00881  0.12960  0.02799  Biso   1.000  C
  N66      1.0000 0.95484  0.27794  0.96349  Biso   1.000  N
  C388     1.0000 0.95669  0.17990  0.96160  Biso   1.000  C
  H446     1.0000 0.01950  0.23250  0.94680  Biso   1.000  H
  H447     1.0000 0.37038  0.55161  0.02232  Biso   1.000  H
  H448     1.0000 0.40251  0.53528  0.97040  Biso   1.000  H
  C389     1.0000 0.14190  0.58470  0.93442  Biso   1.000  C
  H449     1.0000 0.19498  0.59198  0.99899  Biso   1.000  H
  H450     1.0000 0.96470  0.52962  0.40251  Biso   1.000  H
  H451     1.0000 0.94841  0.47770  0.37038  Biso   1.000  H
  C390     1.0000 0.91528  0.56560  0.14190  Biso   1.000  C
  H452     1.0000 0.90800  0.50099  0.19498  Biso   1.000  H
  H453     1.0000 0.02960  0.09751  0.03530  Biso   1.000  H
  C391     1.0000 0.99119  0.12960  0.97201  Biso   1.000  C
  H454     1.0000 0.97768  0.12960  0.05159  Biso   1.000  H
  C392     1.0000 0.96759  0.31079  0.92750  Biso   1.000  C
  H455     1.0000 0.94431  0.17978  0.92460  Biso   1.000  H
  H456     1.0000 0.92549  0.17938  0.98488  Biso   1.000  H
  C393     1.0000 0.12960  0.55370  0.88894  Biso   1.000  C
  C394     1.0000 0.11106  0.62962  0.94632  Biso   1.000  C
  C395     1.0000 0.94632  0.61104  0.12960  Biso   1.000  C
  C396     1.0000 0.87040  0.55370  0.11106  Biso   1.000  C
  H457     1.0000 0.97040  0.09751  0.96470  Biso   1.000  H
  H458     1.0000 0.02232  0.12960  0.94841  Biso   1.000  H
  C397     1.0000 0.93442  0.35808  0.91528  Biso   1.000  C
  H459     1.0000 0.99899  0.30500  0.90800  Biso   1.000  H
  H460     1.0000 0.15171  0.52511  0.87941  Biso   1.000  H
  C398     1.0000 0.08472  0.56560  0.85810  Biso   1.000  C
  C399     1.0000 0.06558  0.64192  0.91528  Biso   1.000  C
  H461     1.0000 0.12059  0.65169  0.97491  Biso   1.000  H
  H462     1.0000 0.97491  0.62061  0.15171  Biso   1.000  H
  C400     1.0000 0.93442  0.64192  0.08472  Biso   1.000  C
  C401     1.0000 0.85810  0.58470  0.06558  Biso   1.000  C
  H463     1.0000 0.84829  0.52511  0.12059  Biso   1.000  H
  C402     1.0000 0.88894  0.37038  0.94632  Biso   1.000  C
  C403     1.0000 0.94632  0.38896  0.87040  Biso   1.000  C
  C404     1.0000 0.07250  0.53239  0.81081  Biso   1.000  C
  C405     1.0000 0.05368  0.61104  0.87040  Biso   1.000  C
  C406     1.0000 0.03241  0.68921  0.92750  Biso   1.000  C
  C407     1.0000 0.88894  0.62962  0.05368  Biso   1.000  C
  C408     1.0000 0.96759  0.68921  0.07250  Biso   1.000  C
  C409     1.0000 0.81081  0.57252  0.03241  Biso   1.000  C
  H464     1.0000 0.87941  0.34831  0.97491  Biso   1.000  H
  C410     1.0000 0.85810  0.41530  0.93442  Biso   1.000  C
  C411     1.0000 0.91528  0.43440  0.85810  Biso   1.000  C
  H465     1.0000 0.97491  0.37939  0.84829  Biso   1.000  H
  N67      1.0000 0.03651  0.54514  0.77792  Biso   1.000  N
  H466     1.0000 0.09200  0.50099  0.80502  Biso   1.000  H
  H467     1.0000 0.02509  0.62061  0.84829  Biso   1.000  H
  N68      1.0000 0.04516  0.72206  0.96349  Biso   1.000  N
  H468     1.0000 0.00101  0.69500  0.90800  Biso   1.000  H
  H469     1.0000 0.87941  0.65169  0.02509  Biso   1.000  H
  N69      1.0000 0.95484  0.72206  0.03651  Biso   1.000  N
  H470     1.0000 0.99899  0.69500  0.09200  Biso   1.000  H
  N70      1.0000 0.77792  0.53649  0.04516  Biso   1.000  N
  H471     1.0000 0.80502  0.59198  0.00101  Biso   1.000  H
  C412     1.0000 0.87040  0.44630  0.88894  Biso   1.000  C
  C413     1.0000 0.81081  0.42748  0.96759  Biso   1.000  C
  C414     1.0000 0.92750  0.46761  0.81081  Biso   1.000  C
  C415     1.0000 0.02791  0.51072  0.73107  Biso   1.000  C
  C416     1.0000 0.01070  0.76895  0.97209  Biso   1.000  C
  C417     1.0000 0.98930  0.76895  0.02791  Biso   1.000  C
  C418     1.0000 0.73107  0.52789  0.01070  Biso   1.000  C
  H472     1.0000 0.84829  0.47489  0.87941  Biso   1.000  H
  N71      1.0000 0.77792  0.46351  0.95484  Biso   1.000  N
  H473     1.0000 0.80502  0.40802  0.99899  Biso   1.000  H
  N72      1.0000 0.96349  0.45486  0.77792  Biso   1.000  N
  H474     1.0000 0.90800  0.49901  0.80502  Biso   1.000  H
  C419     1.0000 0.97209  0.48928  0.73107  Biso   1.000  C
  H475     1.0000 0.05320  0.48052  0.73252  Biso   1.000  H
  C420     1.0000 0.03840  0.54329  0.67988  Biso   1.000  C
  H476     1.0000 0.98050  0.76750  0.94680  Biso   1.000  H
  C421     1.0000 0.04331  0.82010  0.96160  Biso   1.000  C
  H477     1.0000 0.01950  0.76750  0.05320  Biso   1.000  H
  C422     1.0000 0.95669  0.82010  0.03840  Biso   1.000  C
  C423     1.0000 0.73107  0.47211  0.98930  Biso   1.000  C
  H478     1.0000 0.73252  0.55322  0.98050  Biso   1.000  H
  C424     1.0000 0.67988  0.53838  0.04331  Biso   1.000  C
  H479     1.0000 0.94680  0.51948  0.73252  Biso   1.000  H
  C425     1.0000 0.96160  0.45671  0.67988  Biso   1.000  C
  H480     1.0000 0.07540  0.55571  0.67980  Biso   1.000  H
  H481     1.0000 0.01512  0.57449  0.67940  Biso   1.000  H
  C426     1.0000 0.02799  0.50879  0.62962  Biso   1.000  C
  H482     1.0000 0.05569  0.82022  0.92460  Biso   1.000  H
  H483     1.0000 0.07451  0.82062  0.98488  Biso   1.000  H
  C427     1.0000 0.00881  0.87040  0.97201  Biso   1.000  C
  H484     1.0000 0.94431  0.82022  0.07540  Biso   1.000  H
  H485     1.0000 0.92549  0.82062  0.01512  Biso   1.000  H
  C428     1.0000 0.99119  0.87040  0.02799  Biso   1.000  C
  C429     1.0000 0.67988  0.46162  0.95669  Biso   1.000  C
  H486     1.0000 0.73252  0.44678  0.01950  Biso   1.000  H
  H487     1.0000 0.67980  0.57542  0.05569  Biso   1.000  H
  H488     1.0000 0.67940  0.51510  0.07451  Biso   1.000  H
  C430     1.0000 0.62962  0.52801  0.00881  Biso   1.000  C
  H489     1.0000 0.92460  0.44429  0.67980  Biso   1.000  H
  H490     1.0000 0.98488  0.42551  0.67940  Biso   1.000  H
  C431     1.0000 0.97201  0.49121  0.62962  Biso   1.000  C
  H491     1.0000 0.03530  0.52962  0.59749  Biso   1.000  H
  H492     1.0000 0.05159  0.47770  0.62962  Biso   1.000  H
  H493     1.0000 0.97768  0.87040  0.94841  Biso   1.000  H
  H494     1.0000 0.02960  0.90249  0.96470  Biso   1.000  H
  H495     1.0000 0.02232  0.87040  0.05159  Biso   1.000  H
  H496     1.0000 0.97040  0.90249  0.03530  Biso   1.000  H
  H497     1.0000 0.67980  0.42458  0.94431  Biso   1.000  H
  H498     1.0000 0.67940  0.48490  0.92549  Biso   1.000  H
  C432     1.0000 0.62962  0.47199  0.99119  Biso   1.000  C
  H499     1.0000 0.62962  0.55161  0.97768  Biso   1.000  H
  H500     1.0000 0.59749  0.53528  0.02960  Biso   1.000  H
  H501     1.0000 0.96470  0.47038  0.59749  Biso   1.000  H
  H502     1.0000 0.94841  0.52230  0.62962  Biso   1.000  H
  H503     1.0000 0.59749  0.46472  0.97040  Biso   1.000  H
  H504     1.0000 0.62962  0.44839  0.02232  Biso   1.000  H
  C433     1.0000 0.11106  0.12960  0.44630  Biso   1.000  C
  C434     1.0000 0.14190  0.08472  0.43440  Biso   1.000  C
  C435     1.0000 0.06558  0.14190  0.41530  Biso   1.000  C
  H505     1.0000 0.12059  0.15171  0.47489  Biso   1.000  H
  C436     1.0000 0.12960  0.05368  0.38896  Biso   1.000  C
  C437     1.0000 0.18919  0.07250  0.46761  Biso   1.000  C
  C438     1.0000 0.05368  0.11106  0.37038  Biso   1.000  C
  C439     1.0000 0.03241  0.18919  0.42748  Biso   1.000  C
  H506     1.0000 0.15171  0.02509  0.37939  Biso   1.000  H
  C440     1.0000 0.08472  0.06558  0.35808  Biso   1.000  C
  N73      1.0000 0.22208  0.03651  0.45486  Biso   1.000  N
  H507     1.0000 0.19498  0.09200  0.49901  Biso   1.000  H
  H508     1.0000 0.02509  0.12059  0.34831  Biso   1.000  H
  N74      1.0000 0.04516  0.22208  0.46351  Biso   1.000  N
  H509     1.0000 0.00101  0.19498  0.40802  Biso   1.000  H
  C441     1.0000 0.07250  0.03241  0.31079  Biso   1.000  C
  C442     1.0000 0.26893  0.02791  0.48928  Biso   1.000  C
  C443     1.0000 0.01070  0.26893  0.47211  Biso   1.000  C
  N75      1.0000 0.03651  0.04516  0.27794  Biso   1.000  N
  H510     1.0000 0.09200  0.00101  0.30500  Biso   1.000  H
  H511     1.0000 0.26748  0.05320  0.51948  Biso   1.000  H
  C444     1.0000 0.32012  0.03840  0.45671  Biso   1.000  C
  C445     1.0000 0.26893  0.97209  0.51072  Biso   1.000  C
  C446     1.0000 0.04331  0.32012  0.46162  Biso   1.000  C
  H512     1.0000 0.98050  0.26748  0.44678  Biso   1.000  H
  C447     1.0000 0.98930  0.26893  0.52789  Biso   1.000  C
  C448     1.0000 0.02791  0.01070  0.23105  Biso   1.000  C
  H513     1.0000 0.32020  0.07540  0.44429  Biso   1.000  H
  H514     1.0000 0.32060  0.01512  0.42551  Biso   1.000  H
  C449     1.0000 0.37038  0.02799  0.49121  Biso   1.000  C
  N76      1.0000 0.22208  0.96349  0.54514  Biso   1.000  N
  H515     1.0000 0.26748  0.94680  0.48052  Biso   1.000  H
  C450     1.0000 0.32012  0.96160  0.54329  Biso   1.000  C
  H516     1.0000 0.05569  0.32020  0.42458  Biso   1.000  H
  H517     1.0000 0.07451  0.32060  0.48490  Biso   1.000  H
  C451     1.0000 0.00881  0.37038  0.47199  Biso   1.000  C
  H518     1.0000 0.01950  0.26748  0.55322  Biso   1.000  H
  N77      1.0000 0.95484  0.22208  0.53649  Biso   1.000  N
  C452     1.0000 0.95669  0.32012  0.53838  Biso   1.000  C
  C453     1.0000 0.03840  0.04331  0.17990  Biso   1.000  C
  C454     1.0000 0.97209  0.98930  0.23105  Biso   1.000  C
  H519     1.0000 0.05320  0.98050  0.23250  Biso   1.000  H
  H520     1.0000 0.40251  0.03530  0.47038  Biso   1.000  H
  H521     1.0000 0.37038  0.05159  0.52230  Biso   1.000  H
  C455     1.0000 0.37038  0.97201  0.50879  Biso   1.000  C
  C456     1.0000 0.18919  0.92750  0.53239  Biso   1.000  C
  H522     1.0000 0.32020  0.92460  0.55571  Biso   1.000  H
  H523     1.0000 0.32060  0.98488  0.57449  Biso   1.000  H
  H524     1.0000 0.02960  0.40251  0.46472  Biso   1.000  H
  H525     1.0000 0.97768  0.37038  0.44839  Biso   1.000  H
  C457     1.0000 0.99119  0.37038  0.52801  Biso   1.000  C
  C458     1.0000 0.96759  0.18919  0.57252  Biso   1.000  C
  H526     1.0000 0.94431  0.32020  0.57542  Biso   1.000  H
  H527     1.0000 0.92549  0.32060  0.51510  Biso   1.000  H
  H528     1.0000 0.07540  0.05569  0.17978  Biso   1.000  H
  H529     1.0000 0.01512  0.07451  0.17938  Biso   1.000  H
  C459     1.0000 0.02799  0.00881  0.12960  Biso   1.000  C
  N78      1.0000 0.96349  0.95484  0.27794  Biso   1.000  N
  C460     1.0000 0.96160  0.95669  0.17990  Biso   1.000  C
  H530     1.0000 0.94680  0.01950  0.23250  Biso   1.000  H
  H531     1.0000 0.40251  0.96470  0.52962  Biso   1.000  H
  H532     1.0000 0.37038  0.94841  0.47770  Biso   1.000  H
  C461     1.0000 0.14190  0.91528  0.56560  Biso   1.000  C
  H533     1.0000 0.19498  0.90800  0.50099  Biso   1.000  H
  H534     1.0000 0.02232  0.37038  0.55161  Biso   1.000  H
  H535     1.0000 0.97040  0.40251  0.53528  Biso   1.000  H
  C462     1.0000 0.93442  0.14190  0.58470  Biso   1.000  C
  H536     1.0000 0.99899  0.19498  0.59198  Biso   1.000  H
  H537     1.0000 0.03530  0.02960  0.09751  Biso   1.000  H
  C463     1.0000 0.97201  0.99119  0.12960  Biso   1.000  C
  H538     1.0000 0.05159  0.97768  0.12960  Biso   1.000  H
  C464     1.0000 0.92750  0.96759  0.31079  Biso   1.000  C
  H539     1.0000 0.92460  0.94431  0.17978  Biso   1.000  H
  H540     1.0000 0.98488  0.92549  0.17938  Biso   1.000  H
  C465     1.0000 0.11106  0.87040  0.55370  Biso   1.000  C
  C466     1.0000 0.12960  0.94632  0.61104  Biso   1.000  C
  C467     1.0000 0.88894  0.12960  0.55370  Biso   1.000  C
  C468     1.0000 0.94632  0.11106  0.62962  Biso   1.000  C
  H541     1.0000 0.96470  0.97040  0.09751  Biso   1.000  H
  H542     1.0000 0.94841  0.02232  0.12960  Biso   1.000  H
  C469     1.0000 0.91528  0.93442  0.35808  Biso   1.000  C
  H543     1.0000 0.90800  0.99899  0.30500  Biso   1.000  H
  C470     1.0000 0.06558  0.85810  0.58470  Biso   1.000  C
  H544     1.0000 0.12059  0.84829  0.52511  Biso   1.000  H
  H545     1.0000 0.15171  0.97491  0.62061  Biso   1.000  H
  C471     1.0000 0.08472  0.93442  0.64192  Biso   1.000  C
  H546     1.0000 0.87941  0.15171  0.52511  Biso   1.000  H
  C472     1.0000 0.85810  0.08472  0.56560  Biso   1.000  C
  H547     1.0000 0.97491  0.12059  0.65169  Biso   1.000  H
  C473     1.0000 0.91528  0.06558  0.64192  Biso   1.000  C
  C474     1.0000 0.87040  0.94632  0.38896  Biso   1.000  C
  C475     1.0000 0.94632  0.88894  0.37038  Biso   1.000  C
  C476     1.0000 0.05368  0.88894  0.62962  Biso   1.000  C
  C477     1.0000 0.03241  0.81081  0.57252  Biso   1.000  C
  C478     1.0000 0.07250  0.96759  0.68921  Biso   1.000  C
  C479     1.0000 0.81081  0.07250  0.53239  Biso   1.000  C
  C480     1.0000 0.87040  0.05368  0.61104  Biso   1.000  C
  C481     1.0000 0.92750  0.03241  0.68921  Biso   1.000  C
  H548     1.0000 0.84829  0.97491  0.37939  Biso   1.000  H
  C482     1.0000 0.85810  0.91528  0.43440  Biso   1.000  C
  H549     1.0000 0.97491  0.87941  0.34831  Biso   1.000  H
  C483     1.0000 0.93442  0.85810  0.41530  Biso   1.000  C
  H550     1.0000 0.02509  0.87941  0.65169  Biso   1.000  H
  N79      1.0000 0.04516  0.77792  0.53649  Biso   1.000  N
  H551     1.0000 0.00101  0.80502  0.59198  Biso   1.000  H
  N80      1.0000 0.03651  0.95484  0.72206  Biso   1.000  N
  H552     1.0000 0.09200  0.99899  0.69500  Biso   1.000  H
  N81      1.0000 0.77792  0.03651  0.54514  Biso   1.000  N
  H553     1.0000 0.80502  0.09200  0.50099  Biso   1.000  H
  H554     1.0000 0.84829  0.02509  0.62061  Biso   1.000  H
  N82      1.0000 0.96349  0.04516  0.72206  Biso   1.000  N
  H555     1.0000 0.90800  0.00101  0.69500  Biso   1.000  H
  C484     1.0000 0.88894  0.87040  0.44630  Biso   1.000  C
  C485     1.0000 0.81081  0.92750  0.46761  Biso   1.000  C
  C486     1.0000 0.96759  0.81081  0.42748  Biso   1.000  C
  C487     1.0000 0.01070  0.73107  0.52789  Biso   1.000  C
  C488     1.0000 0.02791  0.98930  0.76895  Biso   1.000  C
  C489     1.0000 0.73107  0.02791  0.51072  Biso   1.000  C
  C490     1.0000 0.97209  0.01070  0.76895  Biso   1.000  C
  H556     1.0000 0.87941  0.84829  0.47489  Biso   1.000  H
  N83      1.0000 0.77792  0.96349  0.45486  Biso   1.000  N
  H557     1.0000 0.80502  0.90800  0.49901  Biso   1.000  H
  N84      1.0000 0.95484  0.77792  0.46351  Biso   1.000  N
  H558     1.0000 0.99899  0.80502  0.40802  Biso   1.000  H
  C491     1.0000 0.98930  0.73107  0.47211  Biso   1.000  C
  H559     1.0000 0.98050  0.73252  0.55322  Biso   1.000  H
  C492     1.0000 0.04331  0.67988  0.53838  Biso   1.000  C
  H560     1.0000 0.05320  0.01950  0.76750  Biso   1.000  H
  C493     1.0000 0.03840  0.95669  0.82010  Biso   1.000  C
  C494     1.0000 0.73107  0.97209  0.48928  Biso   1.000  C
  H561     1.0000 0.73252  0.05320  0.48052  Biso   1.000  H
  C495     1.0000 0.67988  0.03840  0.54329  Biso   1.000  C
  H562     1.0000 0.94680  0.98050  0.76750  Biso   1.000  H
  C496     1.0000 0.96160  0.04331  0.82010  Biso   1.000  C
  C497     1.0000 0.95669  0.67988  0.46162  Biso   1.000  C
  H563     1.0000 0.01950  0.73252  0.44678  Biso   1.000  H
  H564     1.0000 0.05569  0.67980  0.57542  Biso   1.000  H
  H565     1.0000 0.07451  0.67940  0.51510  Biso   1.000  H
  C498     1.0000 0.00881  0.62962  0.52801  Biso   1.000  C
  H566     1.0000 0.07540  0.94431  0.82022  Biso   1.000  H
  H567     1.0000 0.01512  0.92549  0.82062  Biso   1.000  H
  C499     1.0000 0.02799  0.99119  0.87040  Biso   1.000  C
  H568     1.0000 0.73252  0.94680  0.51948  Biso   1.000  H
  C500     1.0000 0.67988  0.96160  0.45671  Biso   1.000  C
  C501     1.0000 0.62962  0.02799  0.50879  Biso   1.000  C
  H569     1.0000 0.67980  0.07540  0.55571  Biso   1.000  H
  H570     1.0000 0.67940  0.01512  0.57449  Biso   1.000  H
  H571     1.0000 0.92460  0.05569  0.82022  Biso   1.000  H
  H572     1.0000 0.98488  0.07451  0.82062  Biso   1.000  H
  C502     1.0000 0.97201  0.00881  0.87040  Biso   1.000  C
  H573     1.0000 0.94431  0.67980  0.42458  Biso   1.000  H
  H574     1.0000 0.92549  0.67940  0.48490  Biso   1.000  H
  C503     1.0000 0.99119  0.62962  0.47199  Biso   1.000  C
  H575     1.0000 0.97768  0.62962  0.55161  Biso   1.000  H
  H576     1.0000 0.02960  0.59749  0.53528  Biso   1.000  H
  H577     1.0000 0.05159  0.02232  0.87040  Biso   1.000  H
  H578     1.0000 0.03530  0.97040  0.90249  Biso   1.000  H
  H579     1.0000 0.67980  0.92460  0.44429  Biso   1.000  H
  H580     1.0000 0.67940  0.98488  0.42551  Biso   1.000  H
  C504     1.0000 0.62962  0.97201  0.49121  Biso   1.000  C
  H581     1.0000 0.59749  0.03530  0.52962  Biso   1.000  H
  H582     1.0000 0.62962  0.05159  0.47770  Biso   1.000  H
  H583     1.0000 0.94841  0.97768  0.87040  Biso   1.000  H
  H584     1.0000 0.96470  0.02960  0.90249  Biso   1.000  H
  H585     1.0000 0.97040  0.59749  0.46472  Biso   1.000  H
  H586     1.0000 0.02232  0.62962  0.44839  Biso   1.000  H
  H587     1.0000 0.59749  0.96470  0.47038  Biso   1.000  H
  H588     1.0000 0.62962  0.94841  0.52230  Biso   1.000  H
  C505     1.0000 0.75882  0.72198  0.37959  Biso   1.000  C
  C506     1.0000 0.79332  0.71161  0.42989  Biso   1.000  C
  H589     1.0000 0.77961  0.71471  0.34750  Biso   1.000  H
  H590     1.0000 0.72769  0.69842  0.37959  Biso   1.000  H
  C507     1.0000 0.74120  0.77800  0.37959  Biso   1.000  C
  C508     1.0000 0.76071  0.72210  0.48108  Biso   1.000  C
  H591     1.0000 0.80570  0.67461  0.42981  Biso   1.000  H
  H592     1.0000 0.82448  0.73489  0.42941  Biso   1.000  H
  C509     1.0000 0.70670  0.78841  0.42989  Biso   1.000  C
  H593     1.0000 0.72041  0.78532  0.34750  Biso   1.000  H
  H594     1.0000 0.77229  0.80160  0.37959  Biso   1.000  H
  N85      1.0000 0.79513  0.71350  0.52793  Biso   1.000  N
  H595     1.0000 0.73051  0.69681  0.48249  Biso   1.000  H
  C510     1.0000 0.73931  0.77792  0.48108  Biso   1.000  C
  H596     1.0000 0.69432  0.82541  0.42981  Biso   1.000  H
  H597     1.0000 0.67550  0.76509  0.42941  Biso   1.000  H
  C511     1.0000 0.78242  0.67751  0.56082  Biso   1.000  C
  N86      1.0000 0.70485  0.78648  0.52793  Biso   1.000  N
  H598     1.0000 0.76951  0.80321  0.48249  Biso   1.000  H
  C512     1.0000 0.81559  0.66529  0.60811  Biso   1.000  C
  H599     1.0000 0.75102  0.65801  0.55499  Biso   1.000  H
  C513     1.0000 0.71760  0.82251  0.56082  Biso   1.000  C
  C514     1.0000 0.80369  0.62041  0.63895  Biso   1.000  C
  C515     1.0000 0.86107  0.69629  0.62041  Biso   1.000  C
  C516     1.0000 0.68439  0.83469  0.60811  Biso   1.000  C
  H600     1.0000 0.74900  0.84201  0.55499  Biso   1.000  H
  H601     1.0000 0.77510  0.59830  0.62942  Biso   1.000  H
  C517     1.0000 0.83469  0.60811  0.68439  Biso   1.000  C
  H602     1.0000 0.87060  0.72492  0.59830  Biso   1.000  H
  C518     1.0000 0.89191  0.68439  0.66529  Biso   1.000  C
  C519     1.0000 0.69629  0.87961  0.63895  Biso   1.000  C
  C520     1.0000 0.63895  0.80369  0.62041  Biso   1.000  C
  C521     1.0000 0.87961  0.63895  0.69629  Biso   1.000  C
  C522     1.0000 0.82251  0.56082  0.71760  Biso   1.000  C
  C523     1.0000 0.93920  0.71760  0.67751  Biso   1.000  C
  H603     1.0000 0.72492  0.90168  0.62942  Biso   1.000  H
  C524     1.0000 0.66529  0.89191  0.68439  Biso   1.000  C
  H604     1.0000 0.62942  0.77510  0.59830  Biso   1.000  H
  C525     1.0000 0.60811  0.81559  0.66529  Biso   1.000  C
  H605     1.0000 0.90168  0.62942  0.72492  Biso   1.000  H
  N87      1.0000 0.78648  0.52793  0.70485  Biso   1.000  N
  H606     1.0000 0.84201  0.55499  0.74900  Biso   1.000  H
  N88      1.0000 0.97209  0.70485  0.71350  Biso   1.000  N
  H607     1.0000 0.94499  0.74900  0.65801  Biso   1.000  H
  C526     1.0000 0.62041  0.86107  0.69629  Biso   1.000  C
  C527     1.0000 0.67751  0.93920  0.71760  Biso   1.000  C
  C528     1.0000 0.56082  0.78242  0.67751  Biso   1.000  C
  C529     1.0000 0.77792  0.48108  0.73931  Biso   1.000  C
  C530     1.0000 0.01894  0.73931  0.72210  Biso   1.000  C
  H608     1.0000 0.59830  0.87060  0.72492  Biso   1.000  H
  N89      1.0000 0.71350  0.97209  0.70485  Biso   1.000  N
  H609     1.0000 0.65801  0.94499  0.74900  Biso   1.000  H
  N90      1.0000 0.52793  0.79513  0.71350  Biso   1.000  N
  H610     1.0000 0.55499  0.75102  0.65801  Biso   1.000  H
  H611     1.0000 0.80321  0.48249  0.76951  Biso   1.000  H
  C531     1.0000 0.78841  0.42989  0.70670  Biso   1.000  C
  C532     1.0000 0.72210  0.48108  0.76071  Biso   1.000  C
  H612     1.0000 0.01749  0.76951  0.69681  Biso   1.000  H
  C533     1.0000 0.07009  0.70670  0.71161  Biso   1.000  C
  C534     1.0000 0.01894  0.76071  0.77792  Biso   1.000  C
  C535     1.0000 0.72210  0.01894  0.73931  Biso   1.000  C
  C536     1.0000 0.48108  0.76071  0.72210  Biso   1.000  C
  H613     1.0000 0.82541  0.42981  0.69432  Biso   1.000  H
  H614     1.0000 0.76509  0.42941  0.67550  Biso   1.000  H
  C537     1.0000 0.77800  0.37959  0.74120  Biso   1.000  C
  N91      1.0000 0.71350  0.52793  0.79513  Biso   1.000  N
  H615     1.0000 0.69681  0.48249  0.73051  Biso   1.000  H
  C538     1.0000 0.71161  0.42989  0.79332  Biso   1.000  C
  H616     1.0000 0.07021  0.69432  0.67461  Biso   1.000  H
  H617     1.0000 0.07061  0.67550  0.73489  Biso   1.000  H
  C539     1.0000 0.12039  0.74120  0.72198  Biso   1.000  C
  N92      1.0000 0.97209  0.79513  0.78648  Biso   1.000  N
  H618     1.0000 0.01749  0.73051  0.80321  Biso   1.000  H
  C540     1.0000 0.07009  0.79332  0.78841  Biso   1.000  C
  H619     1.0000 0.69681  0.01749  0.76951  Biso   1.000  H
  C541     1.0000 0.71161  0.07009  0.70670  Biso   1.000  C
  C542     1.0000 0.77792  0.01894  0.76071  Biso   1.000  C
  H620     1.0000 0.48249  0.73051  0.69681  Biso   1.000  H
  C543     1.0000 0.42989  0.79332  0.71161  Biso   1.000  C
  C544     1.0000 0.48108  0.73931  0.77792  Biso   1.000  C
  H621     1.0000 0.78532  0.34750  0.72041  Biso   1.000  H
  H622     1.0000 0.80160  0.37959  0.77229  Biso   1.000  H
  C545     1.0000 0.72198  0.37959  0.75882  Biso   1.000  C
  C546     1.0000 0.67751  0.56082  0.78242  Biso   1.000  C
  H623     1.0000 0.67461  0.42981  0.80570  Biso   1.000  H
  H624     1.0000 0.73489  0.42941  0.82448  Biso   1.000  H
  H625     1.0000 0.15252  0.72041  0.71471  Biso   1.000  H
  H626     1.0000 0.12039  0.77229  0.69842  Biso   1.000  H
  C547     1.0000 0.12039  0.75882  0.77800  Biso   1.000  C
  C548     1.0000 0.93920  0.78242  0.82251  Biso   1.000  C
  H627     1.0000 0.07021  0.80570  0.82541  Biso   1.000  H
  H628     1.0000 0.07061  0.82448  0.76509  Biso   1.000  H
  H629     1.0000 0.67461  0.07021  0.69432  Biso   1.000  H
  H630     1.0000 0.73489  0.07061  0.67550  Biso   1.000  H
  C549     1.0000 0.72198  0.12039  0.74120  Biso   1.000  C
  N93      1.0000 0.78648  0.97209  0.79513  Biso   1.000  N
  H631     1.0000 0.80321  0.01749  0.73051  Biso   1.000  H
  C550     1.0000 0.78841  0.07009  0.79332  Biso   1.000  C
  H632     1.0000 0.42981  0.80570  0.67461  Biso   1.000  H
  H633     1.0000 0.42941  0.82448  0.73489  Biso   1.000  H
  C551     1.0000 0.37959  0.75882  0.72198  Biso   1.000  C
  N94      1.0000 0.52793  0.70485  0.78648  Biso   1.000  N
  H634     1.0000 0.48249  0.76951  0.80321  Biso   1.000  H
  C552     1.0000 0.42989  0.70670  0.78841  Biso   1.000  C
  H635     1.0000 0.71471  0.34750  0.77961  Biso   1.000  H
  H636     1.0000 0.69842  0.37959  0.72769  Biso   1.000  H
  C553     1.0000 0.66529  0.60811  0.81559  Biso   1.000  C
  H637     1.0000 0.65801  0.55499  0.75102  Biso   1.000  H
  H638     1.0000 0.15252  0.77961  0.78532  Biso   1.000  H
  H639     1.0000 0.12039  0.72769  0.80160  Biso   1.000  H
  C554     1.0000 0.89191  0.81559  0.83469  Biso   1.000  C
  H640     1.0000 0.94499  0.75102  0.84201  Biso   1.000  H
  H641     1.0000 0.71471  0.15252  0.72041  Biso   1.000  H
  H642     1.0000 0.69842  0.12039  0.77229  Biso   1.000  H
  C555     1.0000 0.77800  0.12039  0.75882  Biso   1.000  C
  C556     1.0000 0.82251  0.93920  0.78242  Biso   1.000  C
  H643     1.0000 0.82541  0.07021  0.80570  Biso   1.000  H
  H644     1.0000 0.76509  0.07061  0.82448  Biso   1.000  H
  H645     1.0000 0.34750  0.77961  0.71471  Biso   1.000  H
  H646     1.0000 0.37959  0.72769  0.69842  Biso   1.000  H
  C557     1.0000 0.37959  0.74120  0.77800  Biso   1.000  C
  C558     1.0000 0.56082  0.71760  0.82251  Biso   1.000  C
  H647     1.0000 0.42981  0.69432  0.82541  Biso   1.000  H
  H648     1.0000 0.42941  0.67550  0.76509  Biso   1.000  H
  C559     1.0000 0.62041  0.63895  0.80369  Biso   1.000  C
  C560     1.0000 0.69629  0.62041  0.86107  Biso   1.000  C
  C561     1.0000 0.86107  0.80369  0.87961  Biso   1.000  C
  C562     1.0000 0.87961  0.86107  0.80369  Biso   1.000  C
  H649     1.0000 0.78532  0.15252  0.77961  Biso   1.000  H
  H650     1.0000 0.80160  0.12039  0.72769  Biso   1.000  H
  C563     1.0000 0.83469  0.89191  0.81559  Biso   1.000  C
  H651     1.0000 0.84201  0.94499  0.75102  Biso   1.000  H
  H652     1.0000 0.34750  0.72041  0.78532  Biso   1.000  H
  H653     1.0000 0.37959  0.77229  0.80160  Biso   1.000  H
  C564     1.0000 0.60811  0.68439  0.83469  Biso   1.000  C
  H654     1.0000 0.55499  0.74900  0.84201  Biso   1.000  H
  H655     1.0000 0.59830  0.62942  0.77510  Biso   1.000  H
  H656     1.0000 0.72492  0.59830  0.87060  Biso   1.000  H
  C565     1.0000 0.68439  0.66529  0.89191  Biso   1.000  C
  H657     1.0000 0.87060  0.77510  0.90168  Biso   1.000  H
  C566     1.0000 0.81559  0.83469  0.89191  Biso   1.000  C
  H658     1.0000 0.90168  0.87060  0.77510  Biso   1.000  H
  C567     1.0000 0.80369  0.87961  0.86107  Biso   1.000  C
  C568     1.0000 0.63895  0.69629  0.87961  Biso   1.000  C
  C569     1.0000 0.71760  0.67751  0.93920  Biso   1.000  C
  C570     1.0000 0.78242  0.82251  0.93920  Biso   1.000  C
  H659     1.0000 0.77510  0.90168  0.87060  Biso   1.000  H
  H660     1.0000 0.62942  0.72492  0.90168  Biso   1.000  H
  N95      1.0000 0.70485  0.71350  0.97209  Biso   1.000  N
  H661     1.0000 0.74900  0.65801  0.94499  Biso   1.000  H
  N96      1.0000 0.79513  0.78648  0.97209  Biso   1.000  N
  H662     1.0000 0.75102  0.84201  0.94499  Biso   1.000  H
  C571     1.0000 0.73931  0.72210  0.01894  Biso   1.000  C
  C572     1.0000 0.76071  0.77792  0.01894  Biso   1.000  C
  H663     1.0000 0.76951  0.69681  0.01749  Biso   1.000  H
  C573     1.0000 0.70670  0.71161  0.07009  Biso   1.000  C
  H664     1.0000 0.73051  0.80321  0.01749  Biso   1.000  H
  C574     1.0000 0.79332  0.78841  0.07009  Biso   1.000  C
  H665     1.0000 0.69432  0.67461  0.07021  Biso   1.000  H
  H666     1.0000 0.67550  0.73489  0.07061  Biso   1.000  H
  C575     1.0000 0.74120  0.72198  0.12039  Biso   1.000  C
  H667     1.0000 0.80570  0.82541  0.07021  Biso   1.000  H
  H668     1.0000 0.82448  0.76509  0.07061  Biso   1.000  H
  C576     1.0000 0.75882  0.77800  0.12039  Biso   1.000  C
  H669     1.0000 0.72041  0.71471  0.15252  Biso   1.000  H
  H670     1.0000 0.77229  0.69842  0.12039  Biso   1.000  H
  H671     1.0000 0.77961  0.78532  0.15252  Biso   1.000  H
  H672     1.0000 0.72769  0.80160  0.12039  Biso   1.000  H
