data_image0
_cell_length_a       33.883
_cell_length_b       20.467
_cell_length_c       25.712
_cell_angle_alpha    90
_cell_angle_beta     95.25
_cell_angle_gamma    90

_symmetry_space_group_name_H-M    "P 1"
_symmetry_int_tables_number       1

loop_
  _symmetry_equiv_pos_as_xyz
  'x, y, z'

loop_
  _atom_site_label
  _atom_site_occupancy
  _atom_site_fract_x
  _atom_site_fract_y
  _atom_site_fract_z
  _atom_site_thermal_displace_type
  _atom_site_B_iso_or_equiv
  _atom_site_type_symbol
  C1       1.0000 0.60701  0.62662  0.60369  Biso   1.000  C
  C2       1.0000 0.62310  0.65251  0.55409  Biso   1.000  C
  H1       1.0000 0.57820  0.62540  0.59900  Biso   1.000  H
  H2       1.0000 0.61639  0.58250  0.61049  Biso   1.000  H
  C3       1.0000 0.61991  0.66878  0.64841  Biso   1.000  C
  C4       1.0000 0.66710  0.65369  0.55952  Biso   1.000  C
  H3       1.0000 0.61390  0.62491  0.52480  Biso   1.000  H
  H4       1.0000 0.61310  0.69629  0.54690  Biso   1.000  H
  H5       1.0000 0.60931  0.65261  0.67969  Biso   1.000  H
  H6       1.0000 0.61020  0.71300  0.64201  Biso   1.000  H
  C5       1.0000 0.66512  0.66869  0.65552  Biso   1.000  C
  N1       1.0000 0.68042  0.68178  0.51289  Biso   1.000  N
  H7       1.0000 0.67740  0.60918  0.56421  Biso   1.000  H
  C6       1.0000 0.68151  0.69531  0.60639  Biso   1.000  C
  H8       1.0000 0.67421  0.69561  0.68532  Biso   1.000  H
  H9       1.0000 0.67470  0.62462  0.66220  Biso   1.000  H
  C7       1.0000 0.70482  0.65139  0.49019  Biso   1.000  C
  N2       1.0000 0.72552  0.69028  0.61361  Biso   1.000  N
  H10      1.0000 0.67341  0.74090  0.60061  Biso   1.000  H
  C8       1.0000 0.71780  0.67328  0.43919  Biso   1.000  C
  H11      1.0000 0.71560  0.61338  0.50531  Biso   1.000  H
  C9       1.0000 0.74432  0.74222  0.61361  Biso   1.000  C
  C10      1.0000 0.70652  0.73338  0.41650  Biso   1.000  C
  C11      1.0000 0.73799  0.63038  0.40950  Biso   1.000  C
  C12      1.0000 0.78771  0.74549  0.62228  Biso   1.000  C
  H12      1.0000 0.73022  0.78092  0.60779  Biso   1.000  H
  C13      1.0000 0.71670  0.75121  0.36978  Biso   1.000  C
  H13      1.0000 0.69122  0.76181  0.43462  Biso   1.000  H
  C14      1.0000 0.74761  0.64660  0.36049  Biso   1.000  C
  H14      1.0000 0.74520  0.58949  0.42321  Biso   1.000  H
  C15      1.0000 0.81052  0.69038  0.62900  Biso   1.000  C
  C16      1.0000 0.80610  0.80671  0.62400  Biso   1.000  C
  C17      1.0000 0.73690  0.70670  0.33979  Biso   1.000  C
  C18      1.0000 0.70301  0.81448  0.34811  Biso   1.000  C
  C19      1.0000 0.76812  0.59471  0.32991  Biso   1.000  C
  C20      1.0000 0.85160  0.69448  0.63619  Biso   1.000  C
  H15      1.0000 0.79830  0.64968  0.62861  Biso   1.000  H
  H16      1.0000 0.79070  0.84419  0.62072  Biso   1.000  H
  C21      1.0000 0.84710  0.81248  0.63048  Biso   1.000  C
  H17      1.0000 0.74290  0.71779  0.30632  Biso   1.000  H
  N3       1.0000 0.70950  0.83872  0.30608  Biso   1.000  N
  H18      1.0000 0.68759  0.83920  0.36881  Biso   1.000  H
  N4       1.0000 0.77340  0.53789  0.34862  Biso   1.000  N
  H19      1.0000 0.77670  0.60478  0.29749  Biso   1.000  H
  C22      1.0000 0.87020  0.75800  0.63798  Biso   1.000  C
  C23      1.0000 0.87721  0.63639  0.64411  Biso   1.000  C
  C24      1.0000 0.86692  0.87741  0.63451  Biso   1.000  C
  C25      1.0000 0.69210  0.90399  0.29519  Biso   1.000  C
  C26      1.0000 0.79409  0.49059  0.31889  Biso   1.000  C
  H20      1.0000 0.89760  0.76181  0.64411  Biso   1.000  H
  N5       1.0000 0.91279  0.64118  0.65849  Biso   1.000  N
  H21      1.0000 0.86630  0.59510  0.63798  Biso   1.000  H
  N6       1.0000 0.84891  0.92989  0.63701  Biso   1.000  N
  H22      1.0000 0.89441  0.87878  0.63509  Biso   1.000  H
  C27      1.0000 0.72521  0.95231  0.28749  Biso   1.000  C
  H23      1.0000 0.67831  0.91792  0.32518  Biso   1.000  H
  C28      1.0000 0.66280  0.90170  0.24762  Biso   1.000  C
  H24      1.0000 0.79960  0.50901  0.28519  Biso   1.000  H
  C29      1.0000 0.76769  0.43118  0.31100  Biso   1.000  C
  C30      1.0000 0.83171  0.47110  0.34971  Biso   1.000  C
  C31      1.0000 0.93832  0.58362  0.66349  Biso   1.000  C
  C32      1.0000 0.87401  0.98910  0.64181  Biso   1.000  C
  N7       1.0000 0.75179  0.95681  0.33491  Biso   1.000  N
  H25      1.0000 0.74010  0.93751  0.25871  Biso   1.000  H
  C33      1.0000 0.70811  0.01979  0.27492  Biso   1.000  C
  H26      1.0000 0.64151  0.87199  0.25390  Biso   1.000  H
  H27      1.0000 0.67590  0.88489  0.21829  Biso   1.000  H
  C34      1.0000 0.64539  0.96902  0.23328  Biso   1.000  C
  H28      1.0000 0.74430  0.44271  0.28820  Biso   1.000  H
  H29      1.0000 0.75900  0.41809  0.34440  Biso   1.000  H
  C35      1.0000 0.78860  0.37270  0.28698  Biso   1.000  C
  N8       1.0000 0.85760  0.52812  0.36002  Biso   1.000  N
  C36      1.0000 0.85320  0.41902  0.32132  Biso   1.000  C
  H30      1.0000 0.82530  0.45322  0.38322  Biso   1.000  H
  H31      1.0000 0.92262  0.54478  0.65290  Biso   1.000  H
  C37      1.0000 0.95612  0.57478  0.71801  Biso   1.000  C
  C38      1.0000 0.97040  0.59300  0.62611  Biso   1.000  C
  H32      1.0000 0.90171  0.97772  0.63830  Biso   1.000  H
  C39      1.0000 0.85822  0.03518  0.59721  Biso   1.000  C
  C40      1.0000 0.87012  0.01871  0.69379  Biso   1.000  C
  C41      1.0000 0.78860  0.94889  0.33069  Biso   1.000  C
  C42      1.0000 0.67811  0.01642  0.22750  Biso   1.000  C
  H33      1.0000 0.69550  0.03630  0.30460  Biso   1.000  H
  H34      1.0000 0.72930  0.04959  0.26808  Biso   1.000  H
  H35      1.0000 0.62851  0.96619  0.20091  Biso   1.000  H
  H36      1.0000 0.62939  0.98378  0.26039  Biso   1.000  H
  H37      1.0000 0.77211  0.33410  0.28831  Biso   1.000  H
  H38      1.0000 0.79180  0.38188  0.25058  Biso   1.000  H
  C43      1.0000 0.82740  0.35931  0.31440  Biso   1.000  C
  C44      1.0000 0.86870  0.53950  0.40681  Biso   1.000  C
  H39      1.0000 0.85920  0.43529  0.28749  Biso   1.000  H
  H40      1.0000 0.87799  0.40802  0.34131  Biso   1.000  H
  H41      1.0000 0.93532  0.56618  0.74058  Biso   1.000  H
  H42      1.0000 0.96951  0.61470  0.72980  Biso   1.000  H
  C45      1.0000 0.98520  0.51918  0.72148  Biso   1.000  C
  N9       1.0000 0.95261  0.59418  0.57260  Biso   1.000  N
  H43      1.0000 0.98411  0.63448  0.63400  Biso   1.000  H
  C46      1.0000 0.00101  0.53628  0.63169  Biso   1.000  C
  N10      1.0000 0.86651  0.00840  0.54831  Biso   1.000  N
  H44      1.0000 0.82970  0.04231  0.59799  Biso   1.000  H
  C47      1.0000 0.88061  0.10011  0.60389  Biso   1.000  C
  H45      1.0000 0.88022  0.98871  0.72102  Biso   1.000  H
  C48      1.0000 0.89330  0.08282  0.69911  Biso   1.000  C
  H46      1.0000 0.84240  0.02702  0.69801  Biso   1.000  H
  C49      1.0000 0.82081  0.95080  0.37291  Biso   1.000  C
  H47      1.0000 0.79602  0.94122  0.29730  Biso   1.000  H
  H48      1.0000 0.66670  0.05951  0.22090  Biso   1.000  H
  H49      1.0000 0.69159  0.00420  0.19731  Biso   1.000  H
  H50      1.0000 0.84081  0.32672  0.29511  Biso   1.000  H
  H51      1.0000 0.82371  0.34118  0.34850  Biso   1.000  H
  C50      1.0000 0.89621  0.59349  0.42431  Biso   1.000  C
  H52      1.0000 0.85930  0.51268  0.43212  Biso   1.000  H
  H53      1.0000 0.99660  0.51512  0.75730  Biso   1.000  H
  H54      1.0000 0.97121  0.47901  0.71211  Biso   1.000  H
  C51      1.0000 0.01732  0.52792  0.68719  Biso   1.000  C
  C52      1.0000 0.95530  0.64489  0.54460  Biso   1.000  C
  H55      1.0000 0.98831  0.49602  0.61920  Biso   1.000  H
  H56      1.0000 0.02251  0.54541  0.61029  Biso   1.000  H
  C53      1.0000 0.83771  0.99331  0.51480  Biso   1.000  C
  H57      1.0000 0.90821  0.09308  0.59842  Biso   1.000  H
  H58      1.0000 0.86960  0.13060  0.57748  Biso   1.000  H
  C54      1.0000 0.87801  0.12972  0.65732  Biso   1.000  C
  H59      1.0000 0.89071  0.10182  0.73320  Biso   1.000  H
  H60      1.0000 0.92120  0.07431  0.69622  Biso   1.000  H
  C55      1.0000 0.81350  0.96790  0.42450  Biso   1.000  C
  C56      1.0000 0.85872  0.93751  0.36252  Biso   1.000  C
  C57      1.0000 0.90542  0.64079  0.38689  Biso   1.000  C
  C58      1.0000 0.91231  0.59789  0.47430  Biso   1.000  C
  H61      1.0000 0.03461  0.49011  0.69008  Biso   1.000  H
  H62      1.0000 0.03281  0.56608  0.69829  Biso   1.000  H
  C59      1.0000 0.93751  0.64758  0.49121  Biso   1.000  C
  H63      1.0000 0.96910  0.68110  0.55858  Biso   1.000  H
  C60      1.0000 0.84441  0.96961  0.46258  Biso   1.000  C
  H64      1.0000 0.81192  0.99741  0.52378  Biso   1.000  H
  H65      1.0000 0.89329  0.16969  0.66028  Biso   1.000  H
  H66      1.0000 0.85060  0.14052  0.66181  Biso   1.000  H
  H67      1.0000 0.78799  0.97792  0.43251  Biso   1.000  H
  C61      1.0000 0.88831  0.93829  0.40029  Biso   1.000  C
  H68      1.0000 0.86400  0.92788  0.32850  Biso   1.000  H
  C62      1.0000 0.93130  0.69111  0.40341  Biso   1.000  C
  H69      1.0000 0.89461  0.63820  0.35240  Biso   1.000  H
  H70      1.0000 0.90611  0.56618  0.49808  Biso   1.000  H
  C63      1.0000 0.94610  0.69409  0.45418  Biso   1.000  C
  C64      1.0000 0.88171  0.95490  0.45059  Biso   1.000  C
  C65      1.0000 0.92870  0.92119  0.38771  Biso   1.000  C
  C66      1.0000 0.94299  0.73572  0.36229  Biso   1.000  C
  H71      1.0000 0.96271  0.72878  0.46481  Biso   1.000  H
  H72      1.0000 0.90270  0.95608  0.47649  Biso   1.000  H
  N11      1.0000 0.93649  0.90341  0.34311  Biso   1.000  N
  H73      1.0000 0.94930  0.92368  0.41411  Biso   1.000  H
  N12      1.0000 0.97029  0.77750  0.36912  Biso   1.000  N
  H74      1.0000 0.92931  0.73279  0.32940  Biso   1.000  H
  C67      1.0000 0.97751  0.88689  0.33362  Biso   1.000  C
  C68      1.0000 0.97880  0.81429  0.32202  Biso   1.000  C
  C69      1.0000 0.98850  0.92500  0.28749  Biso   1.000  C
  H75      1.0000 0.99561  0.89740  0.36439  Biso   1.000  H
  H76      1.0000 0.95899  0.80359  0.29312  Biso   1.000  H
  C70      1.0000 0.01930  0.79601  0.30768  Biso   1.000  C
  H77      1.0000 0.98830  0.97132  0.29562  Biso   1.000  H
  H78      1.0000 0.96902  0.91718  0.25808  Biso   1.000  H
  C71      1.0000 0.02929  0.90560  0.27269  Biso   1.000  C
  H79      1.0000 0.03861  0.80461  0.33721  Biso   1.000  H
  H80      1.0000 0.01989  0.74950  0.30050  Biso   1.000  H
  C72      1.0000 0.03111  0.83261  0.26101  Biso   1.000  C
  H81      1.0000 0.04909  0.91630  0.30108  Biso   1.000  H
  H82      1.0000 0.03540  0.93018  0.24211  Biso   1.000  H
  H83      1.0000 0.01309  0.82220  0.23059  Biso   1.000  H
  H84      1.0000 0.05770  0.82039  0.25379  Biso   1.000  H
  C73      1.0000 0.39301  0.62662  0.39630  Biso   1.000  C
  C74      1.0000 0.38011  0.66878  0.35158  Biso   1.000  C
  C75      1.0000 0.37692  0.65251  0.44590  Biso   1.000  C
  H85      1.0000 0.42182  0.62540  0.40099  Biso   1.000  H
  H86      1.0000 0.38360  0.58250  0.38951  Biso   1.000  H
  C76      1.0000 0.33490  0.66869  0.34451  Biso   1.000  C
  H87      1.0000 0.39071  0.65261  0.32030  Biso   1.000  H
  H88      1.0000 0.38979  0.71300  0.35799  Biso   1.000  H
  C77      1.0000 0.33289  0.65369  0.44051  Biso   1.000  C
  H89      1.0000 0.38609  0.62491  0.47520  Biso   1.000  H
  H90      1.0000 0.38692  0.69629  0.45309  Biso   1.000  H
  H91      1.0000 0.32581  0.69561  0.31471  Biso   1.000  H
  H92      1.0000 0.32532  0.62462  0.33780  Biso   1.000  H
  C78      1.0000 0.31851  0.69531  0.39361  Biso   1.000  C
  N13      1.0000 0.31960  0.68178  0.48711  Biso   1.000  N
  H93      1.0000 0.32262  0.60918  0.43579  Biso   1.000  H
  N14      1.0000 0.27450  0.69028  0.38638  Biso   1.000  N
  H94      1.0000 0.32661  0.74090  0.39939  Biso   1.000  H
  C79      1.0000 0.29520  0.65139  0.50980  Biso   1.000  C
  C80      1.0000 0.25570  0.74222  0.38638  Biso   1.000  C
  C81      1.0000 0.28222  0.67328  0.56081  Biso   1.000  C
  H95      1.0000 0.28442  0.61338  0.49469  Biso   1.000  H
  C82      1.0000 0.21231  0.74549  0.37771  Biso   1.000  C
  H96      1.0000 0.26980  0.78092  0.39220  Biso   1.000  H
  C83      1.0000 0.29350  0.73338  0.58350  Biso   1.000  C
  C84      1.0000 0.26200  0.63038  0.59049  Biso   1.000  C
  C85      1.0000 0.18950  0.69038  0.37099  Biso   1.000  C
  C86      1.0000 0.19389  0.80671  0.37599  Biso   1.000  C
  C87      1.0000 0.28332  0.75121  0.63021  Biso   1.000  C
  H97      1.0000 0.30881  0.76181  0.56542  Biso   1.000  H
  C88      1.0000 0.25241  0.64660  0.63951  Biso   1.000  C
  H98      1.0000 0.25482  0.58949  0.57678  Biso   1.000  H
  C89      1.0000 0.14839  0.69448  0.36381  Biso   1.000  C
  H99      1.0000 0.20172  0.64968  0.37139  Biso   1.000  H
  H100     1.0000 0.20932  0.84419  0.37931  Biso   1.000  H
  C90      1.0000 0.15292  0.81248  0.36951  Biso   1.000  C
  C91      1.0000 0.26312  0.70670  0.66021  Biso   1.000  C
  C92      1.0000 0.29701  0.81448  0.65189  Biso   1.000  C
  C93      1.0000 0.23190  0.59471  0.67009  Biso   1.000  C
  C94      1.0000 0.12982  0.75800  0.36201  Biso   1.000  C
  C95      1.0000 0.12282  0.63639  0.35592  Biso   1.000  C
  C96      1.0000 0.13310  0.87741  0.36549  Biso   1.000  C
  H101     1.0000 0.25712  0.71779  0.69372  Biso   1.000  H
  N15      1.0000 0.29052  0.83872  0.69391  Biso   1.000  N
  H102     1.0000 0.31240  0.83920  0.63119  Biso   1.000  H
  N16      1.0000 0.22662  0.53789  0.65142  Biso   1.000  N
  H103     1.0000 0.22332  0.60478  0.70250  Biso   1.000  H
  H104     1.0000 0.10239  0.76181  0.35592  Biso   1.000  H
  N17      1.0000 0.08720  0.64118  0.34151  Biso   1.000  N
  H105     1.0000 0.13372  0.59510  0.36201  Biso   1.000  H
  N18      1.0000 0.15111  0.92989  0.36299  Biso   1.000  N
  H106     1.0000 0.10561  0.87878  0.36490  Biso   1.000  H
  C97      1.0000 0.30792  0.90399  0.70481  Biso   1.000  C
  C98      1.0000 0.20590  0.49059  0.68110  Biso   1.000  C
  C99      1.0000 0.06170  0.58362  0.33651  Biso   1.000  C
  C100     1.0000 0.12601  0.98910  0.35818  Biso   1.000  C
  C101     1.0000 0.27481  0.95231  0.71250  Biso   1.000  C
  H107     1.0000 0.32171  0.91792  0.67481  Biso   1.000  H
  C102     1.0000 0.33723  0.90170  0.75242  Biso   1.000  C
  H108     1.0000 0.20042  0.50901  0.71481  Biso   1.000  H
  C103     1.0000 0.23230  0.43118  0.68899  Biso   1.000  C
  C104     1.0000 0.16831  0.47110  0.65029  Biso   1.000  C
  H109     1.0000 0.07740  0.54478  0.34709  Biso   1.000  H
  C105     1.0000 0.04390  0.57478  0.28199  Biso   1.000  C
  C106     1.0000 0.02959  0.59300  0.37388  Biso   1.000  C
  H110     1.0000 0.09831  0.97772  0.36170  Biso   1.000  H
  C107     1.0000 0.14180  0.03518  0.40279  Biso   1.000  C
  C108     1.0000 0.12990  0.01871  0.30620  Biso   1.000  C
  N19      1.0000 0.24820  0.95681  0.66509  Biso   1.000  N
  H111     1.0000 0.25989  0.93751  0.74129  Biso   1.000  H
  C109     1.0000 0.29192  0.01979  0.72512  Biso   1.000  C
  H112     1.0000 0.35851  0.87199  0.74609  Biso   1.000  H
  H113     1.0000 0.32412  0.88489  0.78171  Biso   1.000  H
  C110     1.0000 0.35460  0.96902  0.76671  Biso   1.000  C
  H114     1.0000 0.25572  0.44271  0.71180  Biso   1.000  H
  H115     1.0000 0.24102  0.41809  0.65560  Biso   1.000  H
  C111     1.0000 0.21142  0.37270  0.71301  Biso   1.000  C
  N20      1.0000 0.14242  0.52812  0.64001  Biso   1.000  N
  C112     1.0000 0.14682  0.41902  0.67872  Biso   1.000  C
  H116     1.0000 0.17469  0.45322  0.61681  Biso   1.000  H
  H117     1.0000 0.06470  0.56618  0.25941  Biso   1.000  H
  H118     1.0000 0.03051  0.61470  0.27019  Biso   1.000  H
  C113     1.0000 0.01479  0.51918  0.27851  Biso   1.000  C
  N21      1.0000 0.04741  0.59418  0.42739  Biso   1.000  N
  H119     1.0000 0.01591  0.63448  0.36600  Biso   1.000  H
  C114     1.0000 0.99901  0.53628  0.36830  Biso   1.000  C
  N22      1.0000 0.13351  0.00840  0.45168  Biso   1.000  N
  H120     1.0000 0.17032  0.04231  0.40201  Biso   1.000  H
  C115     1.0000 0.11941  0.10011  0.39611  Biso   1.000  C
  H121     1.0000 0.11981  0.98871  0.27902  Biso   1.000  H
  C116     1.0000 0.10672  0.08282  0.30089  Biso   1.000  C
  H122     1.0000 0.15762  0.02702  0.30198  Biso   1.000  H
  C117     1.0000 0.21142  0.94889  0.66931  Biso   1.000  C
  C118     1.0000 0.32191  0.01642  0.77249  Biso   1.000  C
  H123     1.0000 0.30452  0.03630  0.69540  Biso   1.000  H
  H124     1.0000 0.27072  0.04959  0.73191  Biso   1.000  H
  H125     1.0000 0.37151  0.96619  0.79909  Biso   1.000  H
  H126     1.0000 0.37060  0.98378  0.73961  Biso   1.000  H
  H127     1.0000 0.22791  0.33410  0.71168  Biso   1.000  H
  H128     1.0000 0.20822  0.38188  0.74941  Biso   1.000  H
  C119     1.0000 0.17262  0.35931  0.68559  Biso   1.000  C
  C120     1.0000 0.13129  0.53950  0.59319  Biso   1.000  C
  H129     1.0000 0.14082  0.43529  0.71250  Biso   1.000  H
  H130     1.0000 0.12200  0.40802  0.65868  Biso   1.000  H
  H131     1.0000 0.00339  0.51512  0.24270  Biso   1.000  H
  H132     1.0000 0.02881  0.47901  0.28788  Biso   1.000  H
  C121     1.0000 0.98270  0.52792  0.31280  Biso   1.000  C
  C122     1.0000 0.04470  0.64489  0.45540  Biso   1.000  C
  H133     1.0000 0.01171  0.49602  0.38080  Biso   1.000  H
  H134     1.0000 0.97751  0.54541  0.38970  Biso   1.000  H
  C123     1.0000 0.16231  0.99331  0.48520  Biso   1.000  C
  H135     1.0000 0.09181  0.09308  0.40161  Biso   1.000  H
  H136     1.0000 0.13042  0.13060  0.42251  Biso   1.000  H
  C124     1.0000 0.12202  0.12972  0.34272  Biso   1.000  C
  H137     1.0000 0.10931  0.10182  0.26679  Biso   1.000  H
  H138     1.0000 0.07879  0.07431  0.30382  Biso   1.000  H
  C125     1.0000 0.17921  0.95080  0.62709  Biso   1.000  C
  H139     1.0000 0.20400  0.94122  0.70270  Biso   1.000  H
  H140     1.0000 0.33332  0.05951  0.77909  Biso   1.000  H
  H141     1.0000 0.30840  0.00420  0.80268  Biso   1.000  H
  H142     1.0000 0.15921  0.32672  0.70489  Biso   1.000  H
  H143     1.0000 0.17631  0.34118  0.65150  Biso   1.000  H
  C126     1.0000 0.10381  0.59349  0.57569  Biso   1.000  C
  H144     1.0000 0.14069  0.51268  0.56792  Biso   1.000  H
  H145     1.0000 0.96541  0.49011  0.30991  Biso   1.000  H
  H146     1.0000 0.96721  0.56608  0.30171  Biso   1.000  H
  C127     1.0000 0.06251  0.64758  0.50878  Biso   1.000  C
  H147     1.0000 0.03092  0.68110  0.44141  Biso   1.000  H
  C128     1.0000 0.15561  0.96961  0.53741  Biso   1.000  C
  H148     1.0000 0.18810  0.99741  0.47621  Biso   1.000  H
  H149     1.0000 0.10670  0.16969  0.33971  Biso   1.000  H
  H150     1.0000 0.14942  0.14052  0.33819  Biso   1.000  H
  C129     1.0000 0.18649  0.96790  0.57549  Biso   1.000  C
  C130     1.0000 0.14131  0.93751  0.63751  Biso   1.000  C
  C131     1.0000 0.08771  0.59789  0.52570  Biso   1.000  C
  C132     1.0000 0.09460  0.64079  0.61310  Biso   1.000  C
  C133     1.0000 0.05389  0.69409  0.54581  Biso   1.000  C
  C134     1.0000 0.11831  0.95490  0.54940  Biso   1.000  C
  H151     1.0000 0.21200  0.97792  0.56749  Biso   1.000  H
  C135     1.0000 0.11171  0.93829  0.59971  Biso   1.000  C
  H152     1.0000 0.13602  0.92788  0.67149  Biso   1.000  H
  H153     1.0000 0.09391  0.56618  0.50191  Biso   1.000  H
  C136     1.0000 0.06869  0.69111  0.59658  Biso   1.000  C
  H154     1.0000 0.10541  0.63820  0.64759  Biso   1.000  H
  H155     1.0000 0.03731  0.72878  0.53519  Biso   1.000  H
  H156     1.0000 0.09730  0.95608  0.52351  Biso   1.000  H
  C137     1.0000 0.07132  0.92119  0.61228  Biso   1.000  C
  C138     1.0000 0.05700  0.73572  0.63771  Biso   1.000  C
  N23      1.0000 0.06350  0.90341  0.65689  Biso   1.000  N
  H157     1.0000 0.05072  0.92368  0.58588  Biso   1.000  H
  N24      1.0000 0.02970  0.77750  0.63091  Biso   1.000  N
  H158     1.0000 0.07071  0.73279  0.67059  Biso   1.000  H
  C139     1.0000 0.02251  0.88689  0.66642  Biso   1.000  C
  C140     1.0000 0.02120  0.81429  0.67802  Biso   1.000  C
  C141     1.0000 0.01152  0.92500  0.71250  Biso   1.000  C
  H159     1.0000 0.00441  0.89740  0.63560  Biso   1.000  H
  H160     1.0000 0.04100  0.80359  0.70692  Biso   1.000  H
  C142     1.0000 0.98072  0.79601  0.69231  Biso   1.000  C
  H161     1.0000 0.01172  0.97132  0.70442  Biso   1.000  H
  H162     1.0000 0.03100  0.91718  0.74191  Biso   1.000  H
  C143     1.0000 0.97070  0.90560  0.72730  Biso   1.000  C
  H163     1.0000 0.96141  0.80461  0.66278  Biso   1.000  H
  H164     1.0000 0.98010  0.74950  0.69950  Biso   1.000  H
  C144     1.0000 0.96891  0.83261  0.73898  Biso   1.000  C
  H165     1.0000 0.95090  0.91630  0.69891  Biso   1.000  H
  H166     1.0000 0.96462  0.93018  0.75789  Biso   1.000  H
  H167     1.0000 0.98690  0.82220  0.76941  Biso   1.000  H
  H168     1.0000 0.94232  0.82039  0.74621  Biso   1.000  H
  C145     1.0000 0.61939  0.60009  0.39611  Biso   1.000  C
  C146     1.0000 0.64182  0.53520  0.40279  Biso   1.000  C
  H169     1.0000 0.59180  0.59310  0.40161  Biso   1.000  H
  H170     1.0000 0.63041  0.63058  0.42251  Biso   1.000  H
  C147     1.0000 0.62200  0.62970  0.34272  Biso   1.000  C
  C148     1.0000 0.62600  0.48908  0.35818  Biso   1.000  C
  N25      1.0000 0.63349  0.50838  0.45168  Biso   1.000  N
  H171     1.0000 0.67030  0.54229  0.40201  Biso   1.000  H
  C149     1.0000 0.60670  0.58279  0.30089  Biso   1.000  C
  H172     1.0000 0.60671  0.66971  0.33971  Biso   1.000  H
  H173     1.0000 0.64940  0.64049  0.33819  Biso   1.000  H
  N26      1.0000 0.65109  0.42991  0.36299  Biso   1.000  N
  C150     1.0000 0.62991  0.51869  0.30620  Biso   1.000  C
  H174     1.0000 0.59829  0.47770  0.36170  Biso   1.000  H
  C151     1.0000 0.66229  0.49328  0.48520  Biso   1.000  C
  H175     1.0000 0.60929  0.60180  0.26679  Biso   1.000  H
  H176     1.0000 0.57881  0.57429  0.30382  Biso   1.000  H
  C152     1.0000 0.63312  0.37739  0.36549  Biso   1.000  C
  H177     1.0000 0.61979  0.48869  0.27902  Biso   1.000  H
  H178     1.0000 0.65760  0.52699  0.30198  Biso   1.000  H
  C153     1.0000 0.65562  0.46959  0.53741  Biso   1.000  C
  H179     1.0000 0.68811  0.49739  0.47621  Biso   1.000  H
  C154     1.0000 0.65290  0.31250  0.36951  Biso   1.000  C
  H180     1.0000 0.60560  0.37880  0.36490  Biso   1.000  H
  C155     1.0000 0.61832  0.45488  0.54940  Biso   1.000  C
  C156     1.0000 0.68651  0.46792  0.57549  Biso   1.000  C
  C157     1.0000 0.62981  0.25798  0.36201  Biso   1.000  C
  C158     1.0000 0.69391  0.30669  0.37599  Biso   1.000  C
  C159     1.0000 0.61172  0.43832  0.59971  Biso   1.000  C
  H181     1.0000 0.59731  0.45610  0.52351  Biso   1.000  H
  C160     1.0000 0.67920  0.45082  0.62709  Biso   1.000  C
  H182     1.0000 0.71201  0.47789  0.56749  Biso   1.000  H
  C161     1.0000 0.64841  0.19451  0.36381  Biso   1.000  C
  H183     1.0000 0.60241  0.26179  0.35592  Biso   1.000  H
  C162     1.0000 0.71229  0.24552  0.37771  Biso   1.000  C
  H184     1.0000 0.70931  0.34421  0.37931  Biso   1.000  H
  C163     1.0000 0.57130  0.42121  0.61228  Biso   1.000  C
  C164     1.0000 0.64132  0.43748  0.63751  Biso   1.000  C
  C165     1.0000 0.71141  0.44892  0.66931  Biso   1.000  C
  C166     1.0000 0.62280  0.13641  0.35592  Biso   1.000  C
  C167     1.0000 0.68951  0.19040  0.37099  Biso   1.000  C
  C168     1.0000 0.75569  0.24219  0.38638  Biso   1.000  C
  N27      1.0000 0.56351  0.40338  0.65689  Biso   1.000  N
  H185     1.0000 0.55070  0.42371  0.58588  Biso   1.000  H
  H186     1.0000 0.63601  0.42791  0.67149  Biso   1.000  H
  N28      1.0000 0.74821  0.45678  0.66509  Biso   1.000  N
  H187     1.0000 0.70402  0.44120  0.70270  Biso   1.000  H
  N29      1.0000 0.58721  0.14120  0.34151  Biso   1.000  N
  H188     1.0000 0.63370  0.09508  0.36201  Biso   1.000  H
  H189     1.0000 0.70170  0.14970  0.37139  Biso   1.000  H
  N30      1.0000 0.77449  0.19031  0.38638  Biso   1.000  N
  H190     1.0000 0.76982  0.28089  0.39220  Biso   1.000  H
  C169     1.0000 0.52250  0.38692  0.66642  Biso   1.000  C
  C170     1.0000 0.77482  0.45229  0.71250  Biso   1.000  C
  C171     1.0000 0.56172  0.08360  0.33651  Biso   1.000  C
  C172     1.0000 0.81849  0.19529  0.39361  Biso   1.000  C
  C173     1.0000 0.52121  0.31431  0.67802  Biso   1.000  C
  C174     1.0000 0.51150  0.42498  0.71250  Biso   1.000  C
  H191     1.0000 0.50439  0.39742  0.63560  Biso   1.000  H
  C175     1.0000 0.80790  0.40402  0.70481  Biso   1.000  C
  H192     1.0000 0.75991  0.43748  0.74129  Biso   1.000  H
  C176     1.0000 0.79190  0.51981  0.72512  Biso   1.000  C
  C177     1.0000 0.54391  0.07480  0.28199  Biso   1.000  C
  C178     1.0000 0.52961  0.09298  0.37388  Biso   1.000  C
  H193     1.0000 0.57742  0.04480  0.34709  Biso   1.000  H
  C179     1.0000 0.83291  0.15371  0.44051  Biso   1.000  C
  C180     1.0000 0.83492  0.16871  0.34451  Biso   1.000  C
  H194     1.0000 0.82660  0.24092  0.39939  Biso   1.000  H
  N31      1.0000 0.52972  0.27752  0.63091  Biso   1.000  N
  H195     1.0000 0.54101  0.30361  0.70692  Biso   1.000  H
  C181     1.0000 0.48071  0.29599  0.69231  Biso   1.000  C
  C182     1.0000 0.47071  0.40558  0.72730  Biso   1.000  C
  H196     1.0000 0.51171  0.47130  0.70442  Biso   1.000  H
  H197     1.0000 0.53102  0.41721  0.74191  Biso   1.000  H
  N32      1.0000 0.79050  0.33869  0.69391  Biso   1.000  N
  H198     1.0000 0.82170  0.41789  0.67481  Biso   1.000  H
  C183     1.0000 0.83721  0.40172  0.75242  Biso   1.000  C
  C184     1.0000 0.82190  0.51639  0.77249  Biso   1.000  C
  H199     1.0000 0.80451  0.53628  0.69540  Biso   1.000  H
  H200     1.0000 0.77071  0.54962  0.73191  Biso   1.000  H
  C185     1.0000 0.51481  0.01920  0.27851  Biso   1.000  C
  H201     1.0000 0.56472  0.06620  0.25941  Biso   1.000  H
  H202     1.0000 0.53049  0.11472  0.27019  Biso   1.000  H
  C186     1.0000 0.49900  0.03630  0.36830  Biso   1.000  C
  N33      1.0000 0.54740  0.09420  0.42739  Biso   1.000  N
  H203     1.0000 0.51590  0.13451  0.36600  Biso   1.000  H
  N34      1.0000 0.81962  0.18180  0.48711  Biso   1.000  N
  H204     1.0000 0.82260  0.10920  0.43579  Biso   1.000  H
  C187     1.0000 0.87690  0.15249  0.44590  Biso   1.000  C
  C188     1.0000 0.88009  0.16881  0.35158  Biso   1.000  C
  H205     1.0000 0.82580  0.19558  0.31471  Biso   1.000  H
  H206     1.0000 0.82530  0.12459  0.33780  Biso   1.000  H
  C189     1.0000 0.55701  0.23570  0.63771  Biso   1.000  C
  H207     1.0000 0.46142  0.30459  0.66278  Biso   1.000  H
  H208     1.0000 0.48011  0.24952  0.69950  Biso   1.000  H
  C190     1.0000 0.46890  0.33258  0.73898  Biso   1.000  C
  H209     1.0000 0.45091  0.41628  0.69891  Biso   1.000  H
  H210     1.0000 0.46460  0.43020  0.75789  Biso   1.000  H
  C191     1.0000 0.79700  0.31451  0.65189  Biso   1.000  C
  H211     1.0000 0.85852  0.37201  0.74609  Biso   1.000  H
  H212     1.0000 0.82410  0.38491  0.78171  Biso   1.000  H
  C192     1.0000 0.85461  0.46900  0.76671  Biso   1.000  C
  H213     1.0000 0.83331  0.55949  0.77909  Biso   1.000  H
  H214     1.0000 0.80841  0.50418  0.80268  Biso   1.000  H
  C193     1.0000 0.48272  0.02790  0.31280  Biso   1.000  C
  H215     1.0000 0.50341  0.01510  0.24270  Biso   1.000  H
  H216     1.0000 0.52880  0.97899  0.28788  Biso   1.000  H
  H217     1.0000 0.47749  0.04539  0.38970  Biso   1.000  H
  H218     1.0000 0.51170  0.99599  0.38080  Biso   1.000  H
  C194     1.0000 0.54471  0.14492  0.45540  Biso   1.000  C
  C195     1.0000 0.79522  0.15141  0.50980  Biso   1.000  C
  H219     1.0000 0.88611  0.12488  0.47520  Biso   1.000  H
  H220     1.0000 0.88690  0.19632  0.45309  Biso   1.000  H
  C196     1.0000 0.89300  0.12659  0.39630  Biso   1.000  C
  H221     1.0000 0.89070  0.15259  0.32030  Biso   1.000  H
  H222     1.0000 0.88980  0.21298  0.35799  Biso   1.000  H
  C197     1.0000 0.56871  0.19109  0.59658  Biso   1.000  C
  H223     1.0000 0.57072  0.23281  0.67059  Biso   1.000  H
  H224     1.0000 0.48692  0.32218  0.76941  Biso   1.000  H
  H225     1.0000 0.44230  0.32042  0.74621  Biso   1.000  H
  C198     1.0000 0.78330  0.25118  0.63021  Biso   1.000  C
  H226     1.0000 0.81241  0.33918  0.63119  Biso   1.000  H
  H227     1.0000 0.87150  0.46621  0.79909  Biso   1.000  H
  H228     1.0000 0.87062  0.48380  0.73961  Biso   1.000  H
  H229     1.0000 0.46719  0.06611  0.30171  Biso   1.000  H
  H230     1.0000 0.46540  0.99008  0.30991  Biso   1.000  H
  C199     1.0000 0.56249  0.14760  0.50878  Biso   1.000  C
  H231     1.0000 0.53090  0.18112  0.44141  Biso   1.000  H
  C200     1.0000 0.78220  0.17330  0.56081  Biso   1.000  C
  H232     1.0000 0.78440  0.11340  0.49469  Biso   1.000  H
  H233     1.0000 0.92180  0.12542  0.40099  Biso   1.000  H
  H234     1.0000 0.88361  0.08252  0.38951  Biso   1.000  H
  C201     1.0000 0.55391  0.19412  0.54581  Biso   1.000  C
  C202     1.0000 0.59462  0.14081  0.61310  Biso   1.000  C
  C203     1.0000 0.76310  0.20672  0.66021  Biso   1.000  C
  C204     1.0000 0.79352  0.23340  0.58350  Biso   1.000  C
  C205     1.0000 0.58769  0.09791  0.52570  Biso   1.000  C
  C206     1.0000 0.76201  0.13041  0.59049  Biso   1.000  C
  H235     1.0000 0.53729  0.22881  0.53519  Biso   1.000  H
  C207     1.0000 0.60380  0.09352  0.57569  Biso   1.000  C
  H236     1.0000 0.60539  0.13822  0.64759  Biso   1.000  H
  C208     1.0000 0.75240  0.14658  0.63951  Biso   1.000  C
  H237     1.0000 0.75711  0.21781  0.69372  Biso   1.000  H
  H238     1.0000 0.80882  0.26179  0.56542  Biso   1.000  H
  H239     1.0000 0.59392  0.06620  0.50191  Biso   1.000  H
  H240     1.0000 0.75480  0.08951  0.57678  Biso   1.000  H
  C209     1.0000 0.63131  0.03948  0.59319  Biso   1.000  C
  C210     1.0000 0.73192  0.09469  0.67009  Biso   1.000  C
  N35      1.0000 0.64241  0.02809  0.64001  Biso   1.000  N
  H241     1.0000 0.64071  0.01270  0.56792  Biso   1.000  H
  N36      1.0000 0.72661  0.03791  0.65142  Biso   1.000  N
  H242     1.0000 0.72331  0.10480  0.70250  Biso   1.000  H
  C211     1.0000 0.66830  0.97112  0.65029  Biso   1.000  C
  C212     1.0000 0.70591  0.99062  0.68110  Biso   1.000  C
  C213     1.0000 0.64681  0.91899  0.67872  Biso   1.000  C
  H243     1.0000 0.67471  0.95319  0.61681  Biso   1.000  H
  H244     1.0000 0.70040  0.00899  0.71481  Biso   1.000  H
  C214     1.0000 0.73231  0.93121  0.68899  Biso   1.000  C
  C215     1.0000 0.67261  0.85929  0.68559  Biso   1.000  C
  H245     1.0000 0.64080  0.93531  0.71250  Biso   1.000  H
  H246     1.0000 0.62201  0.90800  0.65868  Biso   1.000  H
  H247     1.0000 0.75571  0.94269  0.71180  Biso   1.000  H
  H248     1.0000 0.74100  0.91811  0.65560  Biso   1.000  H
  C216     1.0000 0.71140  0.87272  0.71301  Biso   1.000  C
  H249     1.0000 0.65922  0.82670  0.70489  Biso   1.000  H
  H250     1.0000 0.67632  0.84121  0.65150  Biso   1.000  H
  H251     1.0000 0.72790  0.83412  0.71168  Biso   1.000  H
  H252     1.0000 0.70821  0.88191  0.74941  Biso   1.000  H
  C217     1.0000 0.38060  0.60009  0.60389  Biso   1.000  C
  C218     1.0000 0.35820  0.53520  0.59721  Biso   1.000  C
  H253     1.0000 0.40820  0.59310  0.59842  Biso   1.000  H
  H254     1.0000 0.36961  0.63058  0.57748  Biso   1.000  H
  C219     1.0000 0.37802  0.62970  0.65732  Biso   1.000  C
  N37      1.0000 0.36650  0.50838  0.54831  Biso   1.000  N
  H255     1.0000 0.32972  0.54229  0.59799  Biso   1.000  H
  C220     1.0000 0.37402  0.48908  0.64181  Biso   1.000  C
  H256     1.0000 0.39331  0.66971  0.66028  Biso   1.000  H
  H257     1.0000 0.35062  0.64049  0.66181  Biso   1.000  H
  C221     1.0000 0.39332  0.58279  0.69911  Biso   1.000  C
  C222     1.0000 0.33770  0.49328  0.51480  Biso   1.000  C
  N38      1.0000 0.34890  0.42991  0.63701  Biso   1.000  N
  C223     1.0000 0.37011  0.51869  0.69379  Biso   1.000  C
  H258     1.0000 0.40170  0.47770  0.63830  Biso   1.000  H
  H259     1.0000 0.39070  0.60180  0.73320  Biso   1.000  H
  H260     1.0000 0.42121  0.57429  0.69622  Biso   1.000  H
  C224     1.0000 0.34440  0.46959  0.46258  Biso   1.000  C
  H261     1.0000 0.31191  0.49739  0.52378  Biso   1.000  H
  C225     1.0000 0.36690  0.37739  0.63451  Biso   1.000  C
  H262     1.0000 0.38020  0.48869  0.72102  Biso   1.000  H
  H263     1.0000 0.34242  0.52699  0.69801  Biso   1.000  H
  C226     1.0000 0.31351  0.46792  0.42450  Biso   1.000  C
  C227     1.0000 0.38170  0.45488  0.45059  Biso   1.000  C
  C228     1.0000 0.34712  0.31250  0.63048  Biso   1.000  C
  H264     1.0000 0.39442  0.37880  0.63509  Biso   1.000  H
  C229     1.0000 0.32082  0.45082  0.37291  Biso   1.000  C
  H265     1.0000 0.28801  0.47789  0.43251  Biso   1.000  H
  C230     1.0000 0.38830  0.43832  0.40029  Biso   1.000  C
  H266     1.0000 0.40271  0.45610  0.47649  Biso   1.000  H
  C231     1.0000 0.30611  0.30669  0.62400  Biso   1.000  C
  C232     1.0000 0.37021  0.25798  0.63798  Biso   1.000  C
  C233     1.0000 0.28861  0.44892  0.33069  Biso   1.000  C
  C234     1.0000 0.35870  0.43748  0.36252  Biso   1.000  C
  C235     1.0000 0.42872  0.42121  0.38771  Biso   1.000  C
  C236     1.0000 0.28770  0.24552  0.62228  Biso   1.000  C
  H267     1.0000 0.29072  0.34421  0.62072  Biso   1.000  H
  C237     1.0000 0.35161  0.19451  0.63619  Biso   1.000  C
  H268     1.0000 0.39762  0.26179  0.64411  Biso   1.000  H
  N39      1.0000 0.25181  0.45678  0.33491  Biso   1.000  N
  H269     1.0000 0.29600  0.44120  0.29730  Biso   1.000  H
  H270     1.0000 0.36401  0.42791  0.32850  Biso   1.000  H
  N40      1.0000 0.43651  0.40338  0.34311  Biso   1.000  N
  H271     1.0000 0.44932  0.42371  0.41411  Biso   1.000  H
  C238     1.0000 0.24430  0.24219  0.61361  Biso   1.000  C
  C239     1.0000 0.31051  0.19040  0.62900  Biso   1.000  C
  C240     1.0000 0.37722  0.13641  0.64411  Biso   1.000  C
  C241     1.0000 0.22520  0.45229  0.28749  Biso   1.000  C
  C242     1.0000 0.47749  0.38692  0.33362  Biso   1.000  C
  N41      1.0000 0.22550  0.19031  0.61361  Biso   1.000  N
  H272     1.0000 0.23020  0.28089  0.60779  Biso   1.000  H
  H273     1.0000 0.29832  0.14970  0.62861  Biso   1.000  H
  N42      1.0000 0.41281  0.14120  0.65849  Biso   1.000  N
  H274     1.0000 0.36632  0.09508  0.63798  Biso   1.000  H
  C243     1.0000 0.19212  0.40402  0.29519  Biso   1.000  C
  H275     1.0000 0.24011  0.43748  0.25871  Biso   1.000  H
  C244     1.0000 0.20809  0.51981  0.27492  Biso   1.000  C
  C245     1.0000 0.47881  0.31431  0.32202  Biso   1.000  C
  C246     1.0000 0.48852  0.42498  0.28749  Biso   1.000  C
  H276     1.0000 0.49560  0.39742  0.36439  Biso   1.000  H
  C247     1.0000 0.18150  0.19529  0.60639  Biso   1.000  C
  C248     1.0000 0.43830  0.08360  0.66349  Biso   1.000  C
  N43      1.0000 0.20949  0.33869  0.30608  Biso   1.000  N
  H277     1.0000 0.17829  0.41789  0.32518  Biso   1.000  H
  C249     1.0000 0.16281  0.40172  0.24762  Biso   1.000  C
  C250     1.0000 0.17809  0.51639  0.22750  Biso   1.000  C
  H278     1.0000 0.19551  0.53628  0.30460  Biso   1.000  H
  H279     1.0000 0.22931  0.54962  0.26808  Biso   1.000  H
  N44      1.0000 0.47031  0.27752  0.36912  Biso   1.000  N
  H280     1.0000 0.45901  0.30361  0.29312  Biso   1.000  H
  C251     1.0000 0.51931  0.29599  0.30768  Biso   1.000  C
  C252     1.0000 0.52931  0.40558  0.27269  Biso   1.000  C
  H281     1.0000 0.48831  0.47130  0.29562  Biso   1.000  H
  H282     1.0000 0.46900  0.41721  0.25808  Biso   1.000  H
  C253     1.0000 0.16712  0.15371  0.55952  Biso   1.000  C
  C254     1.0000 0.16510  0.16871  0.65552  Biso   1.000  C
  H283     1.0000 0.17342  0.24092  0.60061  Biso   1.000  H
  C255     1.0000 0.47041  0.09298  0.62611  Biso   1.000  C
  H284     1.0000 0.42260  0.04480  0.65290  Biso   1.000  H
  C256     1.0000 0.45611  0.07480  0.71801  Biso   1.000  C
  C257     1.0000 0.20299  0.31451  0.34811  Biso   1.000  C
  H285     1.0000 0.14150  0.37201  0.25390  Biso   1.000  H
  H286     1.0000 0.17592  0.38491  0.21829  Biso   1.000  H
  C258     1.0000 0.14541  0.46900  0.23328  Biso   1.000  C
  H287     1.0000 0.16671  0.55949  0.22090  Biso   1.000  H
  H288     1.0000 0.19161  0.50418  0.19731  Biso   1.000  H
  C259     1.0000 0.44301  0.23570  0.36229  Biso   1.000  C
  H289     1.0000 0.53860  0.30459  0.33721  Biso   1.000  H
  H290     1.0000 0.51991  0.24952  0.30050  Biso   1.000  H
  C260     1.0000 0.53109  0.33258  0.26101  Biso   1.000  C
  H291     1.0000 0.54911  0.41628  0.30108  Biso   1.000  H
  H292     1.0000 0.53539  0.43020  0.24211  Biso   1.000  H
  N45      1.0000 0.18040  0.18180  0.51289  Biso   1.000  N
  H293     1.0000 0.17742  0.10920  0.56421  Biso   1.000  H
  C261     1.0000 0.12312  0.15249  0.55409  Biso   1.000  C
  C262     1.0000 0.11990  0.16881  0.64841  Biso   1.000  C
  H294     1.0000 0.17420  0.19558  0.68532  Biso   1.000  H
  H295     1.0000 0.17472  0.12459  0.66220  Biso   1.000  H
  N46      1.0000 0.45262  0.09420  0.57260  Biso   1.000  N
  C263     1.0000 0.50099  0.03630  0.63169  Biso   1.000  C
  H296     1.0000 0.48410  0.13451  0.63400  Biso   1.000  H
  H297     1.0000 0.43530  0.06620  0.74058  Biso   1.000  H
  H298     1.0000 0.46950  0.11472  0.72980  Biso   1.000  H
  C264     1.0000 0.48521  0.01920  0.72148  Biso   1.000  C
  C265     1.0000 0.21672  0.25118  0.36978  Biso   1.000  C
  H299     1.0000 0.18761  0.33918  0.36881  Biso   1.000  H
  H300     1.0000 0.12849  0.46621  0.20091  Biso   1.000  H
  H301     1.0000 0.12940  0.48380  0.26039  Biso   1.000  H
  C266     1.0000 0.43131  0.19109  0.40341  Biso   1.000  C
  H302     1.0000 0.42930  0.23281  0.32940  Biso   1.000  H
  H303     1.0000 0.51310  0.32218  0.23059  Biso   1.000  H
  H304     1.0000 0.55772  0.32042  0.25379  Biso   1.000  H
  C267     1.0000 0.20480  0.15141  0.49019  Biso   1.000  C
  H305     1.0000 0.11391  0.12488  0.52480  Biso   1.000  H
  H306     1.0000 0.11312  0.19632  0.54690  Biso   1.000  H
  C268     1.0000 0.10699  0.12659  0.60369  Biso   1.000  C
  H307     1.0000 0.10932  0.15259  0.67969  Biso   1.000  H
  H308     1.0000 0.11022  0.21298  0.64201  Biso   1.000  H
  C269     1.0000 0.45531  0.14492  0.54460  Biso   1.000  C
  C270     1.0000 0.51730  0.02790  0.68719  Biso   1.000  C
  H309     1.0000 0.52250  0.04539  0.61029  Biso   1.000  H
  H310     1.0000 0.48832  0.99599  0.61920  Biso   1.000  H
  H311     1.0000 0.49661  0.01510  0.75730  Biso   1.000  H
  H312     1.0000 0.47122  0.97899  0.71211  Biso   1.000  H
  C271     1.0000 0.23692  0.20672  0.33979  Biso   1.000  C
  C272     1.0000 0.20650  0.23340  0.41650  Biso   1.000  C
  C273     1.0000 0.40540  0.14081  0.38689  Biso   1.000  C
  C274     1.0000 0.44611  0.19412  0.45418  Biso   1.000  C
  C275     1.0000 0.21782  0.17330  0.43919  Biso   1.000  C
  H313     1.0000 0.21562  0.11340  0.50531  Biso   1.000  H
  H314     1.0000 0.07822  0.12542  0.59900  Biso   1.000  H
  H315     1.0000 0.11641  0.08252  0.61049  Biso   1.000  H
  C276     1.0000 0.43750  0.14760  0.49121  Biso   1.000  C
  H316     1.0000 0.46912  0.18112  0.55858  Biso   1.000  H
  H317     1.0000 0.53280  0.06611  0.69829  Biso   1.000  H
  H318     1.0000 0.53462  0.99008  0.69008  Biso   1.000  H
  C277     1.0000 0.24759  0.14658  0.36049  Biso   1.000  C
  H319     1.0000 0.24291  0.21781  0.30632  Biso   1.000  H
  H320     1.0000 0.19120  0.26179  0.43462  Biso   1.000  H
  C278     1.0000 0.39619  0.09352  0.42431  Biso   1.000  C
  H321     1.0000 0.39460  0.13822  0.35240  Biso   1.000  H
  H322     1.0000 0.46270  0.22881  0.46481  Biso   1.000  H
  C279     1.0000 0.23801  0.13041  0.40950  Biso   1.000  C
  C280     1.0000 0.41230  0.09791  0.47430  Biso   1.000  C
  C281     1.0000 0.26810  0.09469  0.32991  Biso   1.000  C
  C282     1.0000 0.36871  0.03948  0.40681  Biso   1.000  C
  H323     1.0000 0.24522  0.08951  0.42321  Biso   1.000  H
  H324     1.0000 0.40610  0.06620  0.49808  Biso   1.000  H
  N47      1.0000 0.27342  0.03791  0.34862  Biso   1.000  N
  H325     1.0000 0.27671  0.10480  0.29749  Biso   1.000  H
  N48      1.0000 0.35761  0.02809  0.36002  Biso   1.000  N
  H326     1.0000 0.35931  0.01270  0.43212  Biso   1.000  H
  C283     1.0000 0.29411  0.99062  0.31889  Biso   1.000  C
  C284     1.0000 0.33169  0.97112  0.34971  Biso   1.000  C
  H327     1.0000 0.29959  0.00899  0.28519  Biso   1.000  H
  C285     1.0000 0.26771  0.93121  0.31100  Biso   1.000  C
  C286     1.0000 0.35321  0.91899  0.32132  Biso   1.000  C
  H328     1.0000 0.32531  0.95319  0.38322  Biso   1.000  H
  H329     1.0000 0.24431  0.94269  0.28820  Biso   1.000  H
  H330     1.0000 0.25902  0.91811  0.34440  Biso   1.000  H
  C287     1.0000 0.28862  0.87272  0.28698  Biso   1.000  C
  C288     1.0000 0.32741  0.85929  0.31440  Biso   1.000  C
  H331     1.0000 0.35922  0.93531  0.28749  Biso   1.000  H
  H332     1.0000 0.37801  0.90800  0.34131  Biso   1.000  H
  H333     1.0000 0.27209  0.83412  0.28831  Biso   1.000  H
  H334     1.0000 0.29181  0.88191  0.25058  Biso   1.000  H
  H335     1.0000 0.34080  0.82670  0.29511  Biso   1.000  H
  H336     1.0000 0.32370  0.84121  0.34850  Biso   1.000  H
  C289     1.0000 0.50241  0.76391  0.25719  Biso   1.000  C
  C290     1.0000 0.47201  0.81771  0.25121  Biso   1.000  C
  H337     1.0000 0.48950  0.72170  0.25230  Biso   1.000  H
  H338     1.0000 0.51622  0.76509  0.29198  Biso   1.000  H
  C291     1.0000 0.53219  0.77368  0.21602  Biso   1.000  C
  C292     1.0000 0.45082  0.81898  0.19552  Biso   1.000  C
  H339     1.0000 0.48501  0.85938  0.25871  Biso   1.000  H
  H340     1.0000 0.45262  0.81131  0.27628  Biso   1.000  H
  C293     1.0000 0.51259  0.77588  0.16201  Biso   1.000  C
  H341     1.0000 0.54651  0.81429  0.22328  Biso   1.000  H
  H342     1.0000 0.55130  0.73831  0.21871  Biso   1.000  H
  N49      1.0000 0.42360  0.87389  0.19169  Biso   1.000  N
  H343     1.0000 0.43651  0.77798  0.18802  Biso   1.000  H
  C294     1.0000 0.48220  0.82958  0.15619  Biso   1.000  C
  H344     1.0000 0.49980  0.73430  0.15369  Biso   1.000  H
  H345     1.0000 0.53241  0.78302  0.13759  Biso   1.000  H
  C295     1.0000 0.38910  0.86539  0.17208  Biso   1.000  C
  N50      1.0000 0.46206  0.82518  0.10459  Biso   1.000  N
  H346     1.0000 0.49492  0.87228  0.16161  Biso   1.000  H
  C296     1.0000 0.35900  0.91670  0.16880  Biso   1.000  C
  H347     1.0000 0.38199  0.82430  0.15900  Biso   1.000  H
  C297     1.0000 0.46219  0.87429  0.07542  Biso   1.000  C
  C298     1.0000 0.32001  0.90199  0.15849  Biso   1.000  C
  C299     1.0000 0.36951  0.98090  0.18118  Biso   1.000  C
  C300     1.0000 0.44419  0.87639  0.02269  Biso   1.000  C
  H348     1.0000 0.47481  0.91181  0.08881  Biso   1.000  H
  C301     1.0000 0.28909  0.94958  0.15911  Biso   1.000  C
  H349     1.0000 0.31301  0.85899  0.15072  Biso   1.000  H
  C302     1.0000 0.34210  0.02902  0.18130  Biso   1.000  C
  H350     1.0000 0.39601  0.99111  0.18962  Biso   1.000  H
  C303     1.0000 0.42121  0.82362  0.00211  Biso   1.000  C
  C304     1.0000 0.45034  0.92720  0.98981  Biso   1.000  C
  C305     1.0000 0.24700  0.93292  0.15482  Biso   1.000  C
  C306     1.0000 0.30150  0.01368  0.17111  Biso   1.000  C
  C307     1.0000 0.35401  0.09601  0.19591  Biso   1.000  C
  C308     1.0000 0.40562  0.82362  0.95141  Biso   1.000  C
  H351     1.0000 0.41649  0.78820  0.02339  Biso   1.000  H
  C309     1.0000 0.43562  0.92842  0.93802  Biso   1.000  C
  H352     1.0000 0.46510  0.96272  0.00301  Biso   1.000  H
  N51      1.0000 0.23511  0.87600  0.16208  Biso   1.000  N
  H353     1.0000 0.22839  0.96560  0.14650  Biso   1.000  H
  H354     1.0000 0.28269  0.04661  0.17232  Biso   1.000  H
  N52      1.0000 0.33011  0.14169  0.19989  Biso   1.000  N
  H355     1.0000 0.38090  0.10490  0.20270  Biso   1.000  H
  C310     1.0000 0.38192  0.76548  0.93232  Biso   1.000  C
  C311     1.0000 0.41282  0.87551  0.91822  Biso   1.000  C
  C312     1.0000 0.44564  0.98090  0.90330  Biso   1.000  C
  C313     1.0000 0.19331  0.86681  0.16150  Biso   1.000  C
  C314     1.0000 0.34591  0.20711  0.21149  Biso   1.000  C
  N53      1.0000 0.36962  0.75751  0.88510  Biso   1.000  N
  H356     1.0000 0.37592  0.73391  0.95641  Biso   1.000  H
  H357     1.0000 0.40252  0.87492  0.88342  Biso   1.000  H
  H358     1.0000 0.43152  0.98529  0.87080  Biso   1.000  H
  N54      1.0000 0.47392  0.02150  0.91708  Biso   1.000  N
  C315     1.0000 0.17941  0.81951  0.11729  Biso   1.000  C
  C316     1.0000 0.18459  0.83769  0.21442  Biso   1.000  C
  H359     1.0000 0.17969  0.90878  0.15619  Biso   1.000  H
  C317     1.0000 0.33309  0.25070  0.16368  Biso   1.000  C
  C318     1.0000 0.33069  0.23511  0.25840  Biso   1.000  C
  H360     1.0000 0.37491  0.20511  0.21641  Biso   1.000  H
  C319     1.0000 0.34711  0.69629  0.87389  Biso   1.000  C
  C320     1.0000 0.48282  0.07392  0.88111  Biso   1.000  C
  C321     1.0000 0.13620  0.80481  0.11889  Biso   1.000  C
  N55      1.0000 0.18690  0.84990  0.06921  Biso   1.000  N
  H361     1.0000 0.19461  0.77881  0.12150  Biso   1.000  H
  C322     1.0000 0.13901  0.82391  0.21250  Biso   1.000  C
  H362     1.0000 0.19261  0.86808  0.24230  Biso   1.000  H
  H363     1.0000 0.19940  0.79738  0.22078  Biso   1.000  H
  N56      1.0000 0.34739  0.22319  0.11631  Biso   1.000  N
  H364     1.0000 0.30409  0.25221  0.15919  Biso   1.000  H
  C323     1.0000 0.34840  0.31881  0.17329  Biso   1.000  C
  C324     1.0000 0.34431  0.30488  0.26878  Biso   1.000  C
  H365     1.0000 0.33941  0.20829  0.28831  Biso   1.000  H
  H366     1.0000 0.30201  0.23408  0.25422  Biso   1.000  H
  C325     1.0000 0.30603  0.71471  0.84702  Biso   1.000  C
  H367     1.0000 0.34381  0.67338  0.90669  Biso   1.000  H
  C326     1.0000 0.36884  0.65330  0.83909  Biso   1.000  C
  C327     1.0000 0.47394  0.13842  0.90798  Biso   1.000  C
  H368     1.0000 0.46662  0.06948  0.84760  Biso   1.000  H
  C328     1.0000 0.52583  0.07070  0.87361  Biso   1.000  C
  C329     1.0000 0.12722  0.77662  0.16982  Biso   1.000  C
  H369     1.0000 0.12109  0.84468  0.11260  Biso   1.000  H
  H370     1.0000 0.12790  0.77422  0.09120  Biso   1.000  H
  C330     1.0000 0.21200  0.82709  0.04210  Biso   1.000  C
  H371     1.0000 0.13261  0.80608  0.24570  Biso   1.000  H
  H372     1.0000 0.12442  0.86442  0.20641  Biso   1.000  H
  C331     1.0000 0.32219  0.20272  0.08241  Biso   1.000  C
  H373     1.0000 0.33941  0.34622  0.14380  Biso   1.000  H
  H374     1.0000 0.37720  0.31822  0.17618  Biso   1.000  H
  C332     1.0000 0.33430  0.34739  0.22270  Biso   1.000  C
  H375     1.0000 0.33179  0.32198  0.29839  Biso   1.000  H
  H376     1.0000 0.37279  0.30532  0.27769  Biso   1.000  H
  N57      1.0000 0.28495  0.75018  0.88478  Biso   1.000  N
  C333     1.0000 0.28343  0.65422  0.83100  Biso   1.000  C
  H377     1.0000 0.30901  0.74222  0.81651  Biso   1.000  H
  H378     1.0000 0.39432  0.64142  0.85670  Biso   1.000  H
  H379     1.0000 0.37343  0.67699  0.80749  Biso   1.000  H
  C334     1.0000 0.34453  0.59061  0.82440  Biso   1.000  C
  N58      1.0000 0.43158  0.14081  0.91509  Biso   1.000  N
  C335     1.0000 0.48383  0.19480  0.87318  Biso   1.000  C
  H380     1.0000 0.48963  0.14150  0.94188  Biso   1.000  H
  H381     1.0000 0.53192  0.02971  0.85721  Biso   1.000  H
  H382     1.0000 0.54143  0.07339  0.90709  Biso   1.000  H
  C336     1.0000 0.53614  0.12909  0.83811  Biso   1.000  C
  H383     1.0000 0.14161  0.73601  0.17610  Biso   1.000  H
  H384     1.0000 0.09909  0.76728  0.16900  Biso   1.000  H
  H385     1.0000 0.22520  0.78932  0.05382  Biso   1.000  H
  C337     1.0000 0.22232  0.85562  0.99309  Biso   1.000  C
  C338     1.0000 0.33231  0.17619  0.03218  Biso   1.000  C
  H386     1.0000 0.29571  0.20399  0.08901  Biso   1.000  H
  H387     1.0000 0.34640  0.38990  0.22910  Biso   1.000  H
  H388     1.0000 0.30581  0.35340  0.21789  Biso   1.000  H
  C339     1.0000 0.27534  0.80808  0.87600  Biso   1.000  C
  C340     1.0000 0.30673  0.61010  0.79679  Biso   1.000  C
  H389     1.0000 0.25843  0.66619  0.81191  Biso   1.000  H
  H390     1.0000 0.27752  0.63028  0.86190  Biso   1.000  H
  H391     1.0000 0.35903  0.56271  0.80230  Biso   1.000  H
  H392     1.0000 0.33993  0.56642  0.85580  Biso   1.000  H
  C341     1.0000 0.42233  0.14702  0.96122  Biso   1.000  C
  C342     1.0000 0.52684  0.19348  0.86311  Biso   1.000  C
  H393     1.0000 0.46752  0.19221  0.84018  Biso   1.000  H
  H394     1.0000 0.47793  0.23579  0.88978  Biso   1.000  H
  H395     1.0000 0.56403  0.12762  0.83261  Biso   1.000  H
  H396     1.0000 0.52093  0.12542  0.80441  Biso   1.000  H
  C343     1.0000 0.24552  0.82122  0.95962  Biso   1.000  C
  C344     1.0000 0.20833  0.91591  0.97649  Biso   1.000  C
  C345     1.0000 0.30233  0.16461  0.99359  Biso   1.000  C
  C346     1.0000 0.37091  0.17091  0.02070  Biso   1.000  C
  C347     1.0000 0.25422  0.84751  0.91279  Biso   1.000  C
  H397     1.0000 0.28172  0.82728  0.84510  Biso   1.000  H
  H398     1.0000 0.29123  0.57141  0.78699  Biso   1.000  H
  H399     1.0000 0.31163  0.63312  0.76500  Biso   1.000  H
  C348     1.0000 0.38023  0.15010  0.97250  Biso   1.000  C
  H400     1.0000 0.44223  0.14961  0.98860  Biso   1.000  H
  H401     1.0000 0.54322  0.19871  0.89580  Biso   1.000  H
  H402     1.0000 0.53242  0.22920  0.84018  Biso   1.000  H
  H403     1.0000 0.25514  0.77999  0.96942  Biso   1.000  H
  C349     1.0000 0.21673  0.94332  0.93091  Biso   1.000  C
  H404     1.0000 0.19233  0.93902  0.99770  Biso   1.000  H
  C350     1.0000 0.31103  0.14321  0.94419  Biso   1.000  C
  H405     1.0000 0.27601  0.17101  0.00039  Biso   1.000  H
  H406     1.0000 0.39121  0.18161  0.04609  Biso   1.000  H
  C351     1.0000 0.23883  0.90790  0.89720  Biso   1.000  C
  C352     1.0000 0.35004  0.13749  0.93380  Biso   1.000  C
  C353     1.0000 0.19944  0.00708  0.91482  Biso   1.000  C
  C354     1.0000 0.28083  0.13739  0.90111  Biso   1.000  C
  H407     1.0000 0.24314  0.92471  0.86451  Biso   1.000  H
  H408     1.0000 0.35612  0.12508  0.90072  Biso   1.000  H
  N59      1.0000 0.20332  0.03401  0.87299  Biso   1.000  N
  H409     1.0000 0.18454  0.02858  0.93821  Biso   1.000  H
  N60      1.0000 0.24503  0.15259  0.90322  Biso   1.000  N
  H410     1.0000 0.28832  0.12132  0.86959  Biso   1.000  H
  C355     1.0000 0.18572  0.09948  0.86389  Biso   1.000  C
  C356     1.0000 0.21862  0.14760  0.85702  Biso   1.000  C
  C357     1.0000 0.15523  0.09718  0.81800  Biso   1.000  C
  H411     1.0000 0.17264  0.11218  0.89478  Biso   1.000  H
  H412     1.0000 0.23354  0.13290  0.82831  Biso   1.000  H
  C358     1.0000 0.20114  0.21532  0.84362  Biso   1.000  C
  C359     1.0000 0.13832  0.16412  0.80472  Biso   1.000  C
  H413     1.0000 0.13402  0.06801  0.82569  Biso   1.000  H
  H414     1.0000 0.16714  0.07979  0.78800  Biso   1.000  H
  H415     1.0000 0.18843  0.23218  0.87318  Biso   1.000  H
  H416     1.0000 0.22212  0.24522  0.83639  Biso   1.000  H
  C360     1.0000 0.17093  0.21088  0.79620  Biso   1.000  C
  H417     1.0000 0.12012  0.16148  0.77340  Biso   1.000  H
  H418     1.0000 0.12363  0.17961  0.83300  Biso   1.000  H
  H419     1.0000 0.15971  0.25392  0.78859  Biso   1.000  H
  H420     1.0000 0.18413  0.19690  0.76621  Biso   1.000  H
  C361     1.0000 0.49761  0.76391  0.74281  Biso   1.000  C
  C362     1.0000 0.52801  0.81771  0.74879  Biso   1.000  C
  H421     1.0000 0.51049  0.72170  0.74769  Biso   1.000  H
  H422     1.0000 0.48380  0.76509  0.70801  Biso   1.000  H
  C363     1.0000 0.46780  0.77368  0.78401  Biso   1.000  C
  C364     1.0000 0.54921  0.81898  0.80452  Biso   1.000  C
  H423     1.0000 0.51501  0.85938  0.74129  Biso   1.000  H
  H424     1.0000 0.54740  0.81131  0.72371  Biso   1.000  H
  H425     1.0000 0.45351  0.81429  0.77671  Biso   1.000  H
  H426     1.0000 0.44870  0.73831  0.78132  Biso   1.000  H
  C365     1.0000 0.48740  0.77588  0.83799  Biso   1.000  C
  N61      1.0000 0.57642  0.87389  0.80831  Biso   1.000  N
  H427     1.0000 0.56351  0.77798  0.81202  Biso   1.000  H
  C366     1.0000 0.51782  0.82958  0.84381  Biso   1.000  C
  H428     1.0000 0.50022  0.73430  0.84631  Biso   1.000  H
  H429     1.0000 0.46761  0.78302  0.86240  Biso   1.000  H
  C367     1.0000 0.61092  0.86539  0.82791  Biso   1.000  C
  N62      1.0000 0.53796  0.82518  0.89540  Biso   1.000  N
  H430     1.0000 0.50511  0.87228  0.83842  Biso   1.000  H
  C368     1.0000 0.64102  0.91670  0.83119  Biso   1.000  C
  H431     1.0000 0.61800  0.82430  0.84100  Biso   1.000  H
  C369     1.0000 0.53780  0.87429  0.92462  Biso   1.000  C
  C370     1.0000 0.63051  0.98090  0.81881  Biso   1.000  C
  C371     1.0000 0.68001  0.90199  0.84150  Biso   1.000  C
  C372     1.0000 0.55580  0.87639  0.97730  Biso   1.000  C
  H432     1.0000 0.52521  0.91181  0.91122  Biso   1.000  H
  H433     1.0000 0.60401  0.99111  0.81042  Biso   1.000  H
  C373     1.0000 0.65792  0.02902  0.81870  Biso   1.000  C
  H434     1.0000 0.68702  0.85899  0.84932  Biso   1.000  H
  C374     1.0000 0.71090  0.94958  0.84092  Biso   1.000  C
  C375     1.0000 0.57881  0.82362  0.99789  Biso   1.000  C
  C376     1.0000 0.54968  0.92720  0.01019  Biso   1.000  C
  C377     1.0000 0.69852  0.01368  0.82889  Biso   1.000  C
  C378     1.0000 0.64601  0.09601  0.80409  Biso   1.000  C
  C379     1.0000 0.75302  0.93292  0.84521  Biso   1.000  C
  H435     1.0000 0.58353  0.78820  0.97660  Biso   1.000  H
  C380     1.0000 0.59437  0.82362  0.04862  Biso   1.000  C
  H436     1.0000 0.53492  0.96272  0.99699  Biso   1.000  H
  C381     1.0000 0.56437  0.92842  0.06202  Biso   1.000  C
  H437     1.0000 0.71730  0.04661  0.82772  Biso   1.000  H
  N63      1.0000 0.66991  0.14169  0.80011  Biso   1.000  N
  H438     1.0000 0.61912  0.10490  0.79729  Biso   1.000  H
  N64      1.0000 0.76491  0.87600  0.83791  Biso   1.000  N
  H439     1.0000 0.77160  0.96560  0.85349  Biso   1.000  H
  C382     1.0000 0.58717  0.87551  0.08182  Biso   1.000  C
  C383     1.0000 0.61810  0.76548  0.06772  Biso   1.000  C
  C384     1.0000 0.55438  0.98090  0.09670  Biso   1.000  C
  C385     1.0000 0.65411  0.20711  0.78851  Biso   1.000  C
  C386     1.0000 0.80671  0.86681  0.83850  Biso   1.000  C
  H440     1.0000 0.59750  0.87492  0.11662  Biso   1.000  H
  N65      1.0000 0.63038  0.75751  0.11490  Biso   1.000  N
  H441     1.0000 0.62410  0.73391  0.04362  Biso   1.000  H
  H442     1.0000 0.56848  0.98529  0.12919  Biso   1.000  H
  N66      1.0000 0.52610  0.02150  0.08291  Biso   1.000  N
  C387     1.0000 0.66690  0.25070  0.83631  Biso   1.000  C
  C388     1.0000 0.66930  0.23511  0.74160  Biso   1.000  C
  H443     1.0000 0.62511  0.20511  0.78358  Biso   1.000  H
  C389     1.0000 0.82061  0.81951  0.88271  Biso   1.000  C
  C390     1.0000 0.81540  0.83769  0.78562  Biso   1.000  C
  H444     1.0000 0.82030  0.90878  0.84381  Biso   1.000  H
  C391     1.0000 0.65288  0.69629  0.12611  Biso   1.000  C
  C392     1.0000 0.51718  0.07392  0.11892  Biso   1.000  C
  N67      1.0000 0.65260  0.22319  0.88369  Biso   1.000  N
  H445     1.0000 0.69590  0.25221  0.84080  Biso   1.000  H
  C393     1.0000 0.65162  0.31881  0.82670  Biso   1.000  C
  C394     1.0000 0.65571  0.30488  0.73121  Biso   1.000  C
  H446     1.0000 0.66061  0.20829  0.71168  Biso   1.000  H
  H447     1.0000 0.69801  0.23408  0.74582  Biso   1.000  H
  N68      1.0000 0.81312  0.84990  0.93079  Biso   1.000  N
  H448     1.0000 0.80541  0.77881  0.87849  Biso   1.000  H
  C395     1.0000 0.86382  0.80481  0.88111  Biso   1.000  C
  C396     1.0000 0.86101  0.82391  0.78749  Biso   1.000  C
  H449     1.0000 0.80741  0.86808  0.75769  Biso   1.000  H
  H450     1.0000 0.80062  0.79738  0.77921  Biso   1.000  H
  H451     1.0000 0.65618  0.67338  0.09330  Biso   1.000  H
  C397     1.0000 0.63118  0.65330  0.16091  Biso   1.000  C
  C398     1.0000 0.69400  0.71471  0.15302  Biso   1.000  C
  H452     1.0000 0.53337  0.06948  0.15239  Biso   1.000  H
  C399     1.0000 0.47419  0.07070  0.12642  Biso   1.000  C
  C400     1.0000 0.52608  0.13842  0.09201  Biso   1.000  C
  C401     1.0000 0.67780  0.20272  0.91759  Biso   1.000  C
  H453     1.0000 0.66061  0.34622  0.85619  Biso   1.000  H
  H454     1.0000 0.62282  0.31822  0.82381  Biso   1.000  H
  C402     1.0000 0.66572  0.34739  0.77730  Biso   1.000  C
  H455     1.0000 0.66820  0.32198  0.70161  Biso   1.000  H
  H456     1.0000 0.62720  0.30532  0.72231  Biso   1.000  H
  C403     1.0000 0.78802  0.82709  0.95789  Biso   1.000  C
  H457     1.0000 0.87890  0.84468  0.88740  Biso   1.000  H
  H458     1.0000 0.87212  0.77422  0.90880  Biso   1.000  H
  C404     1.0000 0.87280  0.77662  0.83022  Biso   1.000  C
  H459     1.0000 0.86741  0.80608  0.75429  Biso   1.000  H
  H460     1.0000 0.87560  0.86442  0.79358  Biso   1.000  H
  H461     1.0000 0.60570  0.64142  0.14329  Biso   1.000  H
  H462     1.0000 0.62659  0.67699  0.19250  Biso   1.000  H
  C405     1.0000 0.65549  0.59061  0.17559  Biso   1.000  C
  N69      1.0000 0.71504  0.75018  0.11521  Biso   1.000  N
  C406     1.0000 0.71659  0.65422  0.16899  Biso   1.000  C
  H463     1.0000 0.69098  0.74222  0.18352  Biso   1.000  H
  H464     1.0000 0.46807  0.02971  0.14278  Biso   1.000  H
  H465     1.0000 0.45859  0.07339  0.09291  Biso   1.000  H
  C407     1.0000 0.46388  0.12909  0.16188  Biso   1.000  C
  N70      1.0000 0.56844  0.14081  0.08490  Biso   1.000  N
  C408     1.0000 0.51619  0.19480  0.12681  Biso   1.000  C
  H466     1.0000 0.51039  0.14150  0.05811  Biso   1.000  H
  C409     1.0000 0.66771  0.17619  0.96781  Biso   1.000  C
  H467     1.0000 0.70431  0.20399  0.91099  Biso   1.000  H
  H468     1.0000 0.65362  0.38990  0.77089  Biso   1.000  H
  H469     1.0000 0.69421  0.35340  0.78210  Biso   1.000  H
  H470     1.0000 0.77482  0.78932  0.94621  Biso   1.000  H
  C410     1.0000 0.77767  0.85562  0.00691  Biso   1.000  C
  H471     1.0000 0.85841  0.73601  0.82389  Biso   1.000  H
  H472     1.0000 0.90090  0.76728  0.83100  Biso   1.000  H
  H473     1.0000 0.64099  0.56271  0.19770  Biso   1.000  H
  H474     1.0000 0.66009  0.56642  0.14419  Biso   1.000  H
  C411     1.0000 0.69329  0.61010  0.20320  Biso   1.000  C
  C412     1.0000 0.72468  0.80808  0.12400  Biso   1.000  C
  H475     1.0000 0.74159  0.66619  0.18809  Biso   1.000  H
  H476     1.0000 0.72247  0.63028  0.13810  Biso   1.000  H
  H477     1.0000 0.43599  0.12762  0.16739  Biso   1.000  H
  H478     1.0000 0.47909  0.12542  0.19559  Biso   1.000  H
  C413     1.0000 0.47318  0.19348  0.13689  Biso   1.000  C
  C414     1.0000 0.57769  0.14702  0.03882  Biso   1.000  C
  H479     1.0000 0.53250  0.19221  0.15981  Biso   1.000  H
  H480     1.0000 0.52209  0.23579  0.11021  Biso   1.000  H
  C415     1.0000 0.62911  0.17091  0.97929  Biso   1.000  C
  C416     1.0000 0.69769  0.16461  0.00640  Biso   1.000  C
  C417     1.0000 0.75447  0.82122  0.04042  Biso   1.000  C
  C418     1.0000 0.79169  0.91591  0.02351  Biso   1.000  C
  H481     1.0000 0.70879  0.57141  0.21301  Biso   1.000  H
  H482     1.0000 0.68839  0.63312  0.23500  Biso   1.000  H
  C419     1.0000 0.74580  0.84751  0.08721  Biso   1.000  C
  H483     1.0000 0.71830  0.82728  0.15489  Biso   1.000  H
  H484     1.0000 0.45677  0.19871  0.10420  Biso   1.000  H
  H485     1.0000 0.46760  0.22920  0.15981  Biso   1.000  H
  C420     1.0000 0.61979  0.15010  0.02749  Biso   1.000  C
  H486     1.0000 0.55779  0.14961  0.01140  Biso   1.000  H
  H487     1.0000 0.60881  0.18161  0.95391  Biso   1.000  H
  H488     1.0000 0.72401  0.17101  0.99960  Biso   1.000  H
  C421     1.0000 0.68899  0.14321  0.05581  Biso   1.000  C
  H489     1.0000 0.74488  0.77999  0.03061  Biso   1.000  H
  C422     1.0000 0.78329  0.94332  0.06909  Biso   1.000  C
  H490     1.0000 0.80769  0.93902  0.00230  Biso   1.000  H
  C423     1.0000 0.76119  0.90790  0.10279  Biso   1.000  C
  C424     1.0000 0.64998  0.13749  0.06619  Biso   1.000  C
  C425     1.0000 0.71919  0.13739  0.09888  Biso   1.000  C
  C426     1.0000 0.80058  0.00708  0.08522  Biso   1.000  C
  H491     1.0000 0.75688  0.92471  0.13552  Biso   1.000  H
  H492     1.0000 0.64387  0.12508  0.09931  Biso   1.000  H
  N71      1.0000 0.75499  0.15259  0.09681  Biso   1.000  N
  H493     1.0000 0.71170  0.12132  0.13040  Biso   1.000  H
  N72      1.0000 0.79670  0.03401  0.12701  Biso   1.000  N
  H494     1.0000 0.81549  0.02858  0.06182  Biso   1.000  H
  C427     1.0000 0.78140  0.14760  0.14302  Biso   1.000  C
  C428     1.0000 0.81430  0.09948  0.13611  Biso   1.000  C
  H495     1.0000 0.76648  0.13290  0.17169  Biso   1.000  H
  C429     1.0000 0.79889  0.21532  0.15641  Biso   1.000  C
  C430     1.0000 0.84479  0.09718  0.18200  Biso   1.000  C
  H496     1.0000 0.82738  0.11218  0.10521  Biso   1.000  H
  H497     1.0000 0.81159  0.23218  0.12681  Biso   1.000  H
  H498     1.0000 0.77790  0.24522  0.16360  Biso   1.000  H
  C431     1.0000 0.82909  0.21088  0.20379  Biso   1.000  C
  C432     1.0000 0.86168  0.16412  0.19531  Biso   1.000  C
  H499     1.0000 0.86597  0.06801  0.17430  Biso   1.000  H
  H500     1.0000 0.83288  0.07979  0.21199  Biso   1.000  H
  H501     1.0000 0.84028  0.25392  0.21141  Biso   1.000  H
  H502     1.0000 0.81589  0.19690  0.23379  Biso   1.000  H
  H503     1.0000 0.87988  0.16148  0.22660  Biso   1.000  H
  H504     1.0000 0.87639  0.17961  0.16700  Biso   1.000  H
  C433     1.0000 0.63899  0.32389  0.21250  Biso   1.000  C
  C434     1.0000 0.62720  0.27659  0.16982  Biso   1.000  C
  H505     1.0000 0.63259  0.30610  0.24570  Biso   1.000  H
  H506     1.0000 0.62440  0.36439  0.20641  Biso   1.000  H
  C435     1.0000 0.68460  0.33771  0.21442  Biso   1.000  C
  C436     1.0000 0.63621  0.30478  0.11889  Biso   1.000  C
  H507     1.0000 0.64160  0.23599  0.17610  Biso   1.000  H
  H508     1.0000 0.59911  0.26731  0.16900  Biso   1.000  H
  C437     1.0000 0.69330  0.36679  0.16150  Biso   1.000  C
  H509     1.0000 0.69259  0.36810  0.24230  Biso   1.000  H
  H510     1.0000 0.69939  0.29741  0.22078  Biso   1.000  H
  C438     1.0000 0.67939  0.31949  0.11729  Biso   1.000  C
  H511     1.0000 0.62111  0.34470  0.11260  Biso   1.000  H
  H512     1.0000 0.62791  0.27420  0.09120  Biso   1.000  H
  N73      1.0000 0.73510  0.37602  0.16208  Biso   1.000  N
  H513     1.0000 0.67971  0.40880  0.15619  Biso   1.000  H
  N74      1.0000 0.68689  0.34988  0.06921  Biso   1.000  N
  H514     1.0000 0.69459  0.27879  0.12150  Biso   1.000  H
  C439     1.0000 0.74699  0.43289  0.15482  Biso   1.000  C
  C440     1.0000 0.71201  0.32711  0.04210  Biso   1.000  C
  C441     1.0000 0.78911  0.44960  0.15911  Biso   1.000  C
  H515     1.0000 0.72841  0.46558  0.14650  Biso   1.000  H
  H516     1.0000 0.72519  0.28929  0.05382  Biso   1.000  H
  C442     1.0000 0.72233  0.35560  0.99309  Biso   1.000  C
  C443     1.0000 0.81999  0.40201  0.15849  Biso   1.000  C
  C444     1.0000 0.80151  0.51370  0.17111  Biso   1.000  C
  C445     1.0000 0.74554  0.32120  0.95962  Biso   1.000  C
  C446     1.0000 0.70834  0.41589  0.97649  Biso   1.000  C
  C447     1.0000 0.85899  0.41672  0.16880  Biso   1.000  C
  H517     1.0000 0.81299  0.35902  0.15072  Biso   1.000  H
  C448     1.0000 0.84209  0.52900  0.18130  Biso   1.000  C
  H518     1.0000 0.78271  0.54659  0.17232  Biso   1.000  H
  H519     1.0000 0.75513  0.28001  0.96942  Biso   1.000  H
  C449     1.0000 0.75424  0.34749  0.91279  Biso   1.000  C
  C450     1.0000 0.71671  0.44330  0.93091  Biso   1.000  C
  H520     1.0000 0.69234  0.43900  0.99770  Biso   1.000  H
  C451     1.0000 0.86950  0.48092  0.18118  Biso   1.000  C
  C452     1.0000 0.88911  0.36542  0.17208  Biso   1.000  C
  C453     1.0000 0.85399  0.59598  0.19591  Biso   1.000  C
  C454     1.0000 0.73884  0.40788  0.89720  Biso   1.000  C
  C455     1.0000 0.77532  0.30811  0.87600  Biso   1.000  C
  C456     1.0000 0.69942  0.50711  0.91482  Biso   1.000  C
  H521     1.0000 0.89600  0.49108  0.18962  Biso   1.000  H
  N75      1.0000 0.92359  0.37392  0.19169  Biso   1.000  N
  H522     1.0000 0.88201  0.32428  0.15900  Biso   1.000  H
  N76      1.0000 0.83010  0.64172  0.19989  Biso   1.000  N
  H523     1.0000 0.88091  0.60488  0.20270  Biso   1.000  H
  H524     1.0000 0.74312  0.42468  0.86451  Biso   1.000  H
  N77      1.0000 0.78496  0.25021  0.88478  Biso   1.000  N
  H525     1.0000 0.78174  0.32731  0.84510  Biso   1.000  H
  N78      1.0000 0.70334  0.53398  0.87299  Biso   1.000  N
  H526     1.0000 0.68452  0.52861  0.93821  Biso   1.000  H
  C457     1.0000 0.95080  0.31900  0.19552  Biso   1.000  C
  C458     1.0000 0.84590  0.70709  0.21149  Biso   1.000  C
  C459     1.0000 0.80604  0.21469  0.84702  Biso   1.000  C
  C460     1.0000 0.68574  0.59950  0.86389  Biso   1.000  C
  H527     1.0000 0.93650  0.27801  0.18802  Biso   1.000  H
  C461     1.0000 0.97199  0.31768  0.25121  Biso   1.000  C
  C462     1.0000 0.98219  0.32960  0.15619  Biso   1.000  C
  C463     1.0000 0.83311  0.75072  0.16368  Biso   1.000  C
  C464     1.0000 0.83071  0.73509  0.25840  Biso   1.000  C
  H528     1.0000 0.87490  0.70509  0.21641  Biso   1.000  H
  C465     1.0000 0.84713  0.19632  0.87389  Biso   1.000  C
  C466     1.0000 0.78341  0.15420  0.83100  Biso   1.000  C
  H529     1.0000 0.80903  0.24219  0.81651  Biso   1.000  H
  C467     1.0000 0.71864  0.64758  0.85702  Biso   1.000  C
  C468     1.0000 0.65522  0.59721  0.81800  Biso   1.000  C
  H530     1.0000 0.67262  0.61221  0.89478  Biso   1.000  H
  H531     1.0000 0.98500  0.35941  0.25871  Biso   1.000  H
  H532     1.0000 0.95260  0.31128  0.27628  Biso   1.000  H
  C469     1.0000 0.00239  0.26389  0.25719  Biso   1.000  C
  N79      1.0000 0.96205  0.32521  0.10459  Biso   1.000  N
  H533     1.0000 0.99490  0.37231  0.16161  Biso   1.000  H
  C470     1.0000 0.01261  0.27591  0.16201  Biso   1.000  C
  N80      1.0000 0.84741  0.72321  0.11631  Biso   1.000  N
  H534     1.0000 0.80411  0.75219  0.15919  Biso   1.000  H
  C471     1.0000 0.84841  0.81878  0.17329  Biso   1.000  C
  C472     1.0000 0.84430  0.80491  0.26878  Biso   1.000  C
  H535     1.0000 0.83940  0.70831  0.28831  Biso   1.000  H
  H536     1.0000 0.80200  0.73411  0.25422  Biso   1.000  H
  N81      1.0000 0.86963  0.25749  0.88510  Biso   1.000  N
  H537     1.0000 0.84383  0.17340  0.90669  Biso   1.000  H
  C473     1.0000 0.86883  0.15332  0.83909  Biso   1.000  C
  C474     1.0000 0.80671  0.11008  0.79679  Biso   1.000  C
  H538     1.0000 0.75842  0.16622  0.81191  Biso   1.000  H
  H539     1.0000 0.77753  0.13031  0.86190  Biso   1.000  H
  N82      1.0000 0.74504  0.65261  0.90322  Biso   1.000  N
  H540     1.0000 0.73353  0.63292  0.82831  Biso   1.000  H
  C475     1.0000 0.70112  0.71530  0.84362  Biso   1.000  C
  C476     1.0000 0.63833  0.66409  0.80472  Biso   1.000  C
  H541     1.0000 0.63403  0.56799  0.82569  Biso   1.000  H
  H542     1.0000 0.66713  0.57981  0.78800  Biso   1.000  H
  H543     1.0000 0.98951  0.22172  0.25230  Biso   1.000  H
  H544     1.0000 0.01620  0.26511  0.29198  Biso   1.000  H
  C477     1.0000 0.03221  0.27371  0.21602  Biso   1.000  C
  C478     1.0000 0.96221  0.37431  0.07542  Biso   1.000  C
  H545     1.0000 0.99981  0.23428  0.15369  Biso   1.000  H
  H546     1.0000 0.03240  0.28299  0.13759  Biso   1.000  H
  C479     1.0000 0.82221  0.70269  0.08241  Biso   1.000  C
  H547     1.0000 0.83940  0.84619  0.14380  Biso   1.000  H
  H548     1.0000 0.87721  0.81820  0.17618  Biso   1.000  H
  C480     1.0000 0.83431  0.84741  0.22270  Biso   1.000  C
  H549     1.0000 0.83180  0.82201  0.29839  Biso   1.000  H
  H550     1.0000 0.87281  0.80530  0.27769  Biso   1.000  H
  C481     1.0000 0.88194  0.26550  0.93232  Biso   1.000  C
  H551     1.0000 0.89434  0.14140  0.85670  Biso   1.000  H
  H552     1.0000 0.87342  0.17702  0.80749  Biso   1.000  H
  C482     1.0000 0.84452  0.09058  0.82440  Biso   1.000  C
  H553     1.0000 0.79122  0.07138  0.78699  Biso   1.000  H
  H554     1.0000 0.81162  0.13309  0.76500  Biso   1.000  H
  C483     1.0000 0.78081  0.63742  0.90111  Biso   1.000  C
  H555     1.0000 0.68842  0.73220  0.87318  Biso   1.000  H
  H556     1.0000 0.72213  0.74520  0.83639  Biso   1.000  H
  C484     1.0000 0.67091  0.71090  0.79620  Biso   1.000  C
  H557     1.0000 0.62013  0.66150  0.77340  Biso   1.000  H
  H558     1.0000 0.62362  0.67958  0.83300  Biso   1.000  H
  H559     1.0000 0.04649  0.31431  0.22328  Biso   1.000  H
  H560     1.0000 0.05131  0.23829  0.21871  Biso   1.000  H
  C485     1.0000 0.94420  0.37641  0.02269  Biso   1.000  C
  H561     1.0000 0.97479  0.41178  0.08881  Biso   1.000  H
  C486     1.0000 0.83230  0.67621  0.03218  Biso   1.000  C
  H562     1.0000 0.79569  0.70401  0.08901  Biso   1.000  H
  H563     1.0000 0.84641  0.88992  0.22910  Biso   1.000  H
  H564     1.0000 0.80579  0.85342  0.21789  Biso   1.000  H
  C487     1.0000 0.90564  0.32359  0.95141  Biso   1.000  C
  H565     1.0000 0.87594  0.23389  0.95641  Biso   1.000  H
  H566     1.0000 0.85904  0.06269  0.80230  Biso   1.000  H
  H567     1.0000 0.83994  0.06640  0.85580  Biso   1.000  H
  C488     1.0000 0.81102  0.64318  0.94419  Biso   1.000  C
  H568     1.0000 0.78834  0.62129  0.86959  Biso   1.000  H
  H569     1.0000 0.65973  0.75390  0.78859  Biso   1.000  H
  H570     1.0000 0.68412  0.69688  0.76621  Biso   1.000  H
  C489     1.0000 0.92120  0.32359  0.00211  Biso   1.000  C
  C490     1.0000 0.95033  0.42722  0.98981  Biso   1.000  C
  C491     1.0000 0.80232  0.66458  0.99359  Biso   1.000  C
  C492     1.0000 0.87090  0.67088  0.02070  Biso   1.000  C
  C493     1.0000 0.91284  0.37548  0.91822  Biso   1.000  C
  C494     1.0000 0.85002  0.63751  0.93380  Biso   1.000  C
  H571     1.0000 0.91651  0.28822  0.02339  Biso   1.000  H
  C495     1.0000 0.93564  0.42840  0.93802  Biso   1.000  C
  H572     1.0000 0.96509  0.46270  0.00301  Biso   1.000  H
  H573     1.0000 0.77599  0.67098  0.00039  Biso   1.000  H
  C496     1.0000 0.88024  0.65012  0.97250  Biso   1.000  C
  H574     1.0000 0.89120  0.68158  0.04609  Biso   1.000  H
  H575     1.0000 0.90254  0.37490  0.88342  Biso   1.000  H
  H576     1.0000 0.85614  0.62510  0.90072  Biso   1.000  H
  C497     1.0000 0.94562  0.48092  0.90330  Biso   1.000  C
  C498     1.0000 0.92234  0.64699  0.96122  Biso   1.000  C
  N83      1.0000 0.97394  0.52152  0.91708  Biso   1.000  N
  H577     1.0000 0.93153  0.48532  0.87080  Biso   1.000  H
  N84      1.0000 0.93160  0.64079  0.91509  Biso   1.000  N
  H578     1.0000 0.94222  0.64958  0.98860  Biso   1.000  H
  C499     1.0000 0.98283  0.57390  0.88111  Biso   1.000  C
  C500     1.0000 0.97393  0.63839  0.90798  Biso   1.000  C
  H579     1.0000 0.96663  0.56950  0.84760  Biso   1.000  H
  C501     1.0000 0.02584  0.57072  0.87361  Biso   1.000  C
  C502     1.0000 0.98382  0.69478  0.87318  Biso   1.000  C
  H580     1.0000 0.98962  0.64152  0.94188  Biso   1.000  H
  H581     1.0000 0.03194  0.52968  0.85721  Biso   1.000  H
  H582     1.0000 0.04142  0.57341  0.90709  Biso   1.000  H
  C503     1.0000 0.03613  0.62911  0.83811  Biso   1.000  C
  H583     1.0000 0.96754  0.69219  0.84018  Biso   1.000  H
  H584     1.0000 0.97792  0.73582  0.88978  Biso   1.000  H
  C504     1.0000 0.02683  0.69351  0.86311  Biso   1.000  C
  H585     1.0000 0.06402  0.62760  0.83261  Biso   1.000  H
  H586     1.0000 0.02092  0.62540  0.80441  Biso   1.000  H
  H587     1.0000 0.04323  0.69869  0.89580  Biso   1.000  H
  H588     1.0000 0.03244  0.72922  0.84018  Biso   1.000  H
  C505     1.0000 0.36100  0.32389  0.78749  Biso   1.000  C
  C506     1.0000 0.31542  0.33771  0.78562  Biso   1.000  C
  C507     1.0000 0.37282  0.27659  0.83022  Biso   1.000  C
  H589     1.0000 0.36740  0.30610  0.75429  Biso   1.000  H
  H590     1.0000 0.37562  0.36439  0.79358  Biso   1.000  H
  H591     1.0000 0.30740  0.36810  0.75769  Biso   1.000  H
  H592     1.0000 0.30060  0.29741  0.77921  Biso   1.000  H
  C508     1.0000 0.30672  0.36679  0.83850  Biso   1.000  C
  C509     1.0000 0.36381  0.30478  0.88111  Biso   1.000  C
  H593     1.0000 0.35842  0.23599  0.82389  Biso   1.000  H
  H594     1.0000 0.40091  0.26731  0.83100  Biso   1.000  H
  N85      1.0000 0.26492  0.37602  0.83791  Biso   1.000  N
  C510     1.0000 0.32063  0.31949  0.88271  Biso   1.000  C
  H595     1.0000 0.32031  0.40880  0.84381  Biso   1.000  H
  H596     1.0000 0.37891  0.34470  0.88740  Biso   1.000  H
  H597     1.0000 0.37211  0.27420  0.90880  Biso   1.000  H
  C511     1.0000 0.25300  0.43289  0.84521  Biso   1.000  C
  N86      1.0000 0.31310  0.34988  0.93079  Biso   1.000  N
  H598     1.0000 0.30540  0.27879  0.87849  Biso   1.000  H
  C512     1.0000 0.21091  0.44960  0.84092  Biso   1.000  C
  H599     1.0000 0.27161  0.46558  0.85349  Biso   1.000  H
  C513     1.0000 0.28801  0.32711  0.95789  Biso   1.000  C
  C514     1.0000 0.18003  0.40201  0.84150  Biso   1.000  C
  C515     1.0000 0.19851  0.51370  0.82889  Biso   1.000  C
  H600     1.0000 0.27480  0.28929  0.94621  Biso   1.000  H
  C516     1.0000 0.27769  0.35560  0.00691  Biso   1.000  C
  C517     1.0000 0.14100  0.41672  0.83119  Biso   1.000  C
  H601     1.0000 0.18700  0.35902  0.84932  Biso   1.000  H
  C518     1.0000 0.15790  0.52900  0.81870  Biso   1.000  C
  H602     1.0000 0.21732  0.54659  0.82772  Biso   1.000  H
  C519     1.0000 0.25449  0.32120  0.04042  Biso   1.000  C
  C520     1.0000 0.29168  0.41589  0.02351  Biso   1.000  C
  C521     1.0000 0.13052  0.48092  0.81881  Biso   1.000  C
  C522     1.0000 0.11091  0.36542  0.82791  Biso   1.000  C
  C523     1.0000 0.14600  0.59598  0.80409  Biso   1.000  C
  H603     1.0000 0.24489  0.28001  0.03061  Biso   1.000  H
  C524     1.0000 0.24578  0.34749  0.08721  Biso   1.000  C
  C525     1.0000 0.28328  0.44330  0.06909  Biso   1.000  C
  H604     1.0000 0.30768  0.43900  0.00230  Biso   1.000  H
  H605     1.0000 0.10402  0.49108  0.81042  Biso   1.000  H
  N87      1.0000 0.07640  0.37392  0.80831  Biso   1.000  N
  H606     1.0000 0.11801  0.32428  0.84100  Biso   1.000  H
  N88      1.0000 0.16992  0.64172  0.80011  Biso   1.000  N
  H607     1.0000 0.11911  0.60488  0.79729  Biso   1.000  H
  C526     1.0000 0.26118  0.40788  0.10279  Biso   1.000  C
  C527     1.0000 0.22470  0.30811  0.12400  Biso   1.000  C
  C528     1.0000 0.30060  0.50711  0.08522  Biso   1.000  C
  C529     1.0000 0.04922  0.31900  0.80452  Biso   1.000  C
  C530     1.0000 0.15412  0.70709  0.78851  Biso   1.000  C
  H608     1.0000 0.25690  0.42468  0.13552  Biso   1.000  H
  N89      1.0000 0.21506  0.25021  0.11521  Biso   1.000  N
  H609     1.0000 0.21828  0.32731  0.15489  Biso   1.000  H
  N90      1.0000 0.29668  0.53398  0.12701  Biso   1.000  N
  H610     1.0000 0.31547  0.52861  0.06182  Biso   1.000  H
  H611     1.0000 0.06353  0.27801  0.81202  Biso   1.000  H
  C531     1.0000 0.02800  0.31768  0.74879  Biso   1.000  C
  C532     1.0000 0.01780  0.32960  0.84381  Biso   1.000  C
  C533     1.0000 0.16691  0.75072  0.83631  Biso   1.000  C
  C534     1.0000 0.16931  0.73509  0.74160  Biso   1.000  C
  H612     1.0000 0.12512  0.70509  0.78358  Biso   1.000  H
  C535     1.0000 0.19398  0.21469  0.15302  Biso   1.000  C
  C536     1.0000 0.31428  0.59950  0.13611  Biso   1.000  C
  H613     1.0000 0.01502  0.35941  0.74129  Biso   1.000  H
  H614     1.0000 0.04742  0.31128  0.72371  Biso   1.000  H
  C537     1.0000 0.99760  0.26389  0.74281  Biso   1.000  C
  N91      1.0000 0.03794  0.32521  0.89540  Biso   1.000  N
  H615     1.0000 0.00512  0.37231  0.83842  Biso   1.000  H
  C538     1.0000 0.98741  0.27591  0.83799  Biso   1.000  C
  N92      1.0000 0.15261  0.72321  0.88369  Biso   1.000  N
  H616     1.0000 0.19591  0.75219  0.84080  Biso   1.000  H
  C539     1.0000 0.15161  0.81878  0.82670  Biso   1.000  C
  C540     1.0000 0.15572  0.80491  0.73121  Biso   1.000  C
  H617     1.0000 0.16062  0.70831  0.71168  Biso   1.000  H
  H618     1.0000 0.19802  0.73411  0.74582  Biso   1.000  H
  C541     1.0000 0.15289  0.19632  0.12611  Biso   1.000  C
  C542     1.0000 0.21658  0.15420  0.16899  Biso   1.000  C
  H619     1.0000 0.19099  0.24219  0.18352  Biso   1.000  H
  C543     1.0000 0.28138  0.64758  0.14302  Biso   1.000  C
  C544     1.0000 0.34480  0.59721  0.18200  Biso   1.000  C
  H620     1.0000 0.32740  0.61221  0.10521  Biso   1.000  H
  H621     1.0000 0.01051  0.22172  0.74769  Biso   1.000  H
  H622     1.0000 0.98382  0.26511  0.70801  Biso   1.000  H
  C545     1.0000 0.96782  0.27371  0.78401  Biso   1.000  C
  C546     1.0000 0.03782  0.37431  0.92462  Biso   1.000  C
  H623     1.0000 0.00021  0.23428  0.84631  Biso   1.000  H
  H624     1.0000 0.96762  0.28299  0.86240  Biso   1.000  H
  C547     1.0000 0.17781  0.70269  0.91759  Biso   1.000  C
  H625     1.0000 0.16062  0.84619  0.85619  Biso   1.000  H
  H626     1.0000 0.12281  0.81820  0.82381  Biso   1.000  H
  C548     1.0000 0.16571  0.84741  0.77730  Biso   1.000  C
  H627     1.0000 0.16822  0.82201  0.70161  Biso   1.000  H
  H628     1.0000 0.12721  0.80530  0.72231  Biso   1.000  H
  N93      1.0000 0.13039  0.25749  0.11490  Biso   1.000  N
  H629     1.0000 0.15619  0.17340  0.09330  Biso   1.000  H
  C549     1.0000 0.13119  0.15332  0.16091  Biso   1.000  C
  C550     1.0000 0.19328  0.11008  0.20320  Biso   1.000  C
  H630     1.0000 0.24157  0.16622  0.18809  Biso   1.000  H
  H631     1.0000 0.22249  0.13031  0.13810  Biso   1.000  H
  N94      1.0000 0.25498  0.65261  0.09681  Biso   1.000  N
  H632     1.0000 0.26649  0.63292  0.17169  Biso   1.000  H
  C551     1.0000 0.29887  0.71530  0.15641  Biso   1.000  C
  C552     1.0000 0.36169  0.66409  0.19531  Biso   1.000  C
  H633     1.0000 0.36599  0.56799  0.17430  Biso   1.000  H
  H634     1.0000 0.33289  0.57981  0.21199  Biso   1.000  H
  H635     1.0000 0.95350  0.31431  0.77671  Biso   1.000  H
  H636     1.0000 0.94871  0.23829  0.78132  Biso   1.000  H
  C553     1.0000 0.05582  0.37641  0.97730  Biso   1.000  C
  H637     1.0000 0.02520  0.41178  0.91122  Biso   1.000  H
  C554     1.0000 0.16772  0.67621  0.96781  Biso   1.000  C
  H638     1.0000 0.20430  0.70401  0.91099  Biso   1.000  H
  H639     1.0000 0.15361  0.88992  0.77089  Biso   1.000  H
  H640     1.0000 0.19420  0.85342  0.78210  Biso   1.000  H
  C555     1.0000 0.11808  0.26550  0.06772  Biso   1.000  C
  H641     1.0000 0.10568  0.14140  0.14329  Biso   1.000  H
  H642     1.0000 0.12660  0.17702  0.19250  Biso   1.000  H
  C556     1.0000 0.15550  0.09058  0.17559  Biso   1.000  C
  H643     1.0000 0.20877  0.07138  0.21301  Biso   1.000  H
  H644     1.0000 0.18840  0.13309  0.23500  Biso   1.000  H
  C557     1.0000 0.21918  0.63742  0.09888  Biso   1.000  C
  H645     1.0000 0.31157  0.73220  0.12681  Biso   1.000  H
  H646     1.0000 0.27789  0.74520  0.16360  Biso   1.000  H
  C558     1.0000 0.32908  0.71090  0.20379  Biso   1.000  C
  H647     1.0000 0.37989  0.66150  0.22660  Biso   1.000  H
  H648     1.0000 0.37637  0.67958  0.16700  Biso   1.000  H
  C559     1.0000 0.07882  0.32359  0.99789  Biso   1.000  C
  C560     1.0000 0.04969  0.42722  0.01019  Biso   1.000  C
  C561     1.0000 0.12912  0.67088  0.97929  Biso   1.000  C
  C562     1.0000 0.19767  0.66458  0.00640  Biso   1.000  C
  C563     1.0000 0.09439  0.32359  0.04862  Biso   1.000  C
  H649     1.0000 0.12408  0.23389  0.04362  Biso   1.000  H
  H650     1.0000 0.14098  0.06269  0.19770  Biso   1.000  H
  H651     1.0000 0.16008  0.06640  0.14419  Biso   1.000  H
  C564     1.0000 0.18897  0.64318  0.05581  Biso   1.000  C
  H652     1.0000 0.21168  0.62129  0.13040  Biso   1.000  H
  H653     1.0000 0.34029  0.75390  0.21141  Biso   1.000  H
  H654     1.0000 0.31587  0.69688  0.23379  Biso   1.000  H
  H655     1.0000 0.08351  0.28822  0.97660  Biso   1.000  H
  H656     1.0000 0.03490  0.46270  0.99699  Biso   1.000  H
  C565     1.0000 0.06439  0.42840  0.06202  Biso   1.000  C
  H657     1.0000 0.10882  0.68158  0.95391  Biso   1.000  H
  C566     1.0000 0.11978  0.65012  0.02749  Biso   1.000  C
  H658     1.0000 0.22400  0.67098  0.99960  Biso   1.000  H
  C567     1.0000 0.08719  0.37548  0.08182  Biso   1.000  C
  C568     1.0000 0.14997  0.63751  0.06619  Biso   1.000  C
  C569     1.0000 0.05440  0.48092  0.09670  Biso   1.000  C
  C570     1.0000 0.07768  0.64699  0.03882  Biso   1.000  C
  H659     1.0000 0.09748  0.37490  0.11662  Biso   1.000  H
  H660     1.0000 0.14389  0.62510  0.09931  Biso   1.000  H
  N95      1.0000 0.02608  0.52152  0.08291  Biso   1.000  N
  H661     1.0000 0.06849  0.48532  0.12919  Biso   1.000  H
  N96      1.0000 0.06842  0.64079  0.08490  Biso   1.000  N
  H662     1.0000 0.05777  0.64958  0.01140  Biso   1.000  H
  C571     1.0000 0.01719  0.57390  0.11892  Biso   1.000  C
  C572     1.0000 0.02609  0.63839  0.09201  Biso   1.000  C
  C573     1.0000 0.97418  0.57072  0.12642  Biso   1.000  C
  H663     1.0000 0.03339  0.56950  0.15239  Biso   1.000  H
  C574     1.0000 0.01617  0.69478  0.12681  Biso   1.000  C
  H664     1.0000 0.01037  0.64152  0.05811  Biso   1.000  H
  H665     1.0000 0.96808  0.52968  0.14278  Biso   1.000  H
  H666     1.0000 0.95857  0.57341  0.09291  Biso   1.000  H
  C575     1.0000 0.96389  0.62911  0.16188  Biso   1.000  C
  C576     1.0000 0.97319  0.69351  0.13689  Biso   1.000  C
  H667     1.0000 0.03248  0.69219  0.15981  Biso   1.000  H
  H668     1.0000 0.02208  0.73582  0.11021  Biso   1.000  H
  H669     1.0000 0.93597  0.62760  0.16739  Biso   1.000  H
  H670     1.0000 0.97910  0.62540  0.19559  Biso   1.000  H
  H671     1.0000 0.95679  0.69869  0.10420  Biso   1.000  H
  H672     1.0000 0.96758  0.72922  0.15981  Biso   1.000  H
