data_image0
_cell_length_a       25.208
_cell_length_b       25.208
_cell_length_c       11.067
_cell_angle_alpha    90
_cell_angle_beta     90
_cell_angle_gamma    120

_symmetry_space_group_name_H-M    "P 1"
_symmetry_int_tables_number       1

loop_
  _symmetry_equiv_pos_as_xyz
  'x, y, z'

loop_
  _atom_site_label
  _atom_site_occupancy
  _atom_site_fract_x
  _atom_site_fract_y
  _atom_site_fract_z
  _atom_site_thermal_displace_type
  _atom_site_B_iso_or_equiv
  _atom_site_type_symbol
  C1       1.0000 0.87027  0.84440  0.37580  Biso   1.000  C
  C2       1.0000 0.83939  0.86181  0.46354  Biso   1.000  C
  C3       1.0000 0.83943  0.86181  0.46354  Biso   1.000  C
  C4       1.0000 0.92451  0.84633  0.40481  Biso   1.000  C
  C5       1.0000 0.84679  0.82402  0.25951  Biso   1.000  C
  C6       1.0000 0.84683  0.82402  0.25951  Biso   1.000  C
  N1       1.0000 0.78620  0.85279  0.45234  Biso   1.000  N
  N2       1.0000 0.78622  0.85283  0.45234  Biso   1.000  N
  C7       1.0000 0.87031  0.84440  0.37580  Biso   1.000  C
  H1       1.0000 0.86110  0.88160  0.53510  Biso   1.000  H
  H2       1.0000 0.94270  0.86232  0.48116  Biso   1.000  H
  C8       1.0000 0.95300  0.82562  0.32665  Biso   1.000  C
  H3       1.0000 0.94274  0.86232  0.48116  Biso   1.000  H
  C9       1.0000 0.95304  0.82562  0.32665  Biso   1.000  C
  C10      1.0000 0.87560  0.80492  0.17855  Biso   1.000  C
  H4       1.0000 0.81032  0.82342  0.23584  Biso   1.000  H
  C11      1.0000 0.87564  0.80492  0.17855  Biso   1.000  C
  C12      1.0000 0.76152  0.87102  0.55281  Biso   1.000  C
  C13      1.0000 0.92899  0.80561  0.21352  Biso   1.000  C
  C14      1.0000 0.92902  0.80561  0.21352  Biso   1.000  C
  C15      1.0000 0.00820  0.82329  0.36704  Biso   1.000  C
  C16      1.0000 0.00822  0.82333  0.36704  Biso   1.000  C
  C17      1.0000 0.00816  0.82329  0.36704  Biso   1.000  C
  C18      1.0000 0.84781  0.78050  0.05756  Biso   1.000  C
  C19      1.0000 0.70269  0.81779  0.59763  Biso   1.000  C
  C20      1.0000 0.74969  0.92131  0.50619  Biso   1.000  C
  H5       1.0000 0.79210  0.88751  0.62013  Biso   1.000  H
  C21      1.0000 0.74973  0.92131  0.50619  Biso   1.000  C
  H6       1.0000 0.79214  0.88751  0.62013  Biso   1.000  H
  H7       1.0000 0.94881  0.79209  0.15885  Biso   1.000  H
  N3       1.0000 0.02508  0.83309  0.47384  Biso   1.000  N
  H8       1.0000 0.03080  0.81422  0.31011  Biso   1.000  H
  N4       1.0000 0.02507  0.83314  0.47384  Biso   1.000  N
  N5       1.0000 0.02504  0.83309  0.47384  Biso   1.000  N
  N6       1.0000 0.02510  0.83314  0.47384  Biso   1.000  N
  H9       1.0000 0.81210  0.78160  0.03434  Biso   1.000  H
  N7       1.0000 0.87019  0.75879  0.98636  Biso   1.000  N
  C22      1.0000 0.67239  0.83621  0.69531  Biso   1.000  C
  H10      1.0000 0.71100  0.78609  0.63025  Biso   1.000  H
  H11      1.0000 0.67400  0.79951  0.52878  Biso   1.000  H
  C23      1.0000 0.67243  0.83621  0.69531  Biso   1.000  C
  H12      1.0000 0.67403  0.79951  0.52878  Biso   1.000  H
  N8       1.0000 0.80805  0.97495  0.47384  Biso   1.000  N
  H13      1.0000 0.72231  0.90629  0.43390  Biso   1.000  H
  C24      1.0000 0.72029  0.94042  0.60558  Biso   1.000  C
  H14      1.0000 0.72229  0.90634  0.43390  Biso   1.000  H
  C25      1.0000 0.72033  0.94042  0.60558  Biso   1.000  C
  H15      1.0000 0.72233  0.90634  0.43390  Biso   1.000  H
  C26      1.0000 0.07872  0.82842  0.50619  Biso   1.000  C
  C27      1.0000 0.07868  0.82842  0.50619  Biso   1.000  C
  C28      1.0000 0.83990  0.73479  0.86952  Biso   1.000  C
  C29      1.0000 0.83993  0.73483  0.86952  Biso   1.000  C
  C30      1.0000 0.66089  0.88572  0.64760  Biso   1.000  C
  H16      1.0000 0.63312  0.80011  0.71980  Biso   1.000  H
  H17      1.0000 0.69931  0.85141  0.76724  Biso   1.000  H
  H18      1.0000 0.63308  0.80011  0.71980  Biso   1.000  H
  C31      1.0000 0.66093  0.88572  0.64760  Biso   1.000  C
  C32      1.0000 0.81509  0.99181  0.36704  Biso   1.000  C
  C33      1.0000 0.81513  0.99181  0.36704  Biso   1.000  C
  H19      1.0000 0.74883  0.95782  0.67471  Biso   1.000  H
  H20      1.0000 0.71208  0.97239  0.57423  Biso   1.000  H
  H21      1.0000 0.74879  0.95782  0.67471  Biso   1.000  H
  H22      1.0000 0.71210  0.97243  0.57423  Biso   1.000  H
  H23      1.0000 0.71211  0.97239  0.57423  Biso   1.000  H
  H24      1.0000 0.71214  0.97243  0.57423  Biso   1.000  H
  H25      1.0000 0.09370  0.81600  0.43390  Biso   1.000  H
  C34      1.0000 0.12899  0.89049  0.55281  Biso   1.000  C
  C35      1.0000 0.05962  0.77991  0.60558  Biso   1.000  C
  C36      1.0000 0.12902  0.89053  0.55281  Biso   1.000  C
  C37      1.0000 0.05958  0.77991  0.60558  Biso   1.000  C
  C38      1.0000 0.12895  0.89049  0.55281  Biso   1.000  C
  C39      1.0000 0.88668  0.76630  0.77193  Biso   1.000  C
  H26      1.0000 0.80499  0.74271  0.85895  Biso   1.000  H
  C40      1.0000 0.81629  0.66631  0.87160  Biso   1.000  C
  C41      1.0000 0.88672  0.76630  0.77193  Biso   1.000  C
  H27      1.0000 0.80503  0.74271  0.85895  Biso   1.000  H
  C42      1.0000 0.81633  0.66631  0.87160  Biso   1.000  C
  H28      1.0000 0.64249  0.89859  0.71194  Biso   1.000  H
  H29      1.0000 0.63171  0.86951  0.57929  Biso   1.000  H
  H30      1.0000 0.63167  0.86951  0.57929  Biso   1.000  H
  H31      1.0000 0.78341  0.96923  0.31011  Biso   1.000  H
  C43      1.0000 0.87260  0.04701  0.32665  Biso   1.000  C
  C44      1.0000 0.87264  0.04701  0.32665  Biso   1.000  C
  N9       1.0000 0.14720  0.93341  0.45234  Biso   1.000  N
  H32      1.0000 0.11248  0.90459  0.62013  Biso   1.000  H
  C45      1.0000 0.18221  0.88490  0.59763  Biso   1.000  C
  C46      1.0000 0.18217  0.88490  0.59763  Biso   1.000  C
  H33      1.0000 0.11252  0.90459  0.62013  Biso   1.000  H
  H34      1.0000 0.04220  0.79099  0.67471  Biso   1.000  H
  H35      1.0000 0.02761  0.73969  0.57423  Biso   1.000  H
  C47      1.0000 0.11431  0.77519  0.64760  Biso   1.000  C
  H36      1.0000 0.02757  0.73969  0.57423  Biso   1.000  H
  H37      1.0000 0.04216  0.79099  0.67471  Biso   1.000  H
  C48      1.0000 0.11427  0.77519  0.64760  Biso   1.000  C
  H38      1.0000 0.92409  0.76369  0.79091  Biso   1.000  H
  N10      1.0000 0.90283  0.83089  0.76706  Biso   1.000  N
  C49      1.0000 0.86229  0.73800  0.64986  Biso   1.000  C
  C50      1.0000 0.86233  0.73800  0.64986  Biso   1.000  C
  H39      1.0000 0.78323  0.64643  0.93223  Biso   1.000  H
  H40      1.0000 0.84991  0.65879  0.89491  Biso   1.000  H
  C51      1.0000 0.79189  0.63869  0.74636  Biso   1.000  C
  H41      1.0000 0.78319  0.64643  0.93223  Biso   1.000  H
  C52      1.0000 0.79191  0.63873  0.74636  Biso   1.000  C
  C53      1.0000 0.87659  0.07101  0.21352  Biso   1.000  C
  C54      1.0000 0.92179  0.07550  0.40481  Biso   1.000  C
  C55      1.0000 0.87663  0.07101  0.21352  Biso   1.000  C
  C56      1.0000 0.92183  0.07550  0.40481  Biso   1.000  C
  C57      1.0000 0.13820  0.97761  0.46354  Biso   1.000  C
  C58      1.0000 0.16382  0.83621  0.69531  Biso   1.000  C
  H42      1.0000 0.21391  0.92489  0.63025  Biso   1.000  H
  H43      1.0000 0.20050  0.87450  0.52878  Biso   1.000  H
  H44      1.0000 0.21389  0.92493  0.63025  Biso   1.000  H
  C59      1.0000 0.16378  0.83621  0.69531  Biso   1.000  C
  H45      1.0000 0.21387  0.92489  0.63025  Biso   1.000  H
  H46      1.0000 0.21393  0.92493  0.63025  Biso   1.000  H
  H47      1.0000 0.10140  0.74390  0.71194  Biso   1.000  H
  H48      1.0000 0.13052  0.76223  0.57929  Biso   1.000  H
  H49      1.0000 0.10136  0.74390  0.71194  Biso   1.000  H
  H50      1.0000 0.13048  0.76223  0.57929  Biso   1.000  H
  C60      1.0000 0.95890  0.87203  0.77591  Biso   1.000  C
  C61      1.0000 0.95894  0.87203  0.77591  Biso   1.000  C
  H51      1.0000 0.89503  0.75792  0.58842  Biso   1.000  H
  H52      1.0000 0.82821  0.74473  0.62682  Biso   1.000  H
  C62      1.0000 0.83989  0.66979  0.65338  Biso   1.000  C
  H53      1.0000 0.89499  0.75792  0.58842  Biso   1.000  H
  H54      1.0000 0.77848  0.59448  0.74736  Biso   1.000  H
  H55      1.0000 0.75609  0.64308  0.72621  Biso   1.000  H
  H56      1.0000 0.77850  0.59453  0.74736  Biso   1.000  H
  H57      1.0000 0.75611  0.64313  0.72621  Biso   1.000  H
  H58      1.0000 0.77852  0.59448  0.74736  Biso   1.000  H
  H59      1.0000 0.75613  0.64308  0.72621  Biso   1.000  H
  H60      1.0000 0.77854  0.59453  0.74736  Biso   1.000  H
  H61      1.0000 0.84333  0.05122  0.15885  Biso   1.000  H
  C63      1.0000 0.92932  0.12442  0.17855  Biso   1.000  C
  C64      1.0000 0.92936  0.12442  0.17855  Biso   1.000  C
  C65      1.0000 0.97408  0.12969  0.37580  Biso   1.000  C
  H62      1.0000 0.91960  0.05732  0.48116  Biso   1.000  H
  C66      1.0000 0.97414  0.12974  0.37580  Biso   1.000  C
  H63      1.0000 0.91964  0.05732  0.48116  Biso   1.000  H
  C67      1.0000 0.97412  0.12969  0.37580  Biso   1.000  C
  H64      1.0000 0.11839  0.97949  0.53510  Biso   1.000  H
  H65      1.0000 0.11842  0.97953  0.53510  Biso   1.000  H
  H66      1.0000 0.11835  0.97949  0.53510  Biso   1.000  H
  C68      1.0000 0.15560  0.02589  0.37580  Biso   1.000  C
  C69      1.0000 0.15562  0.02594  0.37580  Biso   1.000  C
  H67      1.0000 0.19990  0.83300  0.71980  Biso   1.000  H
  H68      1.0000 0.14859  0.84789  0.76724  Biso   1.000  H
  H69      1.0000 0.14862  0.84793  0.76724  Biso   1.000  H
  H70      1.0000 0.19986  0.83300  0.71980  Biso   1.000  H
  H71      1.0000 0.14855  0.84789  0.76724  Biso   1.000  H
  C70      1.0000 0.98000  0.93762  0.77483  Biso   1.000  C
  H72      1.0000 0.98851  0.85943  0.78359  Biso   1.000  H
  C71      1.0000 0.98004  0.93762  0.77483  Biso   1.000  C
  H73      1.0000 0.98855  0.85943  0.78359  Biso   1.000  H
  H74      1.0000 0.82310  0.65160  0.57333  Biso   1.000  H
  H75      1.0000 0.87468  0.66328  0.67109  Biso   1.000  H
  H76      1.0000 0.87471  0.66333  0.67109  Biso   1.000  H
  H77      1.0000 0.87472  0.66328  0.67109  Biso   1.000  H
  C72      1.0000 0.97720  0.15323  0.25951  Biso   1.000  C
  C73      1.0000 0.93271  0.15223  0.05756  Biso   1.000  C
  C74      1.0000 0.97724  0.15323  0.25951  Biso   1.000  C
  C75      1.0000 0.93275  0.15223  0.05756  Biso   1.000  C
  C76      1.0000 0.02239  0.16061  0.46354  Biso   1.000  C
  C77      1.0000 0.02243  0.16061  0.46354  Biso   1.000  C
  C78      1.0000 0.15371  0.07820  0.40481  Biso   1.000  C
  C79      1.0000 0.17600  0.02282  0.25951  Biso   1.000  C
  C80      1.0000 0.17604  0.02282  0.25951  Biso   1.000  C
  C81      1.0000 0.93832  0.95892  0.77455  Biso   1.000  C
  C82      1.0000 0.93828  0.95892  0.77455  Biso   1.000  C
  C83      1.0000 0.04111  0.97940  0.77455  Biso   1.000  C
  C84      1.0000 0.04107  0.97940  0.77455  Biso   1.000  C
  H78      1.0000 0.01309  0.18970  0.23584  Biso   1.000  H
  H79      1.0000 0.01313  0.18970  0.23584  Biso   1.000  H
  N11      1.0000 0.88862  0.12983  0.98636  Biso   1.000  N
  N12      1.0000 0.88866  0.12983  0.98636  Biso   1.000  N
  H80      1.0000 0.96951  0.18791  0.03434  Biso   1.000  H
  H81      1.0000 0.96955  0.18791  0.03434  Biso   1.000  H
  H82      1.0000 0.02050  0.13890  0.53510  Biso   1.000  H
  N13      1.0000 0.06659  0.21379  0.45234  Biso   1.000  N
  N14      1.0000 0.06661  0.21384  0.45234  Biso   1.000  N
  N15      1.0000 0.06663  0.21379  0.45234  Biso   1.000  N
  C85      1.0000 0.17442  0.12740  0.32665  Biso   1.000  C
  C86      1.0000 0.17438  0.12740  0.32665  Biso   1.000  C
  H83      1.0000 0.13771  0.08040  0.48116  Biso   1.000  H
  H84      1.0000 0.17661  0.98691  0.23584  Biso   1.000  H
  H85      1.0000 0.17657  0.98691  0.23584  Biso   1.000  H
  C87      1.0000 0.19510  0.07069  0.17855  Biso   1.000  C
  C88      1.0000 0.19512  0.07074  0.17855  Biso   1.000  C
  C89      1.0000 0.95761  0.02003  0.77483  Biso   1.000  C
  C90      1.0000 0.95765  0.02003  0.77483  Biso   1.000  C
  H86      1.0000 0.89572  0.93020  0.77437  Biso   1.000  H
  H87      1.0000 0.89568  0.93020  0.77437  Biso   1.000  H
  H88      1.0000 0.06979  0.96552  0.77437  Biso   1.000  H
  H89      1.0000 0.06983  0.96552  0.77437  Biso   1.000  H
  C91      1.0000 0.06243  0.04243  0.77483  Biso   1.000  C
  C92      1.0000 0.06239  0.04243  0.77483  Biso   1.000  C
  C93      1.0000 0.89491  0.16011  0.86952  Biso   1.000  C
  C94      1.0000 0.10950  0.23853  0.55281  Biso   1.000  C
  C95      1.0000 0.10954  0.23853  0.55281  Biso   1.000  C
  C96      1.0000 0.17673  0.18493  0.36704  Biso   1.000  C
  C97      1.0000 0.19440  0.12341  0.21352  Biso   1.000  C
  C98      1.0000 0.19444  0.12341  0.21352  Biso   1.000  C
  C99      1.0000 0.21950  0.06730  0.05756  Biso   1.000  C
  C100     1.0000 0.91308  0.04110  0.77591  Biso   1.000  C
  C101     1.0000 0.91312  0.04110  0.77591  Biso   1.000  C
  C102     1.0000 0.02062  0.06171  0.77455  Biso   1.000  C
  C103     1.0000 0.02058  0.06171  0.77455  Biso   1.000  C
  C104     1.0000 0.12799  0.08691  0.77591  Biso   1.000  C
  C105     1.0000 0.12803  0.08691  0.77591  Biso   1.000  C
  C106     1.0000 0.87960  0.11329  0.77193  Biso   1.000  C
  H90      1.0000 0.93771  0.19501  0.85895  Biso   1.000  H
  C107     1.0000 0.84998  0.18370  0.87160  Biso   1.000  C
  C108     1.0000 0.87966  0.11334  0.77193  Biso   1.000  C
  C109     1.0000 0.85002  0.18370  0.87160  Biso   1.000  C
  C110     1.0000 0.87962  0.11334  0.77193  Biso   1.000  C
  C111     1.0000 0.17160  0.25030  0.50619  Biso   1.000  C
  H91      1.0000 0.09540  0.20793  0.62013  Biso   1.000  H
  C112     1.0000 0.11509  0.29730  0.59763  Biso   1.000  C
  C113     1.0000 0.11511  0.29734  0.59763  Biso   1.000  C
  H92      1.0000 0.09544  0.20793  0.62013  Biso   1.000  H
  C114     1.0000 0.11513  0.29730  0.59763  Biso   1.000  C
  N16      1.0000 0.16692  0.19199  0.47384  Biso   1.000  N
  N17      1.0000 0.16688  0.19199  0.47384  Biso   1.000  N
  H93      1.0000 0.18583  0.21663  0.31011  Biso   1.000  H
  H94      1.0000 0.18579  0.21663  0.31011  Biso   1.000  H
  H95      1.0000 0.20792  0.15672  0.15885  Biso   1.000  H
  N18      1.0000 0.24120  0.11141  0.98636  Biso   1.000  N
  N19      1.0000 0.24124  0.11141  0.98636  Biso   1.000  N
  H96      1.0000 0.21841  0.03052  0.03434  Biso   1.000  H
  N20      1.0000 0.92807  0.09717  0.76706  Biso   1.000  N
  N21      1.0000 0.92811  0.09717  0.76706  Biso   1.000  N
  H97      1.0000 0.87092  0.01151  0.78359  Biso   1.000  H
  H98      1.0000 0.03450  0.10431  0.77437  Biso   1.000  H
  H99      1.0000 0.14059  0.12909  0.78359  Biso   1.000  H
  N22      1.0000 0.16910  0.07193  0.76706  Biso   1.000  N
  H100     1.0000 0.14062  0.12914  0.78359  Biso   1.000  H
  N23      1.0000 0.16914  0.07193  0.76706  Biso   1.000  N
  H101     1.0000 0.83961  0.07591  0.79091  Biso   1.000  H
  C115     1.0000 0.87570  0.13771  0.64986  Biso   1.000  C
  H102     1.0000 0.83965  0.07591  0.79091  Biso   1.000  H
  C116     1.0000 0.87574  0.13771  0.64986  Biso   1.000  C
  H103     1.0000 0.86321  0.21681  0.93223  Biso   1.000  H
  H104     1.0000 0.80891  0.15012  0.89491  Biso   1.000  H
  C117     1.0000 0.84680  0.20811  0.74636  Biso   1.000  C
  H105     1.0000 0.86325  0.21681  0.93223  Biso   1.000  H
  H106     1.0000 0.80895  0.15012  0.89491  Biso   1.000  H
  C118     1.0000 0.84684  0.20811  0.74636  Biso   1.000  C
  H107     1.0000 0.18401  0.27774  0.43390  Biso   1.000  H
  C119     1.0000 0.22011  0.27971  0.60558  Biso   1.000  C
  H108     1.0000 0.18405  0.27774  0.43390  Biso   1.000  H
  C120     1.0000 0.16381  0.32762  0.69531  Biso   1.000  C
  H109     1.0000 0.07512  0.28901  0.63025  Biso   1.000  H
  H110     1.0000 0.12552  0.32602  0.52878  Biso   1.000  H
  H111     1.0000 0.07508  0.28901  0.63025  Biso   1.000  H
  H112     1.0000 0.12548  0.32602  0.52878  Biso   1.000  H
  C121     1.0000 0.26522  0.10509  0.86952  Biso   1.000  C
  C122     1.0000 0.26520  0.10514  0.86952  Biso   1.000  C
  C123     1.0000 0.26524  0.10514  0.86952  Biso   1.000  C
  C124     1.0000 0.23371  0.12039  0.77193  Biso   1.000  C
  C125     1.0000 0.23370  0.12044  0.77193  Biso   1.000  C
  C126     1.0000 0.23373  0.12044  0.77193  Biso   1.000  C
  H113     1.0000 0.86288  0.10500  0.58842  Biso   1.000  H
  H114     1.0000 0.91653  0.17183  0.62682  Biso   1.000  H
  C127     1.0000 0.82989  0.16011  0.65338  Biso   1.000  C
  H115     1.0000 0.86292  0.10500  0.58842  Biso   1.000  H
  C128     1.0000 0.82993  0.16011  0.65338  Biso   1.000  C
  H116     1.0000 0.81602  0.22153  0.74736  Biso   1.000  H
  H117     1.0000 0.88700  0.24393  0.72621  Biso   1.000  H
  H118     1.0000 0.81606  0.22153  0.74736  Biso   1.000  H
  H119     1.0000 0.88704  0.24393  0.72621  Biso   1.000  H
  H120     1.0000 0.20899  0.25122  0.67471  Biso   1.000  H
  H121     1.0000 0.26031  0.28791  0.57423  Biso   1.000  H
  C129     1.0000 0.22482  0.33912  0.64760  Biso   1.000  C
  H122     1.0000 0.20903  0.25122  0.67471  Biso   1.000  H
  H123     1.0000 0.16700  0.36692  0.71980  Biso   1.000  H
  H124     1.0000 0.15211  0.30073  0.76724  Biso   1.000  H
  H125     1.0000 0.16704  0.36692  0.71980  Biso   1.000  H
  H126     1.0000 0.15215  0.30073  0.76724  Biso   1.000  H
  H127     1.0000 0.25731  0.06231  0.85895  Biso   1.000  H
  C130     1.0000 0.33370  0.15003  0.87160  Biso   1.000  C
  C131     1.0000 0.33374  0.15003  0.87160  Biso   1.000  C
  H128     1.0000 0.23631  0.16043  0.79091  Biso   1.000  H
  C132     1.0000 0.26202  0.12433  0.64986  Biso   1.000  C
  H129     1.0000 0.82850  0.17692  0.57333  Biso   1.000  H
  H130     1.0000 0.78861  0.12529  0.67109  Biso   1.000  H
  H131     1.0000 0.82854  0.17692  0.57333  Biso   1.000  H
  H132     1.0000 0.78863  0.12534  0.67109  Biso   1.000  H
  H133     1.0000 0.25612  0.35753  0.71194  Biso   1.000  H
  H134     1.0000 0.23778  0.36830  0.57929  Biso   1.000  H
  H135     1.0000 0.23781  0.36834  0.57929  Biso   1.000  H
  H136     1.0000 0.23782  0.36830  0.57929  Biso   1.000  H
  H137     1.0000 0.23785  0.36834  0.57929  Biso   1.000  H
  H138     1.0000 0.35358  0.13679  0.93223  Biso   1.000  H
  H139     1.0000 0.34119  0.19112  0.89491  Biso   1.000  H
  C133     1.0000 0.36133  0.15323  0.74636  Biso   1.000  C
  H140     1.0000 0.35361  0.13684  0.93223  Biso   1.000  H
  H141     1.0000 0.35362  0.13679  0.93223  Biso   1.000  H
  H142     1.0000 0.34123  0.19112  0.89491  Biso   1.000  H
  H143     1.0000 0.35364  0.13684  0.93223  Biso   1.000  H
  H144     1.0000 0.24211  0.13711  0.58842  Biso   1.000  H
  H145     1.0000 0.25530  0.08352  0.62682  Biso   1.000  H
  C134     1.0000 0.33021  0.17009  0.65338  Biso   1.000  C
  C135     1.0000 0.33023  0.17014  0.65338  Biso   1.000  C
  H146     1.0000 0.25534  0.08352  0.62682  Biso   1.000  H
  H147     1.0000 0.40552  0.18402  0.74736  Biso   1.000  H
  H148     1.0000 0.35693  0.11302  0.72621  Biso   1.000  H
  H149     1.0000 0.35689  0.11302  0.72621  Biso   1.000  H
  H150     1.0000 0.34841  0.17151  0.57333  Biso   1.000  H
  H151     1.0000 0.33670  0.21141  0.67109  Biso   1.000  H
  H152     1.0000 0.33674  0.21141  0.67109  Biso   1.000  H
  C136     1.0000 0.87027  0.84440  0.37580  Biso   1.000  C
  C137     1.0000 0.83939  0.86181  0.46354  Biso   1.000  C
  C138     1.0000 0.83943  0.86181  0.46354  Biso   1.000  C
  C139     1.0000 0.92451  0.84633  0.40481  Biso   1.000  C
  C140     1.0000 0.84679  0.82402  0.25951  Biso   1.000  C
  C141     1.0000 0.84683  0.82402  0.25951  Biso   1.000  C
  N24      1.0000 0.78620  0.85279  0.45234  Biso   1.000  N
  N25      1.0000 0.78622  0.85283  0.45234  Biso   1.000  N
  H153     1.0000 0.86110  0.88160  0.53510  Biso   1.000  H
  C142     1.0000 0.87031  0.84440  0.37580  Biso   1.000  C
  H154     1.0000 0.94270  0.86232  0.48116  Biso   1.000  H
  C143     1.0000 0.95300  0.82562  0.32665  Biso   1.000  C
  C144     1.0000 0.95304  0.82562  0.32665  Biso   1.000  C
  H155     1.0000 0.94274  0.86232  0.48116  Biso   1.000  H
  C145     1.0000 0.87560  0.80492  0.17855  Biso   1.000  C
  H156     1.0000 0.81032  0.82342  0.23584  Biso   1.000  H
  C146     1.0000 0.87564  0.80492  0.17855  Biso   1.000  C
  C147     1.0000 0.76152  0.87102  0.55281  Biso   1.000  C
  C148     1.0000 0.92899  0.80561  0.21352  Biso   1.000  C
  C149     1.0000 0.92902  0.80561  0.21352  Biso   1.000  C
  C150     1.0000 0.00820  0.82329  0.36704  Biso   1.000  C
  C151     1.0000 0.00822  0.82333  0.36704  Biso   1.000  C
  C152     1.0000 0.00816  0.82329  0.36704  Biso   1.000  C
  C153     1.0000 0.84781  0.78050  0.05756  Biso   1.000  C
  C154     1.0000 0.70269  0.81779  0.59763  Biso   1.000  C
  C155     1.0000 0.74969  0.92131  0.50619  Biso   1.000  C
  H157     1.0000 0.79210  0.88751  0.62013  Biso   1.000  H
  C156     1.0000 0.74973  0.92131  0.50619  Biso   1.000  C
  H158     1.0000 0.79214  0.88751  0.62013  Biso   1.000  H
  H159     1.0000 0.94881  0.79209  0.15885  Biso   1.000  H
  N26      1.0000 0.02508  0.83309  0.47384  Biso   1.000  N
  H160     1.0000 0.03080  0.81422  0.31011  Biso   1.000  H
  N27      1.0000 0.02507  0.83314  0.47384  Biso   1.000  N
  N28      1.0000 0.02504  0.83309  0.47384  Biso   1.000  N
  N29      1.0000 0.02510  0.83314  0.47384  Biso   1.000  N
  H161     1.0000 0.81210  0.78160  0.03434  Biso   1.000  H
  N30      1.0000 0.87019  0.75879  0.98636  Biso   1.000  N
  C157     1.0000 0.67239  0.83621  0.69531  Biso   1.000  C
  H162     1.0000 0.71100  0.78609  0.63025  Biso   1.000  H
  H163     1.0000 0.67400  0.79951  0.52878  Biso   1.000  H
  C158     1.0000 0.67243  0.83621  0.69531  Biso   1.000  C
  H164     1.0000 0.67403  0.79951  0.52878  Biso   1.000  H
  N31      1.0000 0.80805  0.97495  0.47384  Biso   1.000  N
  C159     1.0000 0.72029  0.94042  0.60558  Biso   1.000  C
  H165     1.0000 0.72231  0.90629  0.43390  Biso   1.000  H
  C160     1.0000 0.72033  0.94042  0.60558  Biso   1.000  C
  H166     1.0000 0.72229  0.90634  0.43390  Biso   1.000  H
  H167     1.0000 0.72233  0.90634  0.43390  Biso   1.000  H
  C161     1.0000 0.07872  0.82842  0.50619  Biso   1.000  C
  C162     1.0000 0.07868  0.82842  0.50619  Biso   1.000  C
  C163     1.0000 0.83990  0.73479  0.86952  Biso   1.000  C
  C164     1.0000 0.83993  0.73483  0.86952  Biso   1.000  C
  C165     1.0000 0.66089  0.88572  0.64760  Biso   1.000  C
  H168     1.0000 0.69931  0.85141  0.76724  Biso   1.000  H
  H169     1.0000 0.63312  0.80011  0.71980  Biso   1.000  H
  C166     1.0000 0.66093  0.88572  0.64760  Biso   1.000  C
  H170     1.0000 0.63308  0.80011  0.71980  Biso   1.000  H
  C167     1.0000 0.81509  0.99181  0.36704  Biso   1.000  C
  C168     1.0000 0.81513  0.99181  0.36704  Biso   1.000  C
  H171     1.0000 0.74883  0.95782  0.67471  Biso   1.000  H
  H172     1.0000 0.71208  0.97239  0.57423  Biso   1.000  H
  H173     1.0000 0.74879  0.95782  0.67471  Biso   1.000  H
  H174     1.0000 0.71210  0.97243  0.57423  Biso   1.000  H
  H175     1.0000 0.71211  0.97239  0.57423  Biso   1.000  H
  H176     1.0000 0.71214  0.97243  0.57423  Biso   1.000  H
  H177     1.0000 0.09370  0.81600  0.43390  Biso   1.000  H
  C169     1.0000 0.12899  0.89049  0.55281  Biso   1.000  C
  C170     1.0000 0.05962  0.77991  0.60558  Biso   1.000  C
  C171     1.0000 0.12902  0.89053  0.55281  Biso   1.000  C
  C172     1.0000 0.05958  0.77991  0.60558  Biso   1.000  C
  C173     1.0000 0.12895  0.89049  0.55281  Biso   1.000  C
  C174     1.0000 0.88668  0.76630  0.77193  Biso   1.000  C
  H178     1.0000 0.80499  0.74271  0.85895  Biso   1.000  H
  C175     1.0000 0.81629  0.66631  0.87160  Biso   1.000  C
  C176     1.0000 0.88672  0.76630  0.77193  Biso   1.000  C
  H179     1.0000 0.80503  0.74271  0.85895  Biso   1.000  H
  C177     1.0000 0.81633  0.66631  0.87160  Biso   1.000  C
  H180     1.0000 0.64249  0.89859  0.71194  Biso   1.000  H
  H181     1.0000 0.63171  0.86951  0.57929  Biso   1.000  H
  H182     1.0000 0.63167  0.86951  0.57929  Biso   1.000  H
  H183     1.0000 0.78341  0.96923  0.31011  Biso   1.000  H
  C178     1.0000 0.87260  0.04701  0.32665  Biso   1.000  C
  C179     1.0000 0.87264  0.04701  0.32665  Biso   1.000  C
  N32      1.0000 0.14720  0.93341  0.45234  Biso   1.000  N
  H184     1.0000 0.11248  0.90459  0.62013  Biso   1.000  H
  C180     1.0000 0.18221  0.88490  0.59763  Biso   1.000  C
  C181     1.0000 0.18217  0.88490  0.59763  Biso   1.000  C
  H185     1.0000 0.11252  0.90459  0.62013  Biso   1.000  H
  H186     1.0000 0.04220  0.79099  0.67471  Biso   1.000  H
  H187     1.0000 0.02761  0.73969  0.57423  Biso   1.000  H
  C182     1.0000 0.11431  0.77519  0.64760  Biso   1.000  C
  H188     1.0000 0.02757  0.73969  0.57423  Biso   1.000  H
  H189     1.0000 0.04216  0.79099  0.67471  Biso   1.000  H
  C183     1.0000 0.11427  0.77519  0.64760  Biso   1.000  C
  H190     1.0000 0.92409  0.76369  0.79091  Biso   1.000  H
  N33      1.0000 0.90283  0.83089  0.76706  Biso   1.000  N
  C184     1.0000 0.86229  0.73800  0.64986  Biso   1.000  C
  C185     1.0000 0.86233  0.73800  0.64986  Biso   1.000  C
  H191     1.0000 0.78323  0.64643  0.93223  Biso   1.000  H
  H192     1.0000 0.84991  0.65879  0.89491  Biso   1.000  H
  C186     1.0000 0.79189  0.63869  0.74636  Biso   1.000  C
  H193     1.0000 0.78319  0.64643  0.93223  Biso   1.000  H
  C187     1.0000 0.79191  0.63873  0.74636  Biso   1.000  C
  C188     1.0000 0.87659  0.07101  0.21352  Biso   1.000  C
  C189     1.0000 0.92179  0.07550  0.40481  Biso   1.000  C
  C190     1.0000 0.87663  0.07101  0.21352  Biso   1.000  C
  C191     1.0000 0.92183  0.07550  0.40481  Biso   1.000  C
  C192     1.0000 0.13820  0.97761  0.46354  Biso   1.000  C
  C193     1.0000 0.16382  0.83621  0.69531  Biso   1.000  C
  H194     1.0000 0.21391  0.92489  0.63025  Biso   1.000  H
  H195     1.0000 0.20050  0.87450  0.52878  Biso   1.000  H
  H196     1.0000 0.21389  0.92493  0.63025  Biso   1.000  H
  C194     1.0000 0.16378  0.83621  0.69531  Biso   1.000  C
  H197     1.0000 0.21387  0.92489  0.63025  Biso   1.000  H
  H198     1.0000 0.21393  0.92493  0.63025  Biso   1.000  H
  H199     1.0000 0.10140  0.74390  0.71194  Biso   1.000  H
  H200     1.0000 0.13052  0.76223  0.57929  Biso   1.000  H
  H201     1.0000 0.10136  0.74390  0.71194  Biso   1.000  H
  H202     1.0000 0.13048  0.76223  0.57929  Biso   1.000  H
  C195     1.0000 0.95890  0.87203  0.77591  Biso   1.000  C
  C196     1.0000 0.95894  0.87203  0.77591  Biso   1.000  C
  H203     1.0000 0.89503  0.75792  0.58842  Biso   1.000  H
  H204     1.0000 0.82821  0.74473  0.62682  Biso   1.000  H
  C197     1.0000 0.83989  0.66979  0.65338  Biso   1.000  C
  H205     1.0000 0.89499  0.75792  0.58842  Biso   1.000  H
  H206     1.0000 0.77848  0.59448  0.74736  Biso   1.000  H
  H207     1.0000 0.75609  0.64308  0.72621  Biso   1.000  H
  H208     1.0000 0.77850  0.59453  0.74736  Biso   1.000  H
  H209     1.0000 0.75611  0.64313  0.72621  Biso   1.000  H
  H210     1.0000 0.77852  0.59448  0.74736  Biso   1.000  H
  H211     1.0000 0.75613  0.64308  0.72621  Biso   1.000  H
  H212     1.0000 0.77854  0.59453  0.74736  Biso   1.000  H
  H213     1.0000 0.84333  0.05122  0.15885  Biso   1.000  H
  C198     1.0000 0.92932  0.12442  0.17855  Biso   1.000  C
  C199     1.0000 0.92936  0.12442  0.17855  Biso   1.000  C
  C200     1.0000 0.97408  0.12969  0.37580  Biso   1.000  C
  H214     1.0000 0.91960  0.05732  0.48116  Biso   1.000  H
  C201     1.0000 0.97414  0.12974  0.37580  Biso   1.000  C
  H215     1.0000 0.91964  0.05732  0.48116  Biso   1.000  H
  C202     1.0000 0.97412  0.12969  0.37580  Biso   1.000  C
  H216     1.0000 0.11839  0.97949  0.53510  Biso   1.000  H
  H217     1.0000 0.11842  0.97953  0.53510  Biso   1.000  H
  H218     1.0000 0.11835  0.97949  0.53510  Biso   1.000  H
  C203     1.0000 0.15560  0.02589  0.37580  Biso   1.000  C
  C204     1.0000 0.15562  0.02594  0.37580  Biso   1.000  C
  H219     1.0000 0.19990  0.83300  0.71980  Biso   1.000  H
  H220     1.0000 0.14859  0.84789  0.76724  Biso   1.000  H
  H221     1.0000 0.14862  0.84793  0.76724  Biso   1.000  H
  H222     1.0000 0.19986  0.83300  0.71980  Biso   1.000  H
  H223     1.0000 0.14855  0.84789  0.76724  Biso   1.000  H
  C205     1.0000 0.98000  0.93762  0.77483  Biso   1.000  C
  H224     1.0000 0.98851  0.85943  0.78359  Biso   1.000  H
  C206     1.0000 0.98004  0.93762  0.77483  Biso   1.000  C
  H225     1.0000 0.98855  0.85943  0.78359  Biso   1.000  H
  H226     1.0000 0.82310  0.65160  0.57333  Biso   1.000  H
  H227     1.0000 0.87468  0.66328  0.67109  Biso   1.000  H
  H228     1.0000 0.87471  0.66333  0.67109  Biso   1.000  H
  H229     1.0000 0.87472  0.66328  0.67109  Biso   1.000  H
  C207     1.0000 0.97720  0.15323  0.25951  Biso   1.000  C
  C208     1.0000 0.93271  0.15223  0.05756  Biso   1.000  C
  C209     1.0000 0.97724  0.15323  0.25951  Biso   1.000  C
  C210     1.0000 0.93275  0.15223  0.05756  Biso   1.000  C
  C211     1.0000 0.02239  0.16061  0.46354  Biso   1.000  C
  C212     1.0000 0.02243  0.16061  0.46354  Biso   1.000  C
  C213     1.0000 0.15371  0.07820  0.40481  Biso   1.000  C
  C214     1.0000 0.17600  0.02282  0.25951  Biso   1.000  C
  C215     1.0000 0.17604  0.02282  0.25951  Biso   1.000  C
  C216     1.0000 0.93832  0.95892  0.77455  Biso   1.000  C
  C217     1.0000 0.93828  0.95892  0.77455  Biso   1.000  C
  C218     1.0000 0.04111  0.97940  0.77455  Biso   1.000  C
  C219     1.0000 0.04107  0.97940  0.77455  Biso   1.000  C
  H230     1.0000 0.01309  0.18970  0.23584  Biso   1.000  H
  H231     1.0000 0.01313  0.18970  0.23584  Biso   1.000  H
  N34      1.0000 0.88862  0.12983  0.98636  Biso   1.000  N
  N35      1.0000 0.88866  0.12983  0.98636  Biso   1.000  N
  H232     1.0000 0.96951  0.18791  0.03434  Biso   1.000  H
  H233     1.0000 0.96955  0.18791  0.03434  Biso   1.000  H
  H234     1.0000 0.02050  0.13890  0.53510  Biso   1.000  H
  N36      1.0000 0.06659  0.21379  0.45234  Biso   1.000  N
  N37      1.0000 0.06661  0.21384  0.45234  Biso   1.000  N
  N38      1.0000 0.06663  0.21379  0.45234  Biso   1.000  N
  C220     1.0000 0.17442  0.12740  0.32665  Biso   1.000  C
  C221     1.0000 0.17438  0.12740  0.32665  Biso   1.000  C
  H235     1.0000 0.13771  0.08040  0.48116  Biso   1.000  H
  H236     1.0000 0.17661  0.98691  0.23584  Biso   1.000  H
  H237     1.0000 0.17657  0.98691  0.23584  Biso   1.000  H
  C222     1.0000 0.19510  0.07069  0.17855  Biso   1.000  C
  C223     1.0000 0.19512  0.07074  0.17855  Biso   1.000  C
  C224     1.0000 0.95761  0.02003  0.77483  Biso   1.000  C
  C225     1.0000 0.95765  0.02003  0.77483  Biso   1.000  C
  H238     1.0000 0.89572  0.93020  0.77437  Biso   1.000  H
  H239     1.0000 0.89568  0.93020  0.77437  Biso   1.000  H
  H240     1.0000 0.06979  0.96552  0.77437  Biso   1.000  H
  H241     1.0000 0.06983  0.96552  0.77437  Biso   1.000  H
  C226     1.0000 0.06243  0.04243  0.77483  Biso   1.000  C
  C227     1.0000 0.06239  0.04243  0.77483  Biso   1.000  C
  C228     1.0000 0.89491  0.16011  0.86952  Biso   1.000  C
  C229     1.0000 0.10950  0.23853  0.55281  Biso   1.000  C
  C230     1.0000 0.10954  0.23853  0.55281  Biso   1.000  C
  C231     1.0000 0.17673  0.18493  0.36704  Biso   1.000  C
  C232     1.0000 0.19440  0.12341  0.21352  Biso   1.000  C
  C233     1.0000 0.19444  0.12341  0.21352  Biso   1.000  C
  C234     1.0000 0.21950  0.06730  0.05756  Biso   1.000  C
  C235     1.0000 0.91308  0.04110  0.77591  Biso   1.000  C
  C236     1.0000 0.91312  0.04110  0.77591  Biso   1.000  C
  C237     1.0000 0.02062  0.06171  0.77455  Biso   1.000  C
  C238     1.0000 0.02058  0.06171  0.77455  Biso   1.000  C
  C239     1.0000 0.12799  0.08691  0.77591  Biso   1.000  C
  C240     1.0000 0.12803  0.08691  0.77591  Biso   1.000  C
  C241     1.0000 0.87960  0.11329  0.77193  Biso   1.000  C
  H242     1.0000 0.93771  0.19501  0.85895  Biso   1.000  H
  C242     1.0000 0.84998  0.18370  0.87160  Biso   1.000  C
  C243     1.0000 0.87966  0.11334  0.77193  Biso   1.000  C
  C244     1.0000 0.85002  0.18370  0.87160  Biso   1.000  C
  C245     1.0000 0.87962  0.11334  0.77193  Biso   1.000  C
  C246     1.0000 0.17160  0.25030  0.50619  Biso   1.000  C
  H243     1.0000 0.09540  0.20793  0.62013  Biso   1.000  H
  C247     1.0000 0.11509  0.29730  0.59763  Biso   1.000  C
  C248     1.0000 0.11511  0.29734  0.59763  Biso   1.000  C
  H244     1.0000 0.09544  0.20793  0.62013  Biso   1.000  H
  C249     1.0000 0.11513  0.29730  0.59763  Biso   1.000  C
  N39      1.0000 0.16692  0.19199  0.47384  Biso   1.000  N
  N40      1.0000 0.16688  0.19199  0.47384  Biso   1.000  N
  H245     1.0000 0.18583  0.21663  0.31011  Biso   1.000  H
  H246     1.0000 0.18579  0.21663  0.31011  Biso   1.000  H
  H247     1.0000 0.20792  0.15672  0.15885  Biso   1.000  H
  N41      1.0000 0.24120  0.11141  0.98636  Biso   1.000  N
  N42      1.0000 0.24124  0.11141  0.98636  Biso   1.000  N
  H248     1.0000 0.21841  0.03052  0.03434  Biso   1.000  H
  N43      1.0000 0.92807  0.09717  0.76706  Biso   1.000  N
  N44      1.0000 0.92811  0.09717  0.76706  Biso   1.000  N
  H249     1.0000 0.87092  0.01151  0.78359  Biso   1.000  H
  H250     1.0000 0.03450  0.10431  0.77437  Biso   1.000  H
  H251     1.0000 0.14059  0.12909  0.78359  Biso   1.000  H
  N45      1.0000 0.16910  0.07193  0.76706  Biso   1.000  N
  H252     1.0000 0.14062  0.12914  0.78359  Biso   1.000  H
  N46      1.0000 0.16914  0.07193  0.76706  Biso   1.000  N
  H253     1.0000 0.83961  0.07591  0.79091  Biso   1.000  H
  C250     1.0000 0.87570  0.13771  0.64986  Biso   1.000  C
  H254     1.0000 0.83965  0.07591  0.79091  Biso   1.000  H
  C251     1.0000 0.87574  0.13771  0.64986  Biso   1.000  C
  H255     1.0000 0.86321  0.21681  0.93223  Biso   1.000  H
  H256     1.0000 0.80891  0.15012  0.89491  Biso   1.000  H
  C252     1.0000 0.84680  0.20811  0.74636  Biso   1.000  C
  H257     1.0000 0.86325  0.21681  0.93223  Biso   1.000  H
  H258     1.0000 0.80895  0.15012  0.89491  Biso   1.000  H
  C253     1.0000 0.84684  0.20811  0.74636  Biso   1.000  C
  H259     1.0000 0.18401  0.27774  0.43390  Biso   1.000  H
  C254     1.0000 0.22011  0.27971  0.60558  Biso   1.000  C
  H260     1.0000 0.18405  0.27774  0.43390  Biso   1.000  H
  C255     1.0000 0.16381  0.32762  0.69531  Biso   1.000  C
  H261     1.0000 0.07512  0.28901  0.63025  Biso   1.000  H
  H262     1.0000 0.12552  0.32602  0.52878  Biso   1.000  H
  H263     1.0000 0.07508  0.28901  0.63025  Biso   1.000  H
  H264     1.0000 0.12548  0.32602  0.52878  Biso   1.000  H
  C256     1.0000 0.26522  0.10509  0.86952  Biso   1.000  C
  C257     1.0000 0.26520  0.10514  0.86952  Biso   1.000  C
  C258     1.0000 0.26524  0.10514  0.86952  Biso   1.000  C
  C259     1.0000 0.23371  0.12039  0.77193  Biso   1.000  C
  C260     1.0000 0.23370  0.12044  0.77193  Biso   1.000  C
  C261     1.0000 0.23373  0.12044  0.77193  Biso   1.000  C
  H265     1.0000 0.86288  0.10500  0.58842  Biso   1.000  H
  H266     1.0000 0.91653  0.17183  0.62682  Biso   1.000  H
  C262     1.0000 0.82989  0.16011  0.65338  Biso   1.000  C
  H267     1.0000 0.86292  0.10500  0.58842  Biso   1.000  H
  C263     1.0000 0.82993  0.16011  0.65338  Biso   1.000  C
  H268     1.0000 0.81602  0.22153  0.74736  Biso   1.000  H
  H269     1.0000 0.88700  0.24393  0.72621  Biso   1.000  H
  H270     1.0000 0.81606  0.22153  0.74736  Biso   1.000  H
  H271     1.0000 0.88704  0.24393  0.72621  Biso   1.000  H
  H272     1.0000 0.20899  0.25122  0.67471  Biso   1.000  H
  H273     1.0000 0.26031  0.28791  0.57423  Biso   1.000  H
  C264     1.0000 0.22482  0.33912  0.64760  Biso   1.000  C
  H274     1.0000 0.20903  0.25122  0.67471  Biso   1.000  H
  H275     1.0000 0.16700  0.36692  0.71980  Biso   1.000  H
  H276     1.0000 0.15211  0.30073  0.76724  Biso   1.000  H
  H277     1.0000 0.16704  0.36692  0.71980  Biso   1.000  H
  H278     1.0000 0.15215  0.30073  0.76724  Biso   1.000  H
  H279     1.0000 0.25731  0.06231  0.85895  Biso   1.000  H
  C265     1.0000 0.33370  0.15003  0.87160  Biso   1.000  C
  C266     1.0000 0.33374  0.15003  0.87160  Biso   1.000  C
  H280     1.0000 0.23631  0.16043  0.79091  Biso   1.000  H
  C267     1.0000 0.26202  0.12433  0.64986  Biso   1.000  C
  H281     1.0000 0.82850  0.17692  0.57333  Biso   1.000  H
  H282     1.0000 0.78861  0.12529  0.67109  Biso   1.000  H
  H283     1.0000 0.82854  0.17692  0.57333  Biso   1.000  H
  H284     1.0000 0.78863  0.12534  0.67109  Biso   1.000  H
  H285     1.0000 0.25612  0.35753  0.71194  Biso   1.000  H
  H286     1.0000 0.23778  0.36830  0.57929  Biso   1.000  H
  H287     1.0000 0.23781  0.36834  0.57929  Biso   1.000  H
  H288     1.0000 0.23782  0.36830  0.57929  Biso   1.000  H
  H289     1.0000 0.23785  0.36834  0.57929  Biso   1.000  H
  H290     1.0000 0.35358  0.13679  0.93223  Biso   1.000  H
  H291     1.0000 0.34119  0.19112  0.89491  Biso   1.000  H
  C268     1.0000 0.36133  0.15323  0.74636  Biso   1.000  C
  H292     1.0000 0.35361  0.13684  0.93223  Biso   1.000  H
  H293     1.0000 0.35362  0.13679  0.93223  Biso   1.000  H
  H294     1.0000 0.34123  0.19112  0.89491  Biso   1.000  H
  H295     1.0000 0.35364  0.13684  0.93223  Biso   1.000  H
  H296     1.0000 0.24211  0.13711  0.58842  Biso   1.000  H
  H297     1.0000 0.25530  0.08352  0.62682  Biso   1.000  H
  C269     1.0000 0.33021  0.17009  0.65338  Biso   1.000  C
  C270     1.0000 0.33023  0.17014  0.65338  Biso   1.000  C
  H298     1.0000 0.25534  0.08352  0.62682  Biso   1.000  H
  H299     1.0000 0.40552  0.18402  0.74736  Biso   1.000  H
  H300     1.0000 0.35693  0.11302  0.72621  Biso   1.000  H
  H301     1.0000 0.35689  0.11302  0.72621  Biso   1.000  H
  H302     1.0000 0.34841  0.17151  0.57333  Biso   1.000  H
  H303     1.0000 0.33670  0.21141  0.67109  Biso   1.000  H
  H304     1.0000 0.33674  0.21141  0.67109  Biso   1.000  H
  C271     1.0000 0.87027  0.84440  0.37580  Biso   1.000  C
  C272     1.0000 0.83939  0.86181  0.46354  Biso   1.000  C
  C273     1.0000 0.83943  0.86181  0.46354  Biso   1.000  C
  C274     1.0000 0.92451  0.84633  0.40481  Biso   1.000  C
  C275     1.0000 0.84679  0.82402  0.25951  Biso   1.000  C
  C276     1.0000 0.84683  0.82402  0.25951  Biso   1.000  C
  N47      1.0000 0.78620  0.85279  0.45234  Biso   1.000  N
  N48      1.0000 0.78622  0.85283  0.45234  Biso   1.000  N
  H305     1.0000 0.86110  0.88160  0.53510  Biso   1.000  H
  C277     1.0000 0.87031  0.84440  0.37580  Biso   1.000  C
  H306     1.0000 0.94270  0.86232  0.48116  Biso   1.000  H
  C278     1.0000 0.95300  0.82562  0.32665  Biso   1.000  C
  H307     1.0000 0.94274  0.86232  0.48116  Biso   1.000  H
  C279     1.0000 0.95304  0.82562  0.32665  Biso   1.000  C
  H308     1.0000 0.81032  0.82342  0.23584  Biso   1.000  H
  C280     1.0000 0.87560  0.80492  0.17855  Biso   1.000  C
  C281     1.0000 0.87564  0.80492  0.17855  Biso   1.000  C
  C282     1.0000 0.76152  0.87102  0.55281  Biso   1.000  C
  C283     1.0000 0.92899  0.80561  0.21352  Biso   1.000  C
  C284     1.0000 0.92902  0.80561  0.21352  Biso   1.000  C
  C285     1.0000 0.00820  0.82329  0.36704  Biso   1.000  C
  C286     1.0000 0.00822  0.82333  0.36704  Biso   1.000  C
  C287     1.0000 0.00816  0.82329  0.36704  Biso   1.000  C
  C288     1.0000 0.84781  0.78050  0.05756  Biso   1.000  C
  C289     1.0000 0.70269  0.81779  0.59763  Biso   1.000  C
  C290     1.0000 0.74969  0.92131  0.50619  Biso   1.000  C
  H309     1.0000 0.79210  0.88751  0.62013  Biso   1.000  H
  C291     1.0000 0.74973  0.92131  0.50619  Biso   1.000  C
  H310     1.0000 0.79214  0.88751  0.62013  Biso   1.000  H
  H311     1.0000 0.94881  0.79209  0.15885  Biso   1.000  H
  N49      1.0000 0.02508  0.83309  0.47384  Biso   1.000  N
  H312     1.0000 0.03080  0.81422  0.31011  Biso   1.000  H
  N50      1.0000 0.02507  0.83314  0.47384  Biso   1.000  N
  N51      1.0000 0.02504  0.83309  0.47384  Biso   1.000  N
  N52      1.0000 0.02510  0.83314  0.47384  Biso   1.000  N
  H313     1.0000 0.81210  0.78160  0.03434  Biso   1.000  H
  N53      1.0000 0.87019  0.75879  0.98636  Biso   1.000  N
  H314     1.0000 0.71100  0.78609  0.63025  Biso   1.000  H
  C292     1.0000 0.67239  0.83621  0.69531  Biso   1.000  C
  H315     1.0000 0.67400  0.79951  0.52878  Biso   1.000  H
  C293     1.0000 0.67243  0.83621  0.69531  Biso   1.000  C
  H316     1.0000 0.67403  0.79951  0.52878  Biso   1.000  H
  N54      1.0000 0.80805  0.97495  0.47384  Biso   1.000  N
  H317     1.0000 0.72231  0.90629  0.43390  Biso   1.000  H
  C294     1.0000 0.72029  0.94042  0.60558  Biso   1.000  C
  H318     1.0000 0.72229  0.90634  0.43390  Biso   1.000  H
  C295     1.0000 0.72033  0.94042  0.60558  Biso   1.000  C
  H319     1.0000 0.72233  0.90634  0.43390  Biso   1.000  H
  C296     1.0000 0.07872  0.82842  0.50619  Biso   1.000  C
  C297     1.0000 0.07868  0.82842  0.50619  Biso   1.000  C
  C298     1.0000 0.83990  0.73479  0.86952  Biso   1.000  C
  C299     1.0000 0.83993  0.73483  0.86952  Biso   1.000  C
  H320     1.0000 0.69931  0.85141  0.76724  Biso   1.000  H
  H321     1.0000 0.63312  0.80011  0.71980  Biso   1.000  H
  C300     1.0000 0.66089  0.88572  0.64760  Biso   1.000  C
  H322     1.0000 0.63308  0.80011  0.71980  Biso   1.000  H
  C301     1.0000 0.66093  0.88572  0.64760  Biso   1.000  C
  C302     1.0000 0.81509  0.99181  0.36704  Biso   1.000  C
  C303     1.0000 0.81513  0.99181  0.36704  Biso   1.000  C
  H323     1.0000 0.74883  0.95782  0.67471  Biso   1.000  H
  H324     1.0000 0.71208  0.97239  0.57423  Biso   1.000  H
  H325     1.0000 0.74879  0.95782  0.67471  Biso   1.000  H
  H326     1.0000 0.71210  0.97243  0.57423  Biso   1.000  H
  H327     1.0000 0.71211  0.97239  0.57423  Biso   1.000  H
  H328     1.0000 0.71214  0.97243  0.57423  Biso   1.000  H
  H329     1.0000 0.09370  0.81600  0.43390  Biso   1.000  H
  C304     1.0000 0.12899  0.89049  0.55281  Biso   1.000  C
  C305     1.0000 0.05962  0.77991  0.60558  Biso   1.000  C
  C306     1.0000 0.12902  0.89053  0.55281  Biso   1.000  C
  C307     1.0000 0.05958  0.77991  0.60558  Biso   1.000  C
  C308     1.0000 0.12895  0.89049  0.55281  Biso   1.000  C
  C309     1.0000 0.88668  0.76630  0.77193  Biso   1.000  C
  H330     1.0000 0.80499  0.74271  0.85895  Biso   1.000  H
  C310     1.0000 0.81629  0.66631  0.87160  Biso   1.000  C
  C311     1.0000 0.88672  0.76630  0.77193  Biso   1.000  C
  H331     1.0000 0.80503  0.74271  0.85895  Biso   1.000  H
  C312     1.0000 0.81633  0.66631  0.87160  Biso   1.000  C
  H332     1.0000 0.64249  0.89859  0.71194  Biso   1.000  H
  H333     1.0000 0.63171  0.86951  0.57929  Biso   1.000  H
  H334     1.0000 0.63167  0.86951  0.57929  Biso   1.000  H
  H335     1.0000 0.78341  0.96923  0.31011  Biso   1.000  H
  C313     1.0000 0.87260  0.04701  0.32665  Biso   1.000  C
  C314     1.0000 0.87264  0.04701  0.32665  Biso   1.000  C
  N55      1.0000 0.14720  0.93341  0.45234  Biso   1.000  N
  H336     1.0000 0.11248  0.90459  0.62013  Biso   1.000  H
  C315     1.0000 0.18221  0.88490  0.59763  Biso   1.000  C
  C316     1.0000 0.18217  0.88490  0.59763  Biso   1.000  C
  H337     1.0000 0.11252  0.90459  0.62013  Biso   1.000  H
  H338     1.0000 0.04220  0.79099  0.67471  Biso   1.000  H
  H339     1.0000 0.02761  0.73969  0.57423  Biso   1.000  H
  C317     1.0000 0.11431  0.77519  0.64760  Biso   1.000  C
  H340     1.0000 0.02757  0.73969  0.57423  Biso   1.000  H
  H341     1.0000 0.04216  0.79099  0.67471  Biso   1.000  H
  C318     1.0000 0.11427  0.77519  0.64760  Biso   1.000  C
  H342     1.0000 0.92409  0.76369  0.79091  Biso   1.000  H
  N56      1.0000 0.90283  0.83089  0.76706  Biso   1.000  N
  C319     1.0000 0.86229  0.73800  0.64986  Biso   1.000  C
  C320     1.0000 0.86233  0.73800  0.64986  Biso   1.000  C
  H343     1.0000 0.78323  0.64643  0.93223  Biso   1.000  H
  H344     1.0000 0.84991  0.65879  0.89491  Biso   1.000  H
  C321     1.0000 0.79189  0.63869  0.74636  Biso   1.000  C
  H345     1.0000 0.78319  0.64643  0.93223  Biso   1.000  H
  C322     1.0000 0.79191  0.63873  0.74636  Biso   1.000  C
  C323     1.0000 0.87659  0.07101  0.21352  Biso   1.000  C
  C324     1.0000 0.92179  0.07550  0.40481  Biso   1.000  C
  C325     1.0000 0.87663  0.07101  0.21352  Biso   1.000  C
  C326     1.0000 0.92183  0.07550  0.40481  Biso   1.000  C
  C327     1.0000 0.13820  0.97761  0.46354  Biso   1.000  C
  C328     1.0000 0.16382  0.83621  0.69531  Biso   1.000  C
  H346     1.0000 0.21391  0.92489  0.63025  Biso   1.000  H
  H347     1.0000 0.20050  0.87450  0.52878  Biso   1.000  H
  H348     1.0000 0.21389  0.92493  0.63025  Biso   1.000  H
  C329     1.0000 0.16378  0.83621  0.69531  Biso   1.000  C
  H349     1.0000 0.21387  0.92489  0.63025  Biso   1.000  H
  H350     1.0000 0.21393  0.92493  0.63025  Biso   1.000  H
  H351     1.0000 0.10140  0.74390  0.71194  Biso   1.000  H
  H352     1.0000 0.13052  0.76223  0.57929  Biso   1.000  H
  H353     1.0000 0.10136  0.74390  0.71194  Biso   1.000  H
  H354     1.0000 0.13048  0.76223  0.57929  Biso   1.000  H
  C330     1.0000 0.95890  0.87203  0.77591  Biso   1.000  C
  C331     1.0000 0.95894  0.87203  0.77591  Biso   1.000  C
  H355     1.0000 0.89503  0.75792  0.58842  Biso   1.000  H
  H356     1.0000 0.82821  0.74473  0.62682  Biso   1.000  H
  C332     1.0000 0.83989  0.66979  0.65338  Biso   1.000  C
  H357     1.0000 0.89499  0.75792  0.58842  Biso   1.000  H
  H358     1.0000 0.77848  0.59448  0.74736  Biso   1.000  H
  H359     1.0000 0.75609  0.64308  0.72621  Biso   1.000  H
  H360     1.0000 0.77850  0.59453  0.74736  Biso   1.000  H
  H361     1.0000 0.75611  0.64313  0.72621  Biso   1.000  H
  H362     1.0000 0.77852  0.59448  0.74736  Biso   1.000  H
  H363     1.0000 0.75613  0.64308  0.72621  Biso   1.000  H
  H364     1.0000 0.77854  0.59453  0.74736  Biso   1.000  H
  H365     1.0000 0.84333  0.05122  0.15885  Biso   1.000  H
  C333     1.0000 0.92932  0.12442  0.17855  Biso   1.000  C
  C334     1.0000 0.92936  0.12442  0.17855  Biso   1.000  C
  C335     1.0000 0.97408  0.12969  0.37580  Biso   1.000  C
  H366     1.0000 0.91960  0.05732  0.48116  Biso   1.000  H
  C336     1.0000 0.97414  0.12974  0.37580  Biso   1.000  C
  H367     1.0000 0.91964  0.05732  0.48116  Biso   1.000  H
  C337     1.0000 0.97412  0.12969  0.37580  Biso   1.000  C
  H368     1.0000 0.11839  0.97949  0.53510  Biso   1.000  H
  H369     1.0000 0.11842  0.97953  0.53510  Biso   1.000  H
  H370     1.0000 0.11835  0.97949  0.53510  Biso   1.000  H
  C338     1.0000 0.15560  0.02589  0.37580  Biso   1.000  C
  C339     1.0000 0.15562  0.02594  0.37580  Biso   1.000  C
  H371     1.0000 0.19990  0.83300  0.71980  Biso   1.000  H
  H372     1.0000 0.14859  0.84789  0.76724  Biso   1.000  H
  H373     1.0000 0.14862  0.84793  0.76724  Biso   1.000  H
  H374     1.0000 0.19986  0.83300  0.71980  Biso   1.000  H
  H375     1.0000 0.14855  0.84789  0.76724  Biso   1.000  H
  C340     1.0000 0.98000  0.93762  0.77483  Biso   1.000  C
  H376     1.0000 0.98851  0.85943  0.78359  Biso   1.000  H
  C341     1.0000 0.98004  0.93762  0.77483  Biso   1.000  C
  H377     1.0000 0.98855  0.85943  0.78359  Biso   1.000  H
  H378     1.0000 0.82310  0.65160  0.57333  Biso   1.000  H
  H379     1.0000 0.87468  0.66328  0.67109  Biso   1.000  H
  H380     1.0000 0.87471  0.66333  0.67109  Biso   1.000  H
  H381     1.0000 0.87472  0.66328  0.67109  Biso   1.000  H
  C342     1.0000 0.97720  0.15323  0.25951  Biso   1.000  C
  C343     1.0000 0.93271  0.15223  0.05756  Biso   1.000  C
  C344     1.0000 0.97724  0.15323  0.25951  Biso   1.000  C
  C345     1.0000 0.93275  0.15223  0.05756  Biso   1.000  C
  C346     1.0000 0.02239  0.16061  0.46354  Biso   1.000  C
  C347     1.0000 0.02243  0.16061  0.46354  Biso   1.000  C
  C348     1.0000 0.15371  0.07820  0.40481  Biso   1.000  C
  C349     1.0000 0.17600  0.02282  0.25951  Biso   1.000  C
  C350     1.0000 0.17604  0.02282  0.25951  Biso   1.000  C
  C351     1.0000 0.93832  0.95892  0.77455  Biso   1.000  C
  C352     1.0000 0.93828  0.95892  0.77455  Biso   1.000  C
  C353     1.0000 0.04111  0.97940  0.77455  Biso   1.000  C
  C354     1.0000 0.04107  0.97940  0.77455  Biso   1.000  C
  H382     1.0000 0.01309  0.18970  0.23584  Biso   1.000  H
  H383     1.0000 0.01313  0.18970  0.23584  Biso   1.000  H
  N57      1.0000 0.88862  0.12983  0.98636  Biso   1.000  N
  N58      1.0000 0.88866  0.12983  0.98636  Biso   1.000  N
  H384     1.0000 0.96951  0.18791  0.03434  Biso   1.000  H
  H385     1.0000 0.96955  0.18791  0.03434  Biso   1.000  H
  H386     1.0000 0.02050  0.13890  0.53510  Biso   1.000  H
  N59      1.0000 0.06659  0.21379  0.45234  Biso   1.000  N
  N60      1.0000 0.06661  0.21384  0.45234  Biso   1.000  N
  N61      1.0000 0.06663  0.21379  0.45234  Biso   1.000  N
  C355     1.0000 0.17442  0.12740  0.32665  Biso   1.000  C
  C356     1.0000 0.17438  0.12740  0.32665  Biso   1.000  C
  H387     1.0000 0.13771  0.08040  0.48116  Biso   1.000  H
  H388     1.0000 0.17661  0.98691  0.23584  Biso   1.000  H
  H389     1.0000 0.17657  0.98691  0.23584  Biso   1.000  H
  C357     1.0000 0.19510  0.07069  0.17855  Biso   1.000  C
  C358     1.0000 0.19512  0.07074  0.17855  Biso   1.000  C
  C359     1.0000 0.95761  0.02003  0.77483  Biso   1.000  C
  C360     1.0000 0.95765  0.02003  0.77483  Biso   1.000  C
  H390     1.0000 0.89572  0.93020  0.77437  Biso   1.000  H
  H391     1.0000 0.89568  0.93020  0.77437  Biso   1.000  H
  H392     1.0000 0.06979  0.96552  0.77437  Biso   1.000  H
  H393     1.0000 0.06983  0.96552  0.77437  Biso   1.000  H
  C361     1.0000 0.06243  0.04243  0.77483  Biso   1.000  C
  C362     1.0000 0.06239  0.04243  0.77483  Biso   1.000  C
  C363     1.0000 0.89491  0.16011  0.86952  Biso   1.000  C
  C364     1.0000 0.10950  0.23853  0.55281  Biso   1.000  C
  C365     1.0000 0.10954  0.23853  0.55281  Biso   1.000  C
  C366     1.0000 0.17673  0.18493  0.36704  Biso   1.000  C
  C367     1.0000 0.19440  0.12341  0.21352  Biso   1.000  C
  C368     1.0000 0.19444  0.12341  0.21352  Biso   1.000  C
  C369     1.0000 0.21950  0.06730  0.05756  Biso   1.000  C
  C370     1.0000 0.91308  0.04110  0.77591  Biso   1.000  C
  C371     1.0000 0.91312  0.04110  0.77591  Biso   1.000  C
  C372     1.0000 0.02062  0.06171  0.77455  Biso   1.000  C
  C373     1.0000 0.02058  0.06171  0.77455  Biso   1.000  C
  C374     1.0000 0.12799  0.08691  0.77591  Biso   1.000  C
  C375     1.0000 0.12803  0.08691  0.77591  Biso   1.000  C
  C376     1.0000 0.87960  0.11329  0.77193  Biso   1.000  C
  H394     1.0000 0.93771  0.19501  0.85895  Biso   1.000  H
  C377     1.0000 0.84998  0.18370  0.87160  Biso   1.000  C
  C378     1.0000 0.87966  0.11334  0.77193  Biso   1.000  C
  C379     1.0000 0.85002  0.18370  0.87160  Biso   1.000  C
  C380     1.0000 0.87962  0.11334  0.77193  Biso   1.000  C
  C381     1.0000 0.17160  0.25030  0.50619  Biso   1.000  C
  H395     1.0000 0.09540  0.20793  0.62013  Biso   1.000  H
  C382     1.0000 0.11509  0.29730  0.59763  Biso   1.000  C
  C383     1.0000 0.11511  0.29734  0.59763  Biso   1.000  C
  H396     1.0000 0.09544  0.20793  0.62013  Biso   1.000  H
  C384     1.0000 0.11513  0.29730  0.59763  Biso   1.000  C
  N62      1.0000 0.16692  0.19199  0.47384  Biso   1.000  N
  N63      1.0000 0.16688  0.19199  0.47384  Biso   1.000  N
  H397     1.0000 0.18583  0.21663  0.31011  Biso   1.000  H
  H398     1.0000 0.18579  0.21663  0.31011  Biso   1.000  H
  H399     1.0000 0.20792  0.15672  0.15885  Biso   1.000  H
  N64      1.0000 0.24120  0.11141  0.98636  Biso   1.000  N
  N65      1.0000 0.24124  0.11141  0.98636  Biso   1.000  N
  H400     1.0000 0.21841  0.03052  0.03434  Biso   1.000  H
  N66      1.0000 0.92807  0.09717  0.76706  Biso   1.000  N
  N67      1.0000 0.92811  0.09717  0.76706  Biso   1.000  N
  H401     1.0000 0.87092  0.01151  0.78359  Biso   1.000  H
  H402     1.0000 0.03450  0.10431  0.77437  Biso   1.000  H
  H403     1.0000 0.14059  0.12909  0.78359  Biso   1.000  H
  N68      1.0000 0.16910  0.07193  0.76706  Biso   1.000  N
  H404     1.0000 0.14062  0.12914  0.78359  Biso   1.000  H
  N69      1.0000 0.16914  0.07193  0.76706  Biso   1.000  N
  H405     1.0000 0.83961  0.07591  0.79091  Biso   1.000  H
  C385     1.0000 0.87570  0.13771  0.64986  Biso   1.000  C
  H406     1.0000 0.83965  0.07591  0.79091  Biso   1.000  H
  C386     1.0000 0.87574  0.13771  0.64986  Biso   1.000  C
  H407     1.0000 0.86321  0.21681  0.93223  Biso   1.000  H
  H408     1.0000 0.80891  0.15012  0.89491  Biso   1.000  H
  C387     1.0000 0.84680  0.20811  0.74636  Biso   1.000  C
  H409     1.0000 0.86325  0.21681  0.93223  Biso   1.000  H
  H410     1.0000 0.80895  0.15012  0.89491  Biso   1.000  H
  C388     1.0000 0.84684  0.20811  0.74636  Biso   1.000  C
  H411     1.0000 0.18401  0.27774  0.43390  Biso   1.000  H
  C389     1.0000 0.22011  0.27971  0.60558  Biso   1.000  C
  H412     1.0000 0.18405  0.27774  0.43390  Biso   1.000  H
  C390     1.0000 0.16381  0.32762  0.69531  Biso   1.000  C
  H413     1.0000 0.07512  0.28901  0.63025  Biso   1.000  H
  H414     1.0000 0.12552  0.32602  0.52878  Biso   1.000  H
  H415     1.0000 0.07508  0.28901  0.63025  Biso   1.000  H
  H416     1.0000 0.12548  0.32602  0.52878  Biso   1.000  H
  C391     1.0000 0.26522  0.10509  0.86952  Biso   1.000  C
  C392     1.0000 0.26520  0.10514  0.86952  Biso   1.000  C
  C393     1.0000 0.26524  0.10514  0.86952  Biso   1.000  C
  C394     1.0000 0.23371  0.12039  0.77193  Biso   1.000  C
  C395     1.0000 0.23370  0.12044  0.77193  Biso   1.000  C
  C396     1.0000 0.23373  0.12044  0.77193  Biso   1.000  C
  H417     1.0000 0.86288  0.10500  0.58842  Biso   1.000  H
  H418     1.0000 0.91653  0.17183  0.62682  Biso   1.000  H
  C397     1.0000 0.82989  0.16011  0.65338  Biso   1.000  C
  H419     1.0000 0.86292  0.10500  0.58842  Biso   1.000  H
  C398     1.0000 0.82993  0.16011  0.65338  Biso   1.000  C
  H420     1.0000 0.81602  0.22153  0.74736  Biso   1.000  H
  H421     1.0000 0.88700  0.24393  0.72621  Biso   1.000  H
  H422     1.0000 0.81606  0.22153  0.74736  Biso   1.000  H
  H423     1.0000 0.88704  0.24393  0.72621  Biso   1.000  H
  H424     1.0000 0.20899  0.25122  0.67471  Biso   1.000  H
  H425     1.0000 0.26031  0.28791  0.57423  Biso   1.000  H
  C399     1.0000 0.22482  0.33912  0.64760  Biso   1.000  C
  H426     1.0000 0.20903  0.25122  0.67471  Biso   1.000  H
  H427     1.0000 0.16700  0.36692  0.71980  Biso   1.000  H
  H428     1.0000 0.15211  0.30073  0.76724  Biso   1.000  H
  H429     1.0000 0.16704  0.36692  0.71980  Biso   1.000  H
  H430     1.0000 0.15215  0.30073  0.76724  Biso   1.000  H
  H431     1.0000 0.25731  0.06231  0.85895  Biso   1.000  H
  C400     1.0000 0.33370  0.15003  0.87160  Biso   1.000  C
  C401     1.0000 0.33374  0.15003  0.87160  Biso   1.000  C
  H432     1.0000 0.23631  0.16043  0.79091  Biso   1.000  H
  C402     1.0000 0.26202  0.12433  0.64986  Biso   1.000  C
  H433     1.0000 0.82850  0.17692  0.57333  Biso   1.000  H
  H434     1.0000 0.78861  0.12529  0.67109  Biso   1.000  H
  H435     1.0000 0.82854  0.17692  0.57333  Biso   1.000  H
  H436     1.0000 0.78863  0.12534  0.67109  Biso   1.000  H
  H437     1.0000 0.25612  0.35753  0.71194  Biso   1.000  H
  H438     1.0000 0.23778  0.36830  0.57929  Biso   1.000  H
  H439     1.0000 0.23781  0.36834  0.57929  Biso   1.000  H
  H440     1.0000 0.23782  0.36830  0.57929  Biso   1.000  H
  H441     1.0000 0.23785  0.36834  0.57929  Biso   1.000  H
  H442     1.0000 0.35358  0.13679  0.93223  Biso   1.000  H
  H443     1.0000 0.34119  0.19112  0.89491  Biso   1.000  H
  C403     1.0000 0.36133  0.15323  0.74636  Biso   1.000  C
  H444     1.0000 0.35361  0.13684  0.93223  Biso   1.000  H
  H445     1.0000 0.35362  0.13679  0.93223  Biso   1.000  H
  H446     1.0000 0.34123  0.19112  0.89491  Biso   1.000  H
  H447     1.0000 0.35364  0.13684  0.93223  Biso   1.000  H
  H448     1.0000 0.24211  0.13711  0.58842  Biso   1.000  H
  H449     1.0000 0.25530  0.08352  0.62682  Biso   1.000  H
  C404     1.0000 0.33021  0.17009  0.65338  Biso   1.000  C
  C405     1.0000 0.33023  0.17014  0.65338  Biso   1.000  C
  H450     1.0000 0.25534  0.08352  0.62682  Biso   1.000  H
  H451     1.0000 0.40552  0.18402  0.74736  Biso   1.000  H
  H452     1.0000 0.35693  0.11302  0.72621  Biso   1.000  H
  H453     1.0000 0.35689  0.11302  0.72621  Biso   1.000  H
  H454     1.0000 0.34841  0.17151  0.57333  Biso   1.000  H
  H455     1.0000 0.33670  0.21141  0.67109  Biso   1.000  H
  H456     1.0000 0.33674  0.21141  0.67109  Biso   1.000  H
  C406     1.0000 0.87027  0.84440  0.37580  Biso   1.000  C
  C407     1.0000 0.83939  0.86181  0.46354  Biso   1.000  C
  C408     1.0000 0.83943  0.86181  0.46354  Biso   1.000  C
  C409     1.0000 0.92451  0.84633  0.40481  Biso   1.000  C
  C410     1.0000 0.84679  0.82402  0.25951  Biso   1.000  C
  C411     1.0000 0.84683  0.82402  0.25951  Biso   1.000  C
  N70      1.0000 0.78620  0.85279  0.45234  Biso   1.000  N
  N71      1.0000 0.78622  0.85283  0.45234  Biso   1.000  N
  H457     1.0000 0.86110  0.88160  0.53510  Biso   1.000  H
  C412     1.0000 0.87031  0.84440  0.37580  Biso   1.000  C
  H458     1.0000 0.94270  0.86232  0.48116  Biso   1.000  H
  C413     1.0000 0.95300  0.82562  0.32665  Biso   1.000  C
  H459     1.0000 0.94274  0.86232  0.48116  Biso   1.000  H
  C414     1.0000 0.95304  0.82562  0.32665  Biso   1.000  C
  H460     1.0000 0.81032  0.82342  0.23584  Biso   1.000  H
  C415     1.0000 0.87560  0.80492  0.17855  Biso   1.000  C
  C416     1.0000 0.87564  0.80492  0.17855  Biso   1.000  C
  C417     1.0000 0.76152  0.87102  0.55281  Biso   1.000  C
  C418     1.0000 0.92899  0.80561  0.21352  Biso   1.000  C
  C419     1.0000 0.92902  0.80561  0.21352  Biso   1.000  C
  C420     1.0000 0.00820  0.82329  0.36704  Biso   1.000  C
  C421     1.0000 0.00822  0.82333  0.36704  Biso   1.000  C
  C422     1.0000 0.00816  0.82329  0.36704  Biso   1.000  C
  C423     1.0000 0.84781  0.78050  0.05756  Biso   1.000  C
  C424     1.0000 0.70269  0.81779  0.59763  Biso   1.000  C
  C425     1.0000 0.74969  0.92131  0.50619  Biso   1.000  C
  H461     1.0000 0.79210  0.88751  0.62013  Biso   1.000  H
  C426     1.0000 0.74973  0.92131  0.50619  Biso   1.000  C
  H462     1.0000 0.79214  0.88751  0.62013  Biso   1.000  H
  H463     1.0000 0.94881  0.79209  0.15885  Biso   1.000  H
  N72      1.0000 0.02508  0.83309  0.47384  Biso   1.000  N
  H464     1.0000 0.03080  0.81422  0.31011  Biso   1.000  H
  N73      1.0000 0.02507  0.83314  0.47384  Biso   1.000  N
  N74      1.0000 0.02504  0.83309  0.47384  Biso   1.000  N
  N75      1.0000 0.02510  0.83314  0.47384  Biso   1.000  N
  H465     1.0000 0.81210  0.78160  0.03434  Biso   1.000  H
  N76      1.0000 0.87019  0.75879  0.98636  Biso   1.000  N
  H466     1.0000 0.71100  0.78609  0.63025  Biso   1.000  H
  C427     1.0000 0.67239  0.83621  0.69531  Biso   1.000  C
  H467     1.0000 0.67400  0.79951  0.52878  Biso   1.000  H
  C428     1.0000 0.67243  0.83621  0.69531  Biso   1.000  C
  H468     1.0000 0.67403  0.79951  0.52878  Biso   1.000  H
  N77      1.0000 0.80805  0.97495  0.47384  Biso   1.000  N
  H469     1.0000 0.72231  0.90629  0.43390  Biso   1.000  H
  C429     1.0000 0.72029  0.94042  0.60558  Biso   1.000  C
  H470     1.0000 0.72229  0.90634  0.43390  Biso   1.000  H
  C430     1.0000 0.72033  0.94042  0.60558  Biso   1.000  C
  H471     1.0000 0.72233  0.90634  0.43390  Biso   1.000  H
  C431     1.0000 0.07872  0.82842  0.50619  Biso   1.000  C
  C432     1.0000 0.07868  0.82842  0.50619  Biso   1.000  C
  C433     1.0000 0.83990  0.73479  0.86952  Biso   1.000  C
  C434     1.0000 0.83993  0.73483  0.86952  Biso   1.000  C
  H472     1.0000 0.69931  0.85141  0.76724  Biso   1.000  H
  C435     1.0000 0.66089  0.88572  0.64760  Biso   1.000  C
  H473     1.0000 0.63312  0.80011  0.71980  Biso   1.000  H
  H474     1.0000 0.63308  0.80011  0.71980  Biso   1.000  H
  C436     1.0000 0.66093  0.88572  0.64760  Biso   1.000  C
  C437     1.0000 0.81509  0.99181  0.36704  Biso   1.000  C
  C438     1.0000 0.81513  0.99181  0.36704  Biso   1.000  C
  H475     1.0000 0.74883  0.95782  0.67471  Biso   1.000  H
  H476     1.0000 0.71208  0.97239  0.57423  Biso   1.000  H
  H477     1.0000 0.74879  0.95782  0.67471  Biso   1.000  H
  H478     1.0000 0.71210  0.97243  0.57423  Biso   1.000  H
  H479     1.0000 0.71211  0.97239  0.57423  Biso   1.000  H
  H480     1.0000 0.71214  0.97243  0.57423  Biso   1.000  H
  H481     1.0000 0.09370  0.81600  0.43390  Biso   1.000  H
  C439     1.0000 0.12899  0.89049  0.55281  Biso   1.000  C
  C440     1.0000 0.05962  0.77991  0.60558  Biso   1.000  C
  C441     1.0000 0.12902  0.89053  0.55281  Biso   1.000  C
  C442     1.0000 0.05958  0.77991  0.60558  Biso   1.000  C
  C443     1.0000 0.12895  0.89049  0.55281  Biso   1.000  C
  C444     1.0000 0.88668  0.76630  0.77193  Biso   1.000  C
  H482     1.0000 0.80499  0.74271  0.85895  Biso   1.000  H
  C445     1.0000 0.81629  0.66631  0.87160  Biso   1.000  C
  C446     1.0000 0.88672  0.76630  0.77193  Biso   1.000  C
  H483     1.0000 0.80503  0.74271  0.85895  Biso   1.000  H
  C447     1.0000 0.81633  0.66631  0.87160  Biso   1.000  C
  H484     1.0000 0.64249  0.89859  0.71194  Biso   1.000  H
  H485     1.0000 0.63171  0.86951  0.57929  Biso   1.000  H
  H486     1.0000 0.63167  0.86951  0.57929  Biso   1.000  H
  H487     1.0000 0.78341  0.96923  0.31011  Biso   1.000  H
  C448     1.0000 0.87260  0.04701  0.32665  Biso   1.000  C
  C449     1.0000 0.87264  0.04701  0.32665  Biso   1.000  C
  N78      1.0000 0.14720  0.93341  0.45234  Biso   1.000  N
  H488     1.0000 0.11248  0.90459  0.62013  Biso   1.000  H
  C450     1.0000 0.18221  0.88490  0.59763  Biso   1.000  C
  C451     1.0000 0.18217  0.88490  0.59763  Biso   1.000  C
  H489     1.0000 0.11252  0.90459  0.62013  Biso   1.000  H
  H490     1.0000 0.04220  0.79099  0.67471  Biso   1.000  H
  H491     1.0000 0.02761  0.73969  0.57423  Biso   1.000  H
  C452     1.0000 0.11431  0.77519  0.64760  Biso   1.000  C
  H492     1.0000 0.02757  0.73969  0.57423  Biso   1.000  H
  H493     1.0000 0.04216  0.79099  0.67471  Biso   1.000  H
  C453     1.0000 0.11427  0.77519  0.64760  Biso   1.000  C
  H494     1.0000 0.92409  0.76369  0.79091  Biso   1.000  H
  N79      1.0000 0.90283  0.83089  0.76706  Biso   1.000  N
  C454     1.0000 0.86229  0.73800  0.64986  Biso   1.000  C
  C455     1.0000 0.86233  0.73800  0.64986  Biso   1.000  C
  H495     1.0000 0.78323  0.64643  0.93223  Biso   1.000  H
  H496     1.0000 0.84991  0.65879  0.89491  Biso   1.000  H
  C456     1.0000 0.79189  0.63869  0.74636  Biso   1.000  C
  H497     1.0000 0.78319  0.64643  0.93223  Biso   1.000  H
  C457     1.0000 0.79191  0.63873  0.74636  Biso   1.000  C
  C458     1.0000 0.87659  0.07101  0.21352  Biso   1.000  C
  C459     1.0000 0.92179  0.07550  0.40481  Biso   1.000  C
  C460     1.0000 0.87663  0.07101  0.21352  Biso   1.000  C
  C461     1.0000 0.92183  0.07550  0.40481  Biso   1.000  C
  C462     1.0000 0.13820  0.97761  0.46354  Biso   1.000  C
  C463     1.0000 0.16382  0.83621  0.69531  Biso   1.000  C
  H498     1.0000 0.21391  0.92489  0.63025  Biso   1.000  H
  H499     1.0000 0.20050  0.87450  0.52878  Biso   1.000  H
  H500     1.0000 0.21389  0.92493  0.63025  Biso   1.000  H
  C464     1.0000 0.16378  0.83621  0.69531  Biso   1.000  C
  H501     1.0000 0.21387  0.92489  0.63025  Biso   1.000  H
  H502     1.0000 0.21393  0.92493  0.63025  Biso   1.000  H
  H503     1.0000 0.10140  0.74390  0.71194  Biso   1.000  H
  H504     1.0000 0.13052  0.76223  0.57929  Biso   1.000  H
  H505     1.0000 0.10136  0.74390  0.71194  Biso   1.000  H
  H506     1.0000 0.13048  0.76223  0.57929  Biso   1.000  H
  C465     1.0000 0.95890  0.87203  0.77591  Biso   1.000  C
  C466     1.0000 0.95894  0.87203  0.77591  Biso   1.000  C
  H507     1.0000 0.89503  0.75792  0.58842  Biso   1.000  H
  H508     1.0000 0.82821  0.74473  0.62682  Biso   1.000  H
  C467     1.0000 0.83989  0.66979  0.65338  Biso   1.000  C
  H509     1.0000 0.89499  0.75792  0.58842  Biso   1.000  H
  H510     1.0000 0.77848  0.59448  0.74736  Biso   1.000  H
  H511     1.0000 0.75609  0.64308  0.72621  Biso   1.000  H
  H512     1.0000 0.77850  0.59453  0.74736  Biso   1.000  H
  H513     1.0000 0.75611  0.64313  0.72621  Biso   1.000  H
  H514     1.0000 0.77852  0.59448  0.74736  Biso   1.000  H
  H515     1.0000 0.75613  0.64308  0.72621  Biso   1.000  H
  H516     1.0000 0.77854  0.59453  0.74736  Biso   1.000  H
  H517     1.0000 0.84333  0.05122  0.15885  Biso   1.000  H
  C468     1.0000 0.92932  0.12442  0.17855  Biso   1.000  C
  C469     1.0000 0.92936  0.12442  0.17855  Biso   1.000  C
  C470     1.0000 0.97408  0.12969  0.37580  Biso   1.000  C
  H518     1.0000 0.91960  0.05732  0.48116  Biso   1.000  H
  C471     1.0000 0.97414  0.12974  0.37580  Biso   1.000  C
  H519     1.0000 0.91964  0.05732  0.48116  Biso   1.000  H
  C472     1.0000 0.97412  0.12969  0.37580  Biso   1.000  C
  H520     1.0000 0.11839  0.97949  0.53510  Biso   1.000  H
  H521     1.0000 0.11842  0.97953  0.53510  Biso   1.000  H
  H522     1.0000 0.11835  0.97949  0.53510  Biso   1.000  H
  C473     1.0000 0.15560  0.02589  0.37580  Biso   1.000  C
  C474     1.0000 0.15562  0.02594  0.37580  Biso   1.000  C
  H523     1.0000 0.19990  0.83300  0.71980  Biso   1.000  H
  H524     1.0000 0.14859  0.84789  0.76724  Biso   1.000  H
  H525     1.0000 0.14862  0.84793  0.76724  Biso   1.000  H
  H526     1.0000 0.19986  0.83300  0.71980  Biso   1.000  H
  H527     1.0000 0.14855  0.84789  0.76724  Biso   1.000  H
  C475     1.0000 0.98000  0.93762  0.77483  Biso   1.000  C
  H528     1.0000 0.98851  0.85943  0.78359  Biso   1.000  H
  C476     1.0000 0.98004  0.93762  0.77483  Biso   1.000  C
  H529     1.0000 0.98855  0.85943  0.78359  Biso   1.000  H
  H530     1.0000 0.82310  0.65160  0.57333  Biso   1.000  H
  H531     1.0000 0.87468  0.66328  0.67109  Biso   1.000  H
  H532     1.0000 0.87471  0.66333  0.67109  Biso   1.000  H
  H533     1.0000 0.87472  0.66328  0.67109  Biso   1.000  H
  C477     1.0000 0.97720  0.15323  0.25951  Biso   1.000  C
  C478     1.0000 0.93271  0.15223  0.05756  Biso   1.000  C
  C479     1.0000 0.97724  0.15323  0.25951  Biso   1.000  C
  C480     1.0000 0.93275  0.15223  0.05756  Biso   1.000  C
  C481     1.0000 0.02239  0.16061  0.46354  Biso   1.000  C
  C482     1.0000 0.02243  0.16061  0.46354  Biso   1.000  C
  C483     1.0000 0.15371  0.07820  0.40481  Biso   1.000  C
  C484     1.0000 0.17600  0.02282  0.25951  Biso   1.000  C
  C485     1.0000 0.17604  0.02282  0.25951  Biso   1.000  C
  C486     1.0000 0.93832  0.95892  0.77455  Biso   1.000  C
  C487     1.0000 0.93828  0.95892  0.77455  Biso   1.000  C
  C488     1.0000 0.04111  0.97940  0.77455  Biso   1.000  C
  C489     1.0000 0.04107  0.97940  0.77455  Biso   1.000  C
  H534     1.0000 0.01309  0.18970  0.23584  Biso   1.000  H
  H535     1.0000 0.01313  0.18970  0.23584  Biso   1.000  H
  N80      1.0000 0.88862  0.12983  0.98636  Biso   1.000  N
  N81      1.0000 0.88866  0.12983  0.98636  Biso   1.000  N
  H536     1.0000 0.96951  0.18791  0.03434  Biso   1.000  H
  H537     1.0000 0.96955  0.18791  0.03434  Biso   1.000  H
  H538     1.0000 0.02050  0.13890  0.53510  Biso   1.000  H
  N82      1.0000 0.06659  0.21379  0.45234  Biso   1.000  N
  N83      1.0000 0.06661  0.21384  0.45234  Biso   1.000  N
  N84      1.0000 0.06663  0.21379  0.45234  Biso   1.000  N
  C490     1.0000 0.17442  0.12740  0.32665  Biso   1.000  C
  C491     1.0000 0.17438  0.12740  0.32665  Biso   1.000  C
  H539     1.0000 0.13771  0.08040  0.48116  Biso   1.000  H
  H540     1.0000 0.17661  0.98691  0.23584  Biso   1.000  H
  H541     1.0000 0.17657  0.98691  0.23584  Biso   1.000  H
  C492     1.0000 0.19510  0.07069  0.17855  Biso   1.000  C
  C493     1.0000 0.19512  0.07074  0.17855  Biso   1.000  C
  C494     1.0000 0.95761  0.02003  0.77483  Biso   1.000  C
  C495     1.0000 0.95765  0.02003  0.77483  Biso   1.000  C
  H542     1.0000 0.89572  0.93020  0.77437  Biso   1.000  H
  H543     1.0000 0.89568  0.93020  0.77437  Biso   1.000  H
  H544     1.0000 0.06979  0.96552  0.77437  Biso   1.000  H
  H545     1.0000 0.06983  0.96552  0.77437  Biso   1.000  H
  C496     1.0000 0.06243  0.04243  0.77483  Biso   1.000  C
  C497     1.0000 0.06239  0.04243  0.77483  Biso   1.000  C
  C498     1.0000 0.89491  0.16011  0.86952  Biso   1.000  C
  C499     1.0000 0.10950  0.23853  0.55281  Biso   1.000  C
  C500     1.0000 0.10954  0.23853  0.55281  Biso   1.000  C
  C501     1.0000 0.17673  0.18493  0.36704  Biso   1.000  C
  C502     1.0000 0.19440  0.12341  0.21352  Biso   1.000  C
  C503     1.0000 0.19444  0.12341  0.21352  Biso   1.000  C
  C504     1.0000 0.21950  0.06730  0.05756  Biso   1.000  C
  C505     1.0000 0.91308  0.04110  0.77591  Biso   1.000  C
  C506     1.0000 0.91312  0.04110  0.77591  Biso   1.000  C
  C507     1.0000 0.02062  0.06171  0.77455  Biso   1.000  C
  C508     1.0000 0.02058  0.06171  0.77455  Biso   1.000  C
  C509     1.0000 0.12799  0.08691  0.77591  Biso   1.000  C
  C510     1.0000 0.12803  0.08691  0.77591  Biso   1.000  C
  C511     1.0000 0.87960  0.11329  0.77193  Biso   1.000  C
  H546     1.0000 0.93771  0.19501  0.85895  Biso   1.000  H
  C512     1.0000 0.84998  0.18370  0.87160  Biso   1.000  C
  C513     1.0000 0.87966  0.11334  0.77193  Biso   1.000  C
  C514     1.0000 0.85002  0.18370  0.87160  Biso   1.000  C
  C515     1.0000 0.87962  0.11334  0.77193  Biso   1.000  C
  C516     1.0000 0.17160  0.25030  0.50619  Biso   1.000  C
  H547     1.0000 0.09540  0.20793  0.62013  Biso   1.000  H
  C517     1.0000 0.11509  0.29730  0.59763  Biso   1.000  C
  C518     1.0000 0.11511  0.29734  0.59763  Biso   1.000  C
  H548     1.0000 0.09544  0.20793  0.62013  Biso   1.000  H
  C519     1.0000 0.11513  0.29730  0.59763  Biso   1.000  C
  N85      1.0000 0.16692  0.19199  0.47384  Biso   1.000  N
  N86      1.0000 0.16688  0.19199  0.47384  Biso   1.000  N
  H549     1.0000 0.18583  0.21663  0.31011  Biso   1.000  H
  H550     1.0000 0.18579  0.21663  0.31011  Biso   1.000  H
  H551     1.0000 0.20792  0.15672  0.15885  Biso   1.000  H
  N87      1.0000 0.24120  0.11141  0.98636  Biso   1.000  N
  N88      1.0000 0.24124  0.11141  0.98636  Biso   1.000  N
  H552     1.0000 0.21841  0.03052  0.03434  Biso   1.000  H
  N89      1.0000 0.92807  0.09717  0.76706  Biso   1.000  N
  N90      1.0000 0.92811  0.09717  0.76706  Biso   1.000  N
  H553     1.0000 0.87092  0.01151  0.78359  Biso   1.000  H
  H554     1.0000 0.03450  0.10431  0.77437  Biso   1.000  H
  H555     1.0000 0.14059  0.12909  0.78359  Biso   1.000  H
  N91      1.0000 0.16910  0.07193  0.76706  Biso   1.000  N
  H556     1.0000 0.14062  0.12914  0.78359  Biso   1.000  H
  N92      1.0000 0.16914  0.07193  0.76706  Biso   1.000  N
  H557     1.0000 0.83961  0.07591  0.79091  Biso   1.000  H
  C520     1.0000 0.87570  0.13771  0.64986  Biso   1.000  C
  H558     1.0000 0.83965  0.07591  0.79091  Biso   1.000  H
  C521     1.0000 0.87574  0.13771  0.64986  Biso   1.000  C
  H559     1.0000 0.86321  0.21681  0.93223  Biso   1.000  H
  H560     1.0000 0.80891  0.15012  0.89491  Biso   1.000  H
  C522     1.0000 0.84680  0.20811  0.74636  Biso   1.000  C
  H561     1.0000 0.86325  0.21681  0.93223  Biso   1.000  H
  H562     1.0000 0.80895  0.15012  0.89491  Biso   1.000  H
  C523     1.0000 0.84684  0.20811  0.74636  Biso   1.000  C
  H563     1.0000 0.18401  0.27774  0.43390  Biso   1.000  H
  C524     1.0000 0.22011  0.27971  0.60558  Biso   1.000  C
  H564     1.0000 0.18405  0.27774  0.43390  Biso   1.000  H
  C525     1.0000 0.16381  0.32762  0.69531  Biso   1.000  C
  H565     1.0000 0.07512  0.28901  0.63025  Biso   1.000  H
  H566     1.0000 0.12552  0.32602  0.52878  Biso   1.000  H
  H567     1.0000 0.07508  0.28901  0.63025  Biso   1.000  H
  H568     1.0000 0.12548  0.32602  0.52878  Biso   1.000  H
  C526     1.0000 0.26522  0.10509  0.86952  Biso   1.000  C
  C527     1.0000 0.26520  0.10514  0.86952  Biso   1.000  C
  C528     1.0000 0.26524  0.10514  0.86952  Biso   1.000  C
  C529     1.0000 0.23371  0.12039  0.77193  Biso   1.000  C
  C530     1.0000 0.23370  0.12044  0.77193  Biso   1.000  C
  C531     1.0000 0.23373  0.12044  0.77193  Biso   1.000  C
  H569     1.0000 0.86288  0.10500  0.58842  Biso   1.000  H
  H570     1.0000 0.91653  0.17183  0.62682  Biso   1.000  H
  C532     1.0000 0.82989  0.16011  0.65338  Biso   1.000  C
  H571     1.0000 0.86292  0.10500  0.58842  Biso   1.000  H
  C533     1.0000 0.82993  0.16011  0.65338  Biso   1.000  C
  H572     1.0000 0.81602  0.22153  0.74736  Biso   1.000  H
  H573     1.0000 0.88700  0.24393  0.72621  Biso   1.000  H
  H574     1.0000 0.81606  0.22153  0.74736  Biso   1.000  H
  H575     1.0000 0.88704  0.24393  0.72621  Biso   1.000  H
  H576     1.0000 0.20899  0.25122  0.67471  Biso   1.000  H
  H577     1.0000 0.26031  0.28791  0.57423  Biso   1.000  H
  C534     1.0000 0.22482  0.33912  0.64760  Biso   1.000  C
  H578     1.0000 0.20903  0.25122  0.67471  Biso   1.000  H
  H579     1.0000 0.16700  0.36692  0.71980  Biso   1.000  H
  H580     1.0000 0.15211  0.30073  0.76724  Biso   1.000  H
  H581     1.0000 0.16704  0.36692  0.71980  Biso   1.000  H
  H582     1.0000 0.15215  0.30073  0.76724  Biso   1.000  H
  H583     1.0000 0.25731  0.06231  0.85895  Biso   1.000  H
  C535     1.0000 0.33370  0.15003  0.87160  Biso   1.000  C
  C536     1.0000 0.33374  0.15003  0.87160  Biso   1.000  C
  H584     1.0000 0.23631  0.16043  0.79091  Biso   1.000  H
  C537     1.0000 0.26202  0.12433  0.64986  Biso   1.000  C
  H585     1.0000 0.82850  0.17692  0.57333  Biso   1.000  H
  H586     1.0000 0.78861  0.12529  0.67109  Biso   1.000  H
  H587     1.0000 0.82854  0.17692  0.57333  Biso   1.000  H
  H588     1.0000 0.78863  0.12534  0.67109  Biso   1.000  H
  H589     1.0000 0.25612  0.35753  0.71194  Biso   1.000  H
  H590     1.0000 0.23778  0.36830  0.57929  Biso   1.000  H
  H591     1.0000 0.23781  0.36834  0.57929  Biso   1.000  H
  H592     1.0000 0.23782  0.36830  0.57929  Biso   1.000  H
  H593     1.0000 0.23785  0.36834  0.57929  Biso   1.000  H
  H594     1.0000 0.35358  0.13679  0.93223  Biso   1.000  H
  H595     1.0000 0.34119  0.19112  0.89491  Biso   1.000  H
  C538     1.0000 0.36133  0.15323  0.74636  Biso   1.000  C
  H596     1.0000 0.35361  0.13684  0.93223  Biso   1.000  H
  H597     1.0000 0.35362  0.13679  0.93223  Biso   1.000  H
  H598     1.0000 0.34123  0.19112  0.89491  Biso   1.000  H
  H599     1.0000 0.35364  0.13684  0.93223  Biso   1.000  H
  H600     1.0000 0.24211  0.13711  0.58842  Biso   1.000  H
  H601     1.0000 0.25530  0.08352  0.62682  Biso   1.000  H
  C539     1.0000 0.33021  0.17009  0.65338  Biso   1.000  C
  C540     1.0000 0.33023  0.17014  0.65338  Biso   1.000  C
  H602     1.0000 0.25534  0.08352  0.62682  Biso   1.000  H
  H603     1.0000 0.40552  0.18402  0.74736  Biso   1.000  H
  H604     1.0000 0.35693  0.11302  0.72621  Biso   1.000  H
  H605     1.0000 0.35689  0.11302  0.72621  Biso   1.000  H
  H606     1.0000 0.34841  0.17151  0.57333  Biso   1.000  H
  H607     1.0000 0.33670  0.21141  0.67109  Biso   1.000  H
  H608     1.0000 0.33674  0.21141  0.67109  Biso   1.000  H
  C541     1.0000 0.67720  0.94000  0.06370  Biso   1.000  C
  C542     1.0000 0.64211  0.92251  0.18189  Biso   1.000  C
  C543     1.0000 0.63752  0.93982  0.96340  Biso   1.000  C
  H609     1.0000 0.71372  0.98123  0.07111  Biso   1.000  H
  H610     1.0000 0.69121  0.91050  0.04518  Biso   1.000  H
  C544     1.0000 0.58469  0.86012  0.17584  Biso   1.000  C
  H611     1.0000 0.66903  0.92232  0.24695  Biso   1.000  H
  H612     1.0000 0.63069  0.95370  0.20267  Biso   1.000  H
  C545     1.0000 0.58031  0.87729  0.95256  Biso   1.000  C
  H613     1.0000 0.66061  0.95031  0.88651  Biso   1.000  H
  H614     1.0000 0.62571  0.97120  0.97931  Biso   1.000  H
  C546     1.0000 0.54421  0.85842  0.07102  Biso   1.000  C
  N93      1.0000 0.55102  0.85132  0.28707  Biso   1.000  N
  H615     1.0000 0.59563  0.82732  0.16590  Biso   1.000  H
  H616     1.0000 0.59209  0.84651  0.93060  Biso   1.000  H
  H617     1.0000 0.55400  0.87830  0.88732  Biso   1.000  H
  N94      1.0000 0.49289  0.79631  0.05964  Biso   1.000  N
  H618     1.0000 0.52839  0.88691  0.08846  Biso   1.000  H
  C547     1.0000 0.54289  0.80840  0.35538  Biso   1.000  C
  C548     1.0000 0.43921  0.78591  0.07184  Biso   1.000  C
  C549     1.0000 0.51292  0.79782  0.47565  Biso   1.000  C
  H619     1.0000 0.55650  0.78119  0.32945  Biso   1.000  H
  C550     1.0000 0.38472  0.72453  0.06849  Biso   1.000  C
  H620     1.0000 0.43320  0.81990  0.08394  Biso   1.000  H
  C551     1.0000 0.51540  0.75820  0.55860  Biso   1.000  C
  C552     1.0000 0.48810  0.83410  0.51062  Biso   1.000  C
  C553     1.0000 0.39111  0.67249  0.06849  Biso   1.000  C
  C554     1.0000 0.32749  0.71862  0.06849  Biso   1.000  C
  C555     1.0000 0.49318  0.75389  0.67570  Biso   1.000  C
  H621     1.0000 0.53250  0.73360  0.53574  Biso   1.000  H
  C556     1.0000 0.46640  0.83020  0.62664  Biso   1.000  C
  H622     1.0000 0.48623  0.86163  0.45441  Biso   1.000  H
  C557     1.0000 0.33979  0.61532  0.06849  Biso   1.000  C
  H623     1.0000 0.43070  0.67671  0.06867  Biso   1.000  H
  C558     1.0000 0.27552  0.66021  0.06849  Biso   1.000  C
  H624     1.0000 0.32330  0.75403  0.06867  Biso   1.000  H
  C559     1.0000 0.49870  0.71431  0.76471  Biso   1.000  C
  C560     1.0000 0.46971  0.78962  0.70724  Biso   1.000  C
  C561     1.0000 0.44479  0.87221  0.66631  Biso   1.000  C
  C562     1.0000 0.34670  0.56081  0.07184  Biso   1.000  C
  C563     1.0000 0.28141  0.60891  0.06849  Biso   1.000  C
  C564     1.0000 0.21411  0.65330  0.07184  Biso   1.000  C
  N95      1.0000 0.53061  0.68999  0.74944  Biso   1.000  N
  H625     1.0000 0.47660  0.70653  0.83835  Biso   1.000  H
  H626     1.0000 0.45491  0.78692  0.78721  Biso   1.000  H
  N96      1.0000 0.43661  0.87972  0.77600  Biso   1.000  N
  H627     1.0000 0.43670  0.89443  0.60685  Biso   1.000  H
  N97      1.0000 0.30343  0.50713  0.05964  Biso   1.000  N
  H628     1.0000 0.38671  0.56681  0.08394  Biso   1.000  H
  H629     1.0000 0.24601  0.56929  0.06867  Biso   1.000  H
  N98      1.0000 0.20372  0.69663  0.05964  Biso   1.000  N
  H630     1.0000 0.18011  0.61331  0.08394  Biso   1.000  H
  C565     1.0000 0.53563  0.65353  0.84693  Biso   1.000  C
  C566     1.0000 0.41242  0.91980  0.80383  Biso   1.000  C
  C567     1.0000 0.31419  0.45582  0.07102  Biso   1.000  C
  C568     1.0000 0.14163  0.68582  0.07102  Biso   1.000  C
  C569     1.0000 0.50743  0.58761  0.80383  Biso   1.000  C
  H631     1.0000 0.51182  0.65472  0.91813  Biso   1.000  H
  C570     1.0000 0.60193  0.67982  0.88389  Biso   1.000  C
  C571     1.0000 0.34652  0.88210  0.84693  Biso   1.000  C
  C572     1.0000 0.45170  0.96552  0.90377  Biso   1.000  C
  H632     1.0000 0.41371  0.94303  0.72956  Biso   1.000  H
  C573     1.0000 0.27540  0.41529  0.17584  Biso   1.000  C
  H633     1.0000 0.35851  0.47163  0.08846  Biso   1.000  H
  C574     1.0000 0.29702  0.41973  0.95256  Biso   1.000  C
  H634     1.0000 0.11309  0.64153  0.08846  Biso   1.000  H
  C575     1.0000 0.13992  0.72462  0.17584  Biso   1.000  C
  C576     1.0000 0.12268  0.70300  0.95256  Biso   1.000  C
  N99      1.0000 0.44313  0.56342  0.77600  Biso   1.000  N
  C577     1.0000 0.51380  0.54831  0.90377  Biso   1.000  C
  H635     1.0000 0.52932  0.58633  0.72956  Biso   1.000  H
  H636     1.0000 0.61770  0.72160  0.91696  Biso   1.000  H
  H637     1.0000 0.62679  0.68289  0.81232  Biso   1.000  H
  C578     1.0000 0.60793  0.63882  0.98030  Biso   1.000  C
  N100     1.0000 0.31002  0.84060  0.74944  Biso   1.000  N
  H638     1.0000 0.34528  0.85709  0.91813  Biso   1.000  H
  C579     1.0000 0.32018  0.92209  0.88389  Biso   1.000  C
  H639     1.0000 0.45242  0.94261  0.97596  Biso   1.000  H
  H640     1.0000 0.49442  0.99090  0.87476  Biso   1.000  H
  C580     1.0000 0.42610  0.00684  0.93792  Biso   1.000  C
  C581     1.0000 0.28038  0.35789  0.18189  Biso   1.000  C
  N101     1.0000 0.30031  0.44900  0.28707  Biso   1.000  N
  H641     1.0000 0.23173  0.40443  0.16590  Biso   1.000  H
  C582     1.0000 0.30229  0.36252  0.96340  Biso   1.000  C
  H642     1.0000 0.25442  0.40791  0.93060  Biso   1.000  H
  H643     1.0000 0.32433  0.44602  0.88732  Biso   1.000  H
  N102     1.0000 0.14868  0.69970  0.28707  Biso   1.000  N
  H644     1.0000 0.17272  0.76832  0.16590  Biso   1.000  H
  C583     1.0000 0.07752  0.71963  0.18189  Biso   1.000  C
  H645     1.0000 0.15350  0.74560  0.93060  Biso   1.000  H
  H646     1.0000 0.12169  0.67570  0.88732  Biso   1.000  H
  C584     1.0000 0.06023  0.69773  0.96340  Biso   1.000  C
  C585     1.0000 0.42741  0.55523  0.66631  Biso   1.000  C
  H647     1.0000 0.49021  0.54762  0.97596  Biso   1.000  H
  H648     1.0000 0.49650  0.50562  0.87476  Biso   1.000  H
  C586     1.0000 0.58071  0.57391  0.93792  Biso   1.000  C
  H649     1.0000 0.65181  0.65541  0.99955  Biso   1.000  H
  H650     1.0000 0.58693  0.63983  0.05521  Biso   1.000  H
  C587     1.0000 0.28568  0.78440  0.76471  Biso   1.000  C
  H651     1.0000 0.27839  0.89612  0.91696  Biso   1.000  H
  H652     1.0000 0.31708  0.94390  0.81232  Biso   1.000  H
  C588     1.0000 0.36123  0.96914  0.98030  Biso   1.000  C
  H653     1.0000 0.42770  0.03153  0.86699  Biso   1.000  H
  H654     1.0000 0.45141  0.03524  0.00289  Biso   1.000  H
  H655     1.0000 0.25329  0.33100  0.24695  Biso   1.000  H
  H656     1.0000 0.32302  0.36930  0.20267  Biso   1.000  H
  C589     1.0000 0.26280  0.32280  0.06370  Biso   1.000  C
  C590     1.0000 0.26549  0.45711  0.35538  Biso   1.000  C
  H657     1.0000 0.28969  0.33938  0.88651  Biso   1.000  H
  H658     1.0000 0.34551  0.37429  0.97931  Biso   1.000  H
  C591     1.0000 0.19160  0.73451  0.35538  Biso   1.000  C
  H659     1.0000 0.07769  0.74670  0.24695  Biso   1.000  H
  H660     1.0000 0.04630  0.67703  0.20267  Biso   1.000  H
  C592     1.0000 0.06002  0.73722  0.06370  Biso   1.000  C
  H661     1.0000 0.04971  0.71033  0.88651  Biso   1.000  H
  H662     1.0000 0.02881  0.65449  0.97931  Biso   1.000  H
  C593     1.0000 0.36380  0.53360  0.62664  Biso   1.000  C
  H663     1.0000 0.45770  0.56329  0.60685  Biso   1.000  H
  H664     1.0000 0.60379  0.57231  0.86699  Biso   1.000  H
  H665     1.0000 0.58382  0.54863  0.00289  Biso   1.000  H
  C594     1.0000 0.24613  0.73932  0.67570  Biso   1.000  C
  H666     1.0000 0.29349  0.77011  0.83835  Biso   1.000  H
  H667     1.0000 0.34462  0.99644  0.99955  Biso   1.000  H
  H668     1.0000 0.36021  0.94710  0.05521  Biso   1.000  H
  H669     1.0000 0.26751  0.28629  0.07111  Biso   1.000  H
  H670     1.0000 0.21929  0.30878  0.04518  Biso   1.000  H
  C595     1.0000 0.28489  0.48711  0.47565  Biso   1.000  C
  H671     1.0000 0.22469  0.44350  0.32945  Biso   1.000  H
  C596     1.0000 0.20220  0.71509  0.47565  Biso   1.000  C
  H672     1.0000 0.21883  0.77533  0.32945  Biso   1.000  H
  H673     1.0000 0.01878  0.73250  0.07111  Biso   1.000  H
  H674     1.0000 0.08951  0.78073  0.04518  Biso   1.000  H
  C597     1.0000 0.34600  0.51189  0.51062  Biso   1.000  C
  C598     1.0000 0.31990  0.53031  0.70724  Biso   1.000  C
  C599     1.0000 0.21041  0.68010  0.70724  Biso   1.000  C
  C600     1.0000 0.24180  0.75723  0.55860  Biso   1.000  C
  C601     1.0000 0.24281  0.48459  0.55860  Biso   1.000  C
  C602     1.0000 0.16592  0.65403  0.51062  Biso   1.000  C
  H675     1.0000 0.37540  0.51382  0.45441  Biso   1.000  H
  C603     1.0000 0.26070  0.50681  0.67570  Biso   1.000  C
  H676     1.0000 0.33202  0.54510  0.78721  Biso   1.000  H
  C604     1.0000 0.16982  0.63621  0.62664  Biso   1.000  C
  H677     1.0000 0.21309  0.66800  0.78721  Biso   1.000  H
  H678     1.0000 0.26641  0.79892  0.53574  Biso   1.000  H
  H679     1.0000 0.20110  0.46751  0.53574  Biso   1.000  H
  H680     1.0000 0.13840  0.62462  0.45441  Biso   1.000  H
  C605     1.0000 0.21559  0.50131  0.76471  Biso   1.000  C
  C606     1.0000 0.12777  0.57259  0.66631  Biso   1.000  C
  N103     1.0000 0.15942  0.46943  0.74944  Biso   1.000  N
  H681     1.0000 0.22988  0.52339  0.83835  Biso   1.000  H
  N104     1.0000 0.12030  0.55692  0.77600  Biso   1.000  N
  H682     1.0000 0.10561  0.54231  0.60685  Biso   1.000  H
  C607     1.0000 0.11791  0.46439  0.84693  Biso   1.000  C
  C608     1.0000 0.08021  0.49261  0.80383  Biso   1.000  C
  H683     1.0000 0.14291  0.48821  0.91813  Biso   1.000  H
  C609     1.0000 0.07790  0.39811  0.88389  Biso   1.000  C
  C610     1.0000 0.03451  0.48619  0.90377  Biso   1.000  C
  H684     1.0000 0.05700  0.47071  0.72956  Biso   1.000  H
  H685     1.0000 0.10392  0.38230  0.91696  Biso   1.000  H
  H686     1.0000 0.05608  0.37319  0.81232  Biso   1.000  H
  C611     1.0000 0.03091  0.39211  0.98030  Biso   1.000  C
  H687     1.0000 0.05740  0.50983  0.97596  Biso   1.000  H
  H688     1.0000 0.00909  0.50351  0.87476  Biso   1.000  H
  C612     1.0000 0.99322  0.41932  0.93792  Biso   1.000  C
  H689     1.0000 0.00361  0.34822  0.99955  Biso   1.000  H
  H690     1.0000 0.05290  0.41309  0.05521  Biso   1.000  H
  H691     1.0000 0.96848  0.39618  0.86699  Biso   1.000  H
  H692     1.0000 0.96481  0.41620  0.00289  Biso   1.000  H
  C613     1.0000 0.96230  0.60589  0.41393  Biso   1.000  C
  C614     1.0000 0.90560  0.54391  0.41312  Biso   1.000  C
  C615     1.0000 0.00440  0.61051  0.51351  Biso   1.000  C
  H693     1.0000 0.98361  0.61313  0.33532  Biso   1.000  H
  H694     1.0000 0.95081  0.63782  0.42469  Biso   1.000  H
  C616     1.0000 0.87263  0.53040  0.53492  Biso   1.000  C
  H695     1.0000 0.91681  0.51221  0.39568  Biso   1.000  H
  H696     1.0000 0.87771  0.54231  0.34833  Biso   1.000  H
  C617     1.0000 0.97320  0.60071  0.63703  Biso   1.000  C
  H697     1.0000 0.04180  0.65151  0.51143  Biso   1.000  H
  H698     1.0000 0.01694  0.57941  0.50140  Biso   1.000  H
  N105     1.0000 0.82295  0.46714  0.53330  Biso   1.000  N
  H699     1.0000 0.85572  0.55839  0.54676  Biso   1.000  H
  C618     1.0000 0.91469  0.53750  0.64046  Biso   1.000  C
  H700     1.0000 0.96261  0.63310  0.65122  Biso   1.000  H
  H701     1.0000 0.00152  0.60332  0.70164  Biso   1.000  H
  C619     1.0000 0.76893  0.45550  0.54224  Biso   1.000  C
  N106     1.0000 0.88272  0.53209  0.75314  Biso   1.000  N
  H702     1.0000 0.92603  0.50470  0.63622  Biso   1.000  H
  C620     1.0000 0.71660  0.39321  0.54071  Biso   1.000  C
  H703     1.0000 0.76142  0.48871  0.55056  Biso   1.000  H
  C621     1.0000 0.87602  0.49100  0.82561  Biso   1.000  C
  C622     1.0000 0.65763  0.38263  0.54125  Biso   1.000  C
  C623     1.0000 0.72500  0.34241  0.54125  Biso   1.000  C
  H704     1.0000 0.89094  0.46453  0.80284  Biso   1.000  H
  C624     1.0000 0.84670  0.48189  0.94307  Biso   1.000  C
  C625     1.0000 0.60680  0.32340  0.54071  Biso   1.000  C
  H705     1.0000 0.65110  0.41661  0.54206  Biso   1.000  H
  C626     1.0000 0.67661  0.28341  0.54071  Biso   1.000  C
  H706     1.0000 0.76550  0.34891  0.54206  Biso   1.000  H
  C627     1.0000 0.81553  0.51221  0.97723  Biso   1.000  C
  C628     1.0000 0.85152  0.44391  0.02684  Biso   1.000  C
  C629     1.0000 0.54452  0.31341  0.54224  Biso   1.000  C
  C630     1.0000 0.61744  0.27502  0.54125  Biso   1.000  C
  C631     1.0000 0.68660  0.23110  0.54224  Biso   1.000  C
  C632     1.0000 0.79109  0.50539  0.08991  Biso   1.000  C
  H707     1.0000 0.81110  0.53809  0.92076  Biso   1.000  H
  H708     1.0000 0.87241  0.42271  0.00506  Biso   1.000  H
  C633     1.0000 0.82692  0.43581  0.14087  Biso   1.000  C
  N107     1.0000 0.53288  0.35583  0.53330  Biso   1.000  N
  H709     1.0000 0.51130  0.27269  0.55056  Biso   1.000  H
  H710     1.0000 0.58340  0.23449  0.54206  Biso   1.000  H
  N108     1.0000 0.64422  0.17704  0.53330  Biso   1.000  N
  H711     1.0000 0.72733  0.23861  0.55056  Biso   1.000  H
  C634     1.0000 0.75981  0.54002  0.12524  Biso   1.000  C
  C635     1.0000 0.79539  0.46590  0.17096  Biso   1.000  C
  C636     1.0000 0.83750  0.39921  0.23069  Biso   1.000  C
  C637     1.0000 0.46963  0.34222  0.53492  Biso   1.000  C
  C638     1.0000 0.65779  0.12739  0.53492  Biso   1.000  C
  N109     1.0000 0.74730  0.54483  0.23186  Biso   1.000  N
  H712     1.0000 0.74881  0.55903  0.06361  Biso   1.000  H
  H713     1.0000 0.77659  0.45940  0.24813  Biso   1.000  H
  H714     1.0000 0.81411  0.38789  0.30306  Biso   1.000  H
  N110     1.0000 0.87562  0.38230  0.21614  Biso   1.000  N
  C639     1.0000 0.45612  0.36169  0.41312  Biso   1.000  C
  H715     1.0000 0.44161  0.29729  0.54676  Biso   1.000  H
  C640     1.0000 0.46253  0.37722  0.64046  Biso   1.000  C
  H716     1.0000 0.70270  0.14429  0.54676  Biso   1.000  H
  C641     1.0000 0.62282  0.08529  0.64046  Biso   1.000  C
  C642     1.0000 0.63833  0.09441  0.41312  Biso   1.000  C
  C643     1.0000 0.71680  0.57959  0.25562  Biso   1.000  C
  C644     1.0000 0.88302  0.34561  0.30939  Biso   1.000  C
  C645     1.0000 0.39410  0.35642  0.41393  Biso   1.000  C
  H717     1.0000 0.48781  0.40461  0.39568  Biso   1.000  H
  H718     1.0000 0.45769  0.33540  0.34833  Biso   1.000  H
  C646     1.0000 0.39932  0.37250  0.63703  Biso   1.000  C
  N111     1.0000 0.46791  0.35061  0.75314  Biso   1.000  N
  H719     1.0000 0.49531  0.42129  0.63622  Biso   1.000  H
  N112     1.0000 0.64942  0.11731  0.75314  Biso   1.000  N
  H720     1.0000 0.57871  0.07402  0.63622  Biso   1.000  H
  C647     1.0000 0.62749  0.02680  0.63703  Biso   1.000  C
  H721     1.0000 0.59539  0.08319  0.39568  Biso   1.000  H
  H722     1.0000 0.66461  0.12230  0.34833  Biso   1.000  H
  C648     1.0000 0.64361  0.03770  0.41393  Biso   1.000  C
  C649     1.0000 0.65441  0.53741  0.30939  Biso   1.000  C
  H723     1.0000 0.71179  0.59709  0.17828  Biso   1.000  H
  C650     1.0000 0.75759  0.63259  0.34372  Biso   1.000  C
  C651     1.0000 0.86281  0.28322  0.25562  Biso   1.000  C
  H724     1.0000 0.85650  0.34122  0.38014  Biso   1.000  H
  C652     1.0000 0.94972  0.37690  0.34924  Biso   1.000  C
  H725     1.0000 0.38689  0.37049  0.33532  Biso   1.000  H
  H726     1.0000 0.36219  0.31300  0.42469  Biso   1.000  H
  C653     1.0000 0.38950  0.39389  0.51351  Biso   1.000  C
  H727     1.0000 0.39670  0.39820  0.70164  Biso   1.000  H
  H728     1.0000 0.36690  0.32949  0.65122  Biso   1.000  H
  C654     1.0000 0.50899  0.38501  0.82561  Biso   1.000  C
  C655     1.0000 0.61500  0.12400  0.82561  Biso   1.000  C
  H729     1.0000 0.67051  0.03738  0.65122  Biso   1.000  H
  H730     1.0000 0.60179  0.99849  0.70164  Biso   1.000  H
  C656     1.0000 0.60610  0.99560  0.51351  Biso   1.000  C
  H731     1.0000 0.62951  0.01640  0.33532  Biso   1.000  H
  H732     1.0000 0.68701  0.04920  0.42469  Biso   1.000  H
  N113     1.0000 0.61772  0.49329  0.21614  Biso   1.000  N
  H733     1.0000 0.65881  0.51533  0.38014  Biso   1.000  H
  C657     1.0000 0.62313  0.57282  0.34924  Biso   1.000  C
  H734     1.0000 0.76754  0.61592  0.41574  Biso   1.000  H
  H735     1.0000 0.79652  0.66182  0.30324  Biso   1.000  H
  C658     1.0000 0.72342  0.66590  0.38249  Biso   1.000  C
  N114     1.0000 0.79753  0.25272  0.23186  Biso   1.000  N
  H736     1.0000 0.88530  0.28822  0.17828  Biso   1.000  H
  C659     1.0000 0.87501  0.24241  0.34372  Biso   1.000  C
  H737     1.0000 0.97632  0.38560  0.27767  Biso   1.000  H
  H738     1.0000 0.96081  0.41638  0.38845  Biso   1.000  H
  C660     1.0000 0.96032  0.33709  0.43661  Biso   1.000  C
  H739     1.0000 0.34852  0.39032  0.51143  Biso   1.000  H
  H740     1.0000 0.42059  0.43750  0.50140  Biso   1.000  H
  H741     1.0000 0.53553  0.42642  0.80284  Biso   1.000  H
  C661     1.0000 0.51809  0.36481  0.94307  Biso   1.000  C
  H742     1.0000 0.57360  0.10911  0.80284  Biso   1.000  H
  C662     1.0000 0.63521  0.15332  0.94307  Biso   1.000  C
  H743     1.0000 0.60968  0.95818  0.51143  Biso   1.000  H
  H744     1.0000 0.56252  0.98310  0.50140  Biso   1.000  H
  C663     1.0000 0.60083  0.43833  0.23069  Biso   1.000  C
  H745     1.0000 0.61443  0.59073  0.27767  Biso   1.000  H
  H746     1.0000 0.58362  0.54442  0.38845  Biso   1.000  H
  C664     1.0000 0.66292  0.62320  0.43661  Biso   1.000  C
  H747     1.0000 0.74849  0.69810  0.44194  Biso   1.000  H
  H748     1.0000 0.71741  0.68610  0.31111  Biso   1.000  H
  C665     1.0000 0.78021  0.24021  0.12524  Biso   1.000  C
  H749     1.0000 0.84841  0.23252  0.41574  Biso   1.000  H
  H750     1.0000 0.86533  0.20352  0.30324  Biso   1.000  H
  C666     1.0000 0.94252  0.27658  0.38249  Biso   1.000  C
  H751     1.0000 0.93610  0.33109  0.51098  Biso   1.000  H
  H752     1.0000 0.00412  0.35789  0.45947  Biso   1.000  H
  C667     1.0000 0.48781  0.30329  0.97723  Biso   1.000  C
  C668     1.0000 0.55610  0.40759  0.02684  Biso   1.000  C
  C669     1.0000 0.69671  0.18451  0.97723  Biso   1.000  C
  C670     1.0000 0.59242  0.14851  0.02684  Biso   1.000  C
  C671     1.0000 0.56420  0.39110  0.14087  Biso   1.000  C
  H753     1.0000 0.61209  0.42619  0.30306  Biso   1.000  H
  H754     1.0000 0.64209  0.64620  0.45947  Biso   1.000  H
  H755     1.0000 0.66890  0.60502  0.51098  Biso   1.000  H
  C672     1.0000 0.71431  0.20893  0.08991  Biso   1.000  C
  H756     1.0000 0.81023  0.25121  0.06361  Biso   1.000  H
  H757     1.0000 0.94963  0.25153  0.44194  Biso   1.000  H
  H758     1.0000 0.96869  0.28258  0.31111  Biso   1.000  H
  H759     1.0000 0.46192  0.27301  0.92076  Biso   1.000  H
  C673     1.0000 0.49460  0.28570  0.08991  Biso   1.000  C
  H760     1.0000 0.57731  0.44969  0.00506  Biso   1.000  H
  H761     1.0000 0.72703  0.18891  0.92076  Biso   1.000  H
  C674     1.0000 0.60893  0.17310  0.14087  Biso   1.000  C
  H762     1.0000 0.55032  0.12762  0.00506  Biso   1.000  H
  C675     1.0000 0.53411  0.32949  0.17096  Biso   1.000  C
  C676     1.0000 0.67050  0.20462  0.17096  Biso   1.000  C
  C677     1.0000 0.45998  0.21978  0.12524  Biso   1.000  C
  C678     1.0000 0.56170  0.16252  0.23069  Biso   1.000  C
  H763     1.0000 0.54063  0.31721  0.24813  Biso   1.000  H
  H764     1.0000 0.68283  0.22340  0.24813  Biso   1.000  H
  N115     1.0000 0.45523  0.20251  0.23186  Biso   1.000  N
  H765     1.0000 0.44103  0.18982  0.06361  Biso   1.000  H
  N116     1.0000 0.50671  0.12441  0.21614  Biso   1.000  N
  H766     1.0000 0.57378  0.18588  0.30306  Biso   1.000  H
  C679     1.0000 0.42039  0.13719  0.25562  Biso   1.000  C
  C680     1.0000 0.46261  0.11699  0.30939  Biso   1.000  C
  H767     1.0000 0.40292  0.11470  0.17828  Biso   1.000  H
  C681     1.0000 0.36741  0.12501  0.34372  Biso   1.000  C
  H768     1.0000 0.48472  0.14351  0.38014  Biso   1.000  H
  C682     1.0000 0.42720  0.05030  0.34924  Biso   1.000  C
  H769     1.0000 0.38413  0.15162  0.41574  Biso   1.000  H
  H770     1.0000 0.33823  0.13472  0.30324  Biso   1.000  H
  C683     1.0000 0.33408  0.05749  0.38249  Biso   1.000  C
  H771     1.0000 0.40929  0.02368  0.27767  Biso   1.000  H
  H772     1.0000 0.45562  0.03921  0.38845  Biso   1.000  H
  C684     1.0000 0.37681  0.03971  0.43661  Biso   1.000  C
  H773     1.0000 0.30189  0.05039  0.44194  Biso   1.000  H
  H774     1.0000 0.31388  0.03129  0.31111  Biso   1.000  H
  H775     1.0000 0.35378  0.99588  0.45947  Biso   1.000  H
  H776     1.0000 0.39501  0.06390  0.51098  Biso   1.000  H
